data_I
_chemical_name_common  '/Users/gianmarcoterrones/Research/MOFs/MOF_structures/water_stability_work_extra_structs/cleaned_from_CCDC/ACOFUU'
_cell_length_a 10.57830
_cell_length_b 15.72930
_cell_length_c 26.58670
_cell_angle_alpha 90.00000
_cell_angle_beta  90.00000
_cell_angle_gamma 108.60400
_space_group_name_H-M_alt      'P 1'


loop_
_space_group_symop_operation_xyz
  'x, y, z' 

loop_
_atom_site_label
_atom_site_fract_x
_atom_site_fract_y
_atom_site_fract_z
_atom_site_type_symbol
N       0.0095   0.2348   0.3848     N
N       0.0095   0.7348   0.1152     N
C       0.0312   0.2775   0.3386     C
C       0.0312   0.7775   0.1614     C
Br     0.04968  0.06514  0.30657    Br
Br     0.04968  0.56514  0.19343    Br
N       0.0556   0.3592    0.244     N
N       0.0556   0.8592    0.256     N
H       0.0585   0.4804   0.9436     H
H       0.0585   0.9804   0.5564     H
N       0.0587   0.1504   0.4487     N
N       0.0587   0.6504   0.0513     N
C       0.0631   0.1852   0.7637     C
C       0.0631   0.6852   0.7363     C
Zn     0.06705  0.42233   0.1775    Zn
Zn     0.06705  0.92233   0.3225    Zn
H       0.0705   0.2818   0.8965     H
H       0.0705   0.7818   0.6035     H
C       0.0731   0.4226   0.9451     C
C       0.0731   0.9226   0.5549     C
C       0.0795   0.2248   0.8099     C
C       0.0795   0.7248   0.6901     C
Br     0.09079   0.1685  0.62141    Br
Br     0.09079   0.6685  0.87859    Br
H        0.105   0.3986   0.0192     H
H        0.105   0.8986   0.4808     H
C       0.1073   0.2169   0.4136     C
C       0.1073   0.7169   0.0864     C
H        0.112   0.1091   0.5142     H
H        0.112   0.6091   0.9858     H
H        0.118   0.4151   0.9144     H
H        0.118   0.9151   0.5856     H
H        0.139   0.1894   0.7448     H
H        0.139   0.6894   0.7552     H
H       0.1497   0.0237   0.4391     H
H       0.1497   0.5237   0.0609     H
C       0.1555   0.1313   0.4825     C
C       0.1555   0.6313   0.0175     C
C       0.1559   0.3214   0.3179     C
C       0.1559   0.8214   0.1821     C
C       0.1607   0.4206     0.99     C
C       0.1607   0.9206     0.51     C
C       0.1613   0.3608   0.2707     C
C       0.1613   0.8608   0.2293     C
H       0.1648   0.2533   0.8222     H
H       0.1648   0.7533   0.6778     H
H       0.2054   0.3226   0.1159     H
H       0.2054   0.8226   0.3841     H
H       0.2105   0.3797   0.9832     H
H       0.2105   0.8797   0.5168     H
C       0.2145   0.0636   0.4614     C
C       0.2145   0.5636   0.0386     C
O       0.2238   0.2572     0.41     O
O       0.2238   0.7572     0.09     O
H       0.2268   0.1867   0.4893     H
H       0.2268   0.6867   0.0107     H
H       0.2337   0.3243   0.3352     H
H       0.2337   0.8243   0.1648     H
H       0.2449   0.3902   0.2572     H
H       0.2449   0.8902   0.2428     H
N       0.2524   0.4393   0.1489     N
N       0.2524   0.9393   0.3511     N
N        0.254     0.01   0.4991     N
N        0.254     0.51   0.0009     N
C       0.2718   0.3779   0.1181     C
C       0.2718   0.8779   0.3819     C
H        0.292   0.0949   0.4413     H
H        0.292   0.5949   0.0587     H
H       0.3436   0.0577   0.3237     H
H       0.3436   0.5577   0.1763     H
H       0.3464   0.4465   0.9323     H
H       0.3464   0.9465   0.5677     H
C       0.3522   0.0156   0.3469     C
C       0.3522   0.5156   0.1531     C
C       0.3683   0.0503   0.5244     C
C       0.3683   0.5503   0.9756     C
C       0.3863   0.3921   0.0888     C
C       0.3863   0.8921   0.4112     C
H       0.3963    0.347   0.0681     H
H       0.3963    0.847   0.4319     H
N        0.402    0.499   0.9378     N
N        0.402    0.999   0.5622     N
O       0.4389   0.1242   0.5144     O
O       0.4389   0.6242   0.9856     O
C       0.4657   0.0361   0.3743     C
C       0.4657   0.5361   0.1257     C
H       0.4689   0.4086     0.87     H
H       0.4689   0.9086     0.63     H
C       0.4852   0.4755   0.0913     C
C       0.4852   0.9755   0.4087     C
C       0.5148   0.0245   0.5913     C
C       0.5148   0.5245   0.9087     C
H       0.5311   0.0914     0.37     H
H       0.5311   0.5914     0.13     H
C       0.5343   0.4639   0.8743     C
C       0.5343   0.9639   0.6257     C
O       0.5611   0.3758   0.0144     O
O       0.5611   0.8758   0.4856     O
N        0.598    0.001   0.4378     N
N        0.598    0.501   0.0622     N
H       0.6037    0.153   0.5681     H
H       0.6037    0.653   0.9319     H
C       0.6137   0.1079   0.5888     C
C       0.6137   0.6079   0.9112     C
C       0.6317   0.4497   0.0244     C
C       0.6317   0.9497   0.4756     C
C       0.6478   0.4844   0.8469     C
C       0.6478   0.9844   0.6531     C
H       0.6536   0.0535   0.4323     H
H       0.6536   0.5535   0.0677     H
H       0.6564   0.4423   0.8237     H
H       0.6564   0.9423   0.6763     H
H        0.708   0.4051   0.9413     H
H        0.708   0.9051   0.5587     H
C       0.7282   0.1221   0.6181     C
C       0.7282   0.6221   0.8819     C
N        0.746     0.49   0.9991     N
N        0.746     0.99   0.5009     N
N       0.7476   0.0607   0.6489     N
N       0.7476   0.5607   0.8511     N
H       0.7551   0.1098   0.7572     H
H       0.7551   0.6098   0.7428     H
H       0.7663   0.1757   0.8352     H
H       0.7663   0.6757   0.6648     H
H       0.7732   0.3133   0.9893     H
H       0.7732   0.8133   0.5107     H
O       0.7762   0.2428     0.91     O
O       0.7762   0.7428     0.59     O
C       0.7855   0.4364   0.9614     C
C       0.7855   0.9364   0.5386     C
H       0.7895   0.1203   0.4832     H
H       0.7895   0.6203   0.0168     H
H       0.7946   0.1774   0.6159     H
H       0.7946   0.6774   0.8841     H
H       0.8352   0.2467   0.3222     H
H       0.8352   0.7467   0.1778     H
C       0.8387   0.1392   0.7707     C
C       0.8387   0.6392   0.7293     C
C       0.8393   0.0794     0.49     C
C       0.8393   0.5794     0.01     C
C       0.8441   0.1786   0.8179     C
C       0.8441   0.6786   0.6821     C
C       0.8445   0.3687   0.9825     C
C       0.8445   0.8687   0.5175     C
H       0.8503   0.4763   0.9391     H
H       0.8503   0.9763   0.5609     H
H        0.861   0.3106   0.2448     H
H        0.861   0.8106   0.2552     H
H        0.882   0.0849   0.4144     H
H        0.882   0.5849   0.0856     H
H        0.888   0.3909   0.0142     H
H        0.888   0.8909   0.4858     H
C       0.8927   0.2831   0.9136     C
C       0.8927   0.7831   0.5864     C
H        0.895   0.1014   0.5192     H
H        0.895   0.6014   0.9808     H
Br     0.90921   0.3315  0.12141    Br
Br     0.90921   0.8315  0.37859    Br
C       0.9205   0.2752   0.3099     C
C       0.9205   0.7752   0.1901     C
C       0.9269   0.0774   0.4451     C
C       0.9269   0.5774   0.0549     C
H       0.9295   0.2182   0.3965     H
H       0.9295   0.7182   0.1035     H
Zn     0.93295  0.07767   0.6775    Zn
Zn     0.93295  0.57767   0.8225    Zn
C       0.9369   0.3148   0.2637     C
C       0.9369   0.8148   0.2363     C
N       0.9413   0.3496   0.9487     N
N       0.9413   0.8496   0.5513     N
H       0.9415   0.0196   0.4436     H
H       0.9415   0.5196   0.0564     H
N       0.9444   0.1408    0.744     N
N       0.9444   0.6408    0.756     N
Br     0.95032  0.43486  0.80657    Br
Br     0.95032  0.93486  0.69343    Br
C       0.9688   0.2225   0.8386     C
C       0.9688   0.7225   0.6614     C
N       0.9905   0.2652   0.8848     N
N       0.9905   0.7652   0.6152     N
