data_I
_chemical_name_common  '/Users/gianmarcoterrones/Research/MOFs/MOF_structures/water_stability_work_extra_structs/cleaned_from_CoRE/AKOXIJ_clean'
_cell_length_a 12.68240
_cell_length_b 19.82944
_cell_length_c 19.82944
_cell_angle_alpha 78.77608
_cell_angle_beta  72.61812
_cell_angle_gamma 72.61812
_space_group_name_H-M_alt      'P 1'


loop_
_space_group_symop_operation_xyz
  'x, y, z' 

loop_
_atom_site_label
_atom_site_fract_x
_atom_site_fract_y
_atom_site_fract_z
_atom_site_type_symbol
O          0.0  0.21114  0.78886     O
O          0.0  0.78886  0.21114     O
C       0.0096   0.0518    0.681     C
C       0.0096    0.681   0.0518     C
O       0.0198   0.3025   0.8869     O
O       0.0198   0.8869   0.3025     O
H       0.0218   0.4394   0.8248     H
H       0.0218   0.8248   0.4394     H
H        0.032   0.1829   0.4387     H
H        0.032   0.4387   0.1829     H
C        0.041   0.0044    0.299     C
C        0.041    0.299   0.0044     C
C        0.054  0.17788  0.53632     C
C        0.054  0.53632  0.17788     C
Ni     0.06267  0.19141  0.68229    Ni
Ni     0.06267  0.68229  0.19141    Ni
O      0.06788  0.34712  0.73128     O
O      0.06788  0.73128  0.34712     O
C       0.0761   0.0835   0.2845     C
C       0.0761   0.2845   0.0835     C
C       0.0791   0.2435   0.9057     C
C       0.0791   0.9057   0.2435     C
C       0.0852  0.18259  0.46385     C
C       0.0852  0.46385  0.18259     C
C       0.1038   0.2389   0.9751     C
C       0.1038   0.9751   0.2389     C
O       0.1179  0.18966  0.87566     O
O       0.1179  0.87566  0.18966     O
N      0.12473   0.1769  0.57496     N
N      0.12473  0.57496   0.1769     N
N        0.139   0.1103   0.2359     N
O        0.139   0.2206   0.1124     O
C       0.1463  0.31867  0.68257     C
C       0.1463  0.68257  0.31867     C
C       0.1502   0.2588   0.8714     C
C       0.1502   0.8714   0.2588     C
C       0.1543   0.2571   0.9905     C
C       0.1543   0.9905   0.2571     C
Ni     0.15615  0.21313  0.21313    Ni
O      0.15654  0.20028  0.31634     O
O      0.15654  0.31634  0.20028     O
O      0.16408  0.25913  0.66379     O
O      0.16408  0.66379  0.25913     O
C        0.175   0.0015   0.1755     C
C        0.175   0.1755   0.0015     C
O       0.1751   0.1155   0.8145     O
O       0.1751   0.8145   0.1155     O
C       0.1893   0.0683   0.1719     C
C       0.1893   0.1719   0.0683     C
O       0.1903   0.1041   0.7067     O
O       0.1903   0.7067   0.1041     O
C       0.1946  0.18693  0.42731     C
C       0.1946  0.42731  0.18693     C
C       0.2005   0.4344   0.6404     C
C       0.2005   0.6404   0.4344     C
C       0.2089   0.0527   0.2303     C
C       0.2089   0.2303   0.0527     C
C       0.2118   0.2375   0.9225     C
C       0.2118   0.9225   0.2375     C
C       0.2136   0.0866    0.761     C
C       0.2136    0.761   0.0866     C
C       0.2275   0.0449   0.6867     C
C       0.2275   0.6867   0.0449     C
C       0.2295  0.36192  0.63998     C
C       0.2295  0.63998  0.36192     C
C       0.2312  0.19634  0.34704     C
C       0.2312  0.34704  0.19634     C
C       0.2313  0.17774  0.54034     C
C       0.2313  0.54034  0.17774     C
C       0.2545    0.411   0.6688     C
C       0.2545   0.6688    0.411     C
H       0.2674   0.7092   0.7092     H
C       0.2697  0.18251  0.46715     C
C       0.2697  0.46715  0.18251     C
O       0.2745  0.62597  0.62597     O
C       0.2771  0.11996  0.74056     C
C       0.2771  0.74056  0.11996     C
C       0.2783   0.4735   0.5999     C
C       0.2783   0.5999   0.4735     C
C       0.2792    0.357   0.5708     C
C       0.2792   0.5708    0.357     C
H       0.2837   0.1749   0.5671     H
H       0.2837   0.5671   0.1749     H
C       0.3007    0.015   0.7636     C
C       0.3007   0.7636    0.015     C
C       0.3136   0.7022   0.9894     C
C       0.3136   0.9894   0.7022     C
O       0.3154  0.04182  0.20998     O
O       0.3154  0.20998  0.04182     O
O      0.33117  0.19984  0.31944     O
O      0.33117  0.31944  0.19984     O
C       0.3337   0.8254    0.985     C
C       0.3337    0.985   0.8254     C
C        0.334   0.4468   0.6288     C
C        0.334   0.6288   0.4468     C
H       0.3347   0.7701   0.7701     H
O      0.33474  0.17593  0.17593     O
C        0.336   0.3293   0.5997     C
C        0.336   0.5997   0.3293     C
H        0.347   0.1828   0.4444     H
H        0.347   0.4444   0.1828     H
C       0.3475   0.7014   0.7014     C
H       0.3523   0.3228   0.3228     H
C       0.3531   0.3984   0.5326     C
C       0.3531   0.5326   0.3984     C
C       0.3644   0.0652   0.7592     C
C       0.3644   0.7592   0.0652     C
C       0.3791  0.61444  0.61444     C
N      0.38177  0.44246  0.56138     N
N      0.38177  0.56138  0.44246     N
C       0.3836   0.7399   0.9983     C
C       0.3836   0.9983   0.7399     C
C       0.3881   0.7382   0.7382     C
C       0.4089  0.82758  0.91818     C
C       0.4089  0.91818  0.82758     C
C       0.4099   0.3707   0.5623     C
C       0.4099   0.5623   0.3707     C
H       0.4139   0.3848   0.3848     H
C       0.4188  0.65582  0.65582     C
C       0.4257   0.7105   0.9113     C
C       0.4257   0.9113   0.7105     C
Ni      0.4288  0.22011  0.22011    Ni
C        0.432  0.31592  0.31592     C
O       0.4486  0.57431  0.57431     O
O       0.4539  0.05115  0.21191     O
O       0.4539  0.21191  0.05115     O
N         0.46   0.7729   0.8811     N
N         0.46   0.8811   0.7729     N
C       0.4683   0.3531   0.3531     C
C       0.4755  0.76316  0.93516     C
C       0.4755  0.93516  0.76316     C
N        0.494  0.72987  0.72987     N
Ni         0.5      0.5      0.5    Ni
N        0.506  0.27013  0.27013     N
C       0.5245  0.06484  0.23684     C
C       0.5245  0.23684  0.06484     C
C       0.5317   0.6469   0.6469     C
O       0.5342    0.124   0.2438     O
O       0.5342   0.2438    0.124     O
O       0.5461  0.78809  0.94885     O
O       0.5461  0.94885  0.78809     O
O       0.5514  0.42569  0.42569     O
C        0.568  0.68408  0.68408     C
Ni      0.5712  0.77989  0.77989    Ni
C       0.5743   0.0887   0.2895     C
C       0.5743   0.2895   0.0887     C
C       0.5812  0.34418  0.34418     C
H       0.5861   0.6152   0.6152     H
C       0.5901   0.4377   0.6293     C
C       0.5901   0.6293   0.4377     C
C       0.5911  0.08182  0.17242     C
C       0.5911  0.17242  0.08182     C
C       0.6119   0.2618   0.2618     C
C       0.6164   0.0017   0.2601     C
C       0.6164   0.2601   0.0017     C
N      0.61823  0.43862  0.55754     N
N      0.61823  0.55754  0.43862     N
C       0.6209  0.38556  0.38556     C
C       0.6356   0.2408   0.9348     C
C       0.6356   0.9348   0.2408     C
C       0.6469   0.4674   0.6016     C
C       0.6469   0.6016   0.4674     C
H       0.6477   0.6772   0.6772     H
C       0.6525   0.0236   0.2948     C
C       0.6525   0.2948   0.0236     C
C       0.6525   0.2986   0.2986     C
H        0.653   0.5556   0.8172     H
H        0.653   0.8172   0.5556     H
C        0.664   0.4003   0.6707     C
C        0.664   0.6707   0.4003     C
O      0.66526  0.82407  0.82407     O
H       0.6653   0.2299   0.2299     H
C        0.666   0.3712   0.5532     C
C        0.666   0.5532   0.3712     C
C       0.6663    0.015   0.1746     C
C       0.6663   0.1746    0.015     C
O      0.66883  0.68056  0.80016     O
O      0.66883  0.80016  0.68056     O
O       0.6846  0.79002  0.95818     O
O       0.6846  0.95818  0.79002     O
C       0.6993   0.2364    0.985     C
C       0.6993    0.985   0.2364     C
H       0.7163   0.4329   0.8251     H
H       0.7163   0.8251   0.4329     H
C       0.7208   0.4292    0.643     C
C       0.7208    0.643   0.4292     C
C       0.7217   0.4001   0.5265     C
C       0.7217   0.5265   0.4001     C
C       0.7229  0.25944  0.88004     C
C       0.7229  0.88004  0.25944     C
O       0.7255  0.37403  0.37403     O
C       0.7303  0.53285  0.81749     C
C       0.7303  0.81749  0.53285     C
H       0.7326   0.2908   0.2908     H
C       0.7455   0.3312    0.589     C
C       0.7455    0.589   0.3312     C
C       0.7687  0.45966  0.82226     C
C       0.7687  0.82226  0.45966     C
C       0.7688  0.65296  0.80366     C
C       0.7688  0.80366  0.65296     C
C       0.7705  0.36002  0.63808     C
C       0.7705  0.63808  0.36002     C
C       0.7725   0.3133   0.9551     C
C       0.7725   0.9551   0.3133     C
C       0.7864    0.239   0.9134     C
C       0.7864   0.9134    0.239     C
C       0.7882   0.0775   0.7625     C
C       0.7882   0.7625   0.0775     C
C       0.7911   0.7697   0.9473     C
C       0.7911   0.9473   0.7697     C
N       0.7929   0.2985   0.8827     N
N       0.7929   0.8827   0.2985     N
C       0.7995   0.3596   0.5656     C
C       0.7995   0.5656   0.3596     C
C       0.8054  0.57269  0.81307     C
C       0.8054  0.81307  0.57269     C
C       0.8107   0.8281   0.9317     C
C       0.8107   0.9317   0.8281     C
O       0.8249   0.1855   0.8845     O
O       0.8249   0.8845   0.1855     O
C        0.825   0.8245   0.9985     C
C        0.825   0.9985   0.8245     C
O      0.83592  0.33621  0.74087     O
O      0.83592  0.74087  0.33621     O
O      0.84346  0.68366  0.79972     O
O      0.84346  0.79972  0.68366     O
Ni     0.84385  0.78687  0.78687    Ni
C       0.8457   0.0095   0.7429     C
C       0.8457   0.7429   0.0095     C
C       0.8498   0.1286   0.7412     C
C       0.8498   0.7412   0.1286     C
C       0.8537  0.31743  0.68133     C
C       0.8537  0.68133  0.31743     C
N        0.861   0.7641   0.8897     N
O        0.861   0.8876   0.7794     O
N      0.87527  0.42504   0.8231     N
N      0.87527   0.8231  0.42504     N
O       0.8821  0.12434  0.81034     O
O       0.8821  0.81034  0.12434     O
C       0.8962   0.0249   0.7611     C
C       0.8962   0.7611   0.0249     C
C       0.9148  0.53615  0.81741     C
C       0.9148  0.81741  0.53615     C
C       0.9209   0.0943   0.7565     C
C       0.9209   0.7565   0.0943     C
C       0.9239   0.7155   0.9165     C
C       0.9239   0.9165   0.7155     C
O      0.93212  0.26872  0.65288     O
O      0.93212  0.65288  0.26872     O
Ni     0.93733  0.31771  0.80859    Ni
Ni     0.93733  0.80859  0.31771    Ni
C        0.942    0.704   0.9834     C
C        0.942   0.9834    0.704     C
C        0.946  0.46368  0.82212     C
C        0.946  0.82212  0.46368     C
N        0.956   0.1217   0.7037     N
N        0.956   0.7037   0.1217     N
H        0.968   0.5613   0.8171     H
H        0.968   0.8171   0.5613     H
H       0.9782   0.1752   0.5606     H
H       0.9782   0.5606   0.1752     H
C       0.9904    0.319   0.9482     C
C       0.9904   0.9482    0.319     C
