data_I
_chemical_name_common  '/Users/gianmarcoterrones/Research/MOFs/MOF_structures/water_stability_work_extra_structs/cleaned_from_CCDC/ASEBAD'
_cell_length_a  9.15180
_cell_length_b  9.53750
_cell_length_c 17.35860
_cell_angle_alpha 104.49100
_cell_angle_beta  91.56900
_cell_angle_gamma 107.98400
_space_group_name_H-M_alt      'P 1'


loop_
_space_group_symop_operation_xyz
  'x, y, z' 

loop_
_atom_site_label
_atom_site_fract_x
_atom_site_fract_y
_atom_site_fract_z
_atom_site_type_symbol
N       0.0023   0.1659   0.5764     N
C       0.0054   0.4227   0.9842     C
H       0.0229   0.0987   0.1252     H
H       0.0242   0.5857   0.3409     H
C       0.0311   0.0385   0.5449     C
C       0.0315   0.1339   0.9239     C
C       0.0397   0.3813   0.6879     C
C       0.0572   0.9903   0.9005     C
C       0.0658   0.2446   0.6537     C
H        0.086   0.5572   0.7825     H
C       0.1029   0.9715   0.5846     C
H       0.1035   0.8731   0.5601     H
C       0.1038   0.4653   0.7605     C
C       0.1038   0.8379   0.0944     C
C       0.1146   0.6979    0.064     C
N       0.1422   0.4075   0.9985     N
C       0.1541   0.1895   0.6986     C
H       0.1558   0.4631    0.447     H
C       0.1594   0.2655    0.971     C
C        0.178   0.0457   0.6629     C
C        0.199    0.415    0.805     C
H       0.2065   0.6812   0.0757     H
C       0.2094   0.9862   0.9174     C
C        0.227   0.4647   0.4868     C
C        0.229   0.2854   0.7759     C
H         0.23    0.895   0.8977     H
C       0.2347   0.9504   0.1513     C
O        0.237   0.0851   0.1904     O
O       0.2407   0.8329   0.6788     O
H       0.2425   0.6773   0.5592     H
H       0.2432   0.4754   0.8563     H
H       0.2484   0.5316   0.1541     H
H       0.2517   0.2697   0.4303     H
H       0.2751   0.7211   0.2687     H
C       0.2755    0.976   0.6981     C
C       0.2768    0.594   0.5558     C
C       0.2786   0.3482   0.4777     C
C       0.2953   0.5276   0.2013     C
H        0.297   0.2574   0.8049     H
H        0.298   0.3137   0.1578     H
C       0.3074    0.253   0.9882     C
C       0.3219   0.6464    0.266     C
C        0.325   0.1114   0.9613     C
C       0.3341   0.3998   0.2014     C
O       0.3681   0.9232    0.157     O
N       0.3732   0.5946   0.6156     N
C       0.3738   0.3441   0.5401     C
O       0.3862   0.0555   0.7491     O
H       0.3892   0.3384   0.0166     H
O       0.3927    0.784   0.8168     O
O       0.4036    0.097   0.3341     O
H       0.4136   0.1357   0.4951     H
C       0.4174   0.4703   0.6068     C
H       0.4198   0.1009   0.9737     H
N       0.4232   0.3965   0.2632     N
C        0.426   0.6532   0.3309     C
H       0.4364   0.8609   0.4062     H
C        0.439   0.2195     0.54     C
C        0.471   0.5264   0.3267     C
C       0.4725   0.7786   0.4023     C
U      0.49432  0.84253  0.74036     U
U      0.50568  0.15747  0.25964     U
C       0.5275   0.2214   0.5977     C
C        0.529   0.4736   0.6733     C
C        0.561   0.7805     0.46     C
H       0.5636   0.1391   0.5938     H
C        0.574   0.3468   0.6691     C
N       0.5768   0.6035   0.7368     N
H       0.5802   0.8991   0.0263     H
C       0.5826   0.5297   0.3932     C
H       0.5864   0.8643   0.5049     H
O       0.5964    0.903   0.6659     O
O       0.6073    0.216   0.1832     O
H       0.6108   0.6616   0.9834     H
O       0.6138   0.9445   0.2509     O
C       0.6262   0.6559   0.4599     C
N       0.6268   0.4054   0.3844     N
O       0.6319   0.0768    0.843     O
C       0.6659   0.6002   0.7986     C
C        0.675   0.8886   0.0387     C
C       0.6781   0.3536    0.734     C
C       0.6926    0.747   0.0118     C
H        0.702   0.6863   0.8422     H
H        0.703   0.7426   0.1951     H
C       0.7047   0.4724   0.7987     C
C       0.7214   0.6518   0.5223     C
C       0.7232    0.406   0.4442     C
C       0.7245    0.024   0.3019     C
H       0.7249   0.2789   0.7313     H
H       0.7483   0.7303   0.5697     H
H       0.7516   0.4684   0.8459     H
H       0.7568   0.5246   0.1437     H
H       0.7575   0.3227   0.4408     H
O       0.7593   0.1671   0.3212     O
O        0.763   0.9149   0.8096     O
C       0.7653   0.0496   0.8487     C
H         0.77    0.105   0.1023     H
C        0.771   0.7146   0.2241     C
C        0.773   0.5353   0.5132     C
C       0.7906   0.0138   0.0826     C
H       0.7935   0.3188   0.9243     H
C        0.801    0.585    0.195     C
C        0.822   0.9543   0.3371     C
C       0.8406   0.7345    0.029     C
H       0.8442   0.5369    0.553     H
C       0.8459   0.8105   0.3014     C
N       0.8578   0.5925   0.0015     N
C       0.8854   0.3021    0.936     C
C       0.8962   0.1621   0.9056     C
C       0.8962   0.5347   0.2395     C
H       0.8965   0.1269   0.4399     H
C       0.8971   0.0285   0.4154     C
H        0.914   0.4428   0.2175     H
C       0.9342   0.7554   0.3463     C
C       0.9428   0.0097   0.0995     C
C       0.9603   0.6187   0.3121     C
C       0.9685   0.8661   0.0761     C
C       0.9689   0.9615   0.4551     C
H       0.9758   0.4143   0.6591     H
H       0.9771   0.9013   0.8748     H
C       0.9946   0.5773   0.0158     C
N       0.9977   0.8341   0.4236     N
