data_I
_chemical_name_common  '/Users/gianmarcoterrones/Research/MOFs/MOF_structures/water_stability_work_extra_structs/cleaned_from_CCDC/ATAJAI'
_cell_length_a 14.58387
_cell_length_b 14.58387
_cell_length_c 20.83500
_cell_angle_alpha 76.07476
_cell_angle_beta  76.07476
_cell_angle_gamma 83.74636
_space_group_name_H-M_alt      'P 1'


loop_
_space_group_symop_operation_xyz
  'x, y, z' 

loop_
_atom_site_label
_atom_site_fract_x
_atom_site_fract_y
_atom_site_fract_z
_atom_site_type_symbol
C       0.0072    0.396   0.8377     C
C       0.0096    0.349   0.5774     C
H        0.015   0.2928   0.9179     H
H       0.0334   0.2554   0.3799     H
O       0.0424   0.3992   0.1014     O
H        0.043   0.2452   0.7029     H
C       0.0486   0.3406   0.8858     C
N       0.0491   0.4697   0.7906     N
C       0.0498   0.4104   0.6139     C
H       0.0514    0.294   0.5705     H
N       0.0611   0.6855   0.8781     N
Zn     0.06144  0.45466  0.37521    Zn
C        0.069    0.627   0.9386     C
H       0.0767   0.4667   0.5814     H
O       0.0816    0.603   0.6328     O
H       0.0942   0.2634   0.1962     H
C      0.10125  0.27005   0.6975     C
C       0.1086   0.4334   0.1119     C
O       0.1184   0.5184   0.1015     O
H       0.1228   0.7676    0.792     H
C        0.124   0.3552   0.6516     C
H       0.1247   0.6603   0.5086     H
C       0.1304   0.6698    0.632     C
H       0.1307   0.1701   0.9363     H
O       0.1333   0.6965   0.6824     O
C       0.1337   0.7273   0.8317     C
C       0.1344   0.4864   0.7951     C
O       0.1367   0.3661    0.429     O
H        0.137    0.634   0.3667     H
C       0.1397   0.3539    0.888     C
N       0.1408   0.5504   0.3038     N
H       0.1502    0.165   0.7659     H
C       0.1568   0.2802   0.1845     C
C       0.1594   0.6288   0.3219     C
C       0.1633   0.6067   0.9505     C
H       0.1643   0.5379   0.7648     H
C      0.16542  0.22202   0.7352     C
C       0.1658   0.7062   0.5062     C
H       0.1733   0.4871   0.2296     H
H       0.1744   0.5636   0.9891     H
C      0.17715  0.19155    0.952     C
C       0.1785   0.5433   0.2418     C
C       0.1801   0.7217   0.5638     C
C       0.1818   0.3662   0.1405     C
C       0.1821   0.4313   0.8426     C
C       0.1927   0.3171    0.402     C
C       0.1935   0.2873   0.9358     C
H       0.1944   0.7476   0.4049     H
H       0.2085   0.1615   0.2404     H
C       0.2101   0.7007   0.2763     C
C       0.2105   0.7565   0.4435     C
C      0.21105  0.39225   0.6434     C
O       0.2136   0.3224   0.3383     O
H       0.2196   0.0634   0.0023     H
H       0.2227   0.7527   0.2907     H
C       0.2229   0.7119   0.8419     C
C      0.22526  0.21906    0.211     C
C       0.2261   0.6153   0.1933     C
H       0.2263   0.4493   0.6127     H
H       0.2283   0.3185   0.5243     H
C      0.23039  0.12759   0.9915     C
H       0.2324   0.8772    0.208     H
C       0.2347   0.6519   0.9041     C
H       0.2373   0.0623   0.1355     H
H       0.2418   0.4464   0.8438     H
C       0.2423   0.6955   0.2097     C
C       0.2435   0.7895   0.5565     C
H       0.2471   0.6085   0.1488     H
H       0.2473   0.7773   0.7093     H
C       0.2524   0.2592   0.7271     C
H       0.2524   0.8056   0.5951     H
C       0.2587   0.2549    0.445     C
C       0.2623   0.2679   0.5082     C
C       0.2631   0.3193   0.9592     C
C       0.2727   0.8663   0.1683     C
H        0.274   0.3834   0.9483     H
C      0.27522  0.34422   0.6812     C
C       0.2754    0.391   0.1231     C
C       0.2783   0.8199   0.4362     C
H       0.2858   0.0726   0.7783     H
C       0.2881   0.7771   0.1581     C
H       0.2922   0.4486   0.0936     H
C       0.2938   0.8342   0.4938     C
H       0.2946   0.6432   0.9134     H
C       0.2993   0.7899   0.7237     C
C          0.3   0.1594   0.0149     C
C       0.3032   0.0396   0.1282     C
O       0.3035   0.8667   0.3176     O
C       0.3045   0.7577   0.7903     C
H       0.3071   0.1705   0.3786     H
C       0.3095   0.1791   0.4209     C
N       0.3145   0.9389   0.1219     N
C       0.3163   0.2553   0.9987     C
C       0.3168    0.205   0.5474     C
C       0.3189   0.2439   0.1936     C
H       0.3193   0.2137   0.5897     H
C       0.3194   0.2064   0.7708     C
C       0.3216    0.109   0.7932     C
H         0.33   0.0484   0.1645     H
C       0.3302   0.8696    0.368     C
H       0.3333   0.3691   0.6757     H
H       0.3397   0.8753   0.4914     H
C      0.34394  0.32994   0.1496     C
C       0.3481   0.7653   0.0959     C
H       0.3568   0.7054   0.0866     H
C       0.3606   0.0882   0.0573     C
H       0.3629   0.2767   0.0143     H
O       0.3641   0.1045   0.2652     O
C       0.3641   0.1163   0.4601     C
H        0.366    0.863   0.6333     H
C       0.3677   0.1293   0.5233     C
C       0.3712   0.8406   0.6781     C
C        0.373    0.931   0.0614     C
H       0.3754   0.0028    0.852     H
C       0.3762   0.0682   0.8367     C
C       0.3772    0.255   0.7924     C
H       0.3799   0.3203   0.7777     H
C       0.3847   0.7739   0.8067     C
H       0.3915   0.7529   0.8512     H
C       0.3933   0.8367   0.0495     C
O        0.397   0.9184   0.3672     O
C       0.3972   0.1772   0.2183     C
H        0.398   0.0656    0.444     H
O       0.4033   0.0721   0.6345     O
N       0.4053   0.0105   0.0231     N
H       0.4066   0.3466   0.1379     H
H        0.411    0.122   0.0638     H
C       0.4274   0.0674    0.574     C
N       0.4311   0.1129     0.86     N
C       0.4315   0.2045   0.8368     C
H       0.4364   0.8256   0.0109     H
N       0.4496   0.8592   0.6962     N
C       0.4567   0.8215   0.7582     C
H       0.4621   0.8357   0.2352     H
Zn     0.46314  0.01118  0.28969    Zn
H       0.4707   0.2379    0.851     H
O       0.4766   0.0084    0.551     O
O       0.4799   0.1897   0.1938     O
O       0.4816   0.8816   0.8985     O
Zn     0.49964  0.04456  0.93464    Zn
H       0.5129   0.8267   0.7704     H
C       0.5136   0.8656   0.2049     C
H       0.5174   0.0928   0.7054     H
N       0.5303   0.9509   0.2094     N
H       0.5333   0.9233   0.4186     H
Zn     0.54534  0.93856  0.62479    Zn
H       0.5507   0.7737   0.3873     H
H       0.5514   0.7078   0.9064     H
H       0.5536   0.7582   0.1562     H
O       0.5601   0.1359   0.9628     O
N       0.5617   0.0341   0.3359     N
C       0.5666   0.8914   0.8881     C
C       0.5687   0.8179   0.1574     C
C       0.5825   0.0899   0.6887     C
C       0.5896   0.9502   0.3861     C
H       0.5926    0.209   0.2513     H
H       0.5945   0.1863   0.0588     H
H       0.6001   0.2057   0.7189     H
O       0.6008   0.9576   0.8986     O
C        0.604   0.9928   0.1623     C
C      0.60775  0.78895   0.3566     C
C        0.609   0.7246   0.8769     C
C       0.6147   0.1967   0.9268     C
H        0.615   0.0014   0.4659     H
H       0.6166    0.726   0.0517     H
H        0.617   0.0534   0.1633     H
N       0.6176    0.022   0.6598     N
C       0.6186    0.102   0.3282     C
H       0.6309   0.6667   0.3243     H
C        0.632   0.1588   0.6973     C
C       0.6322   0.1884   0.2815     C
C       0.6338   0.8182   0.8595     C
O       0.6339   0.8633    0.571     O
O        0.636    0.213   0.8668     O
C       0.6413   0.2277   0.0344     C
C       0.6448    0.876   0.3484     C
C       0.6461   0.8603    0.112     C
C        0.651   0.9904   0.4226     C
H       0.6534   0.5934   0.8621     H
C      0.65578  0.72478   0.3188     C
C       0.6594   0.9514   0.1142     C
C       0.6624    0.247   0.9658     C
C      0.67006  0.65606   0.8504     C
O       0.6776   0.7864   0.6617     O
N       0.6779   0.0797   0.3739     N
H       0.6791   0.2517    0.115     H
H       0.6797   0.6201   0.2223     H
C       0.6807   0.7369   0.0408     C
H       0.6815   0.7717   0.4757     H
C       0.6829   0.8073    0.598     C
C       0.6897   0.2699   0.0679     C
H       0.7005   0.2865   0.7525     H
C       0.7039   0.2431     0.28     C
H        0.706   0.9486   0.4295     H
H       0.7072    0.985   0.0821     H
C       0.7127   0.8065   0.0642     C
H       0.7135   0.2995   0.2475     H
C        0.715   0.0156   0.6403     C
C       0.7198   0.8432   0.8155     C
H       0.7233   0.6371   0.9857     H
C       0.7266   0.1588   0.6746     C
C      0.72995  0.89875   0.3025     C
C       0.7301   0.3103   0.9321     C
C       0.7321   0.7377   0.4918     C
H       0.7366   0.9058   0.8038     H
C       0.7408   0.7476   0.2729     C
H       0.7446   0.9666   0.6201     H
C       0.7447   0.6837   0.0013     C
C        0.745   0.6228   0.2076     C
C       0.7451   0.7413    0.555     C
C       0.7469   0.1359   0.3737     C
H       0.7483   0.3209    0.885     H
C        0.753   0.3376   0.0342     C
H       0.7548    0.957   0.2971     H
C       0.7561   0.6811   0.8064     C
C       0.7569   0.2961     0.72     C
H       0.7621   0.5293    0.149     H
C        0.764   0.2158   0.3269     C
C       0.7691   0.0803   0.6501     C
C       0.7723   0.3587   0.9656     C
C      0.77798  0.83458   0.2648     C
C      0.78094  0.77474    0.789     C
H       0.7824   0.1182   0.4067     H
C       0.7842    0.236   0.6731     C
H       0.7863   0.6807   0.4103     H
O        0.787    0.364   0.1332     O
H        0.791   0.4074   0.7487     H
C       0.7936   0.6806   0.2292     C
H       0.7943   0.3999   0.2811     H
C        0.795   0.6832   0.4526     C
C       0.7955   0.5685   0.1632     C
C       0.8033   0.3853   0.0732     C
C      0.80845  0.82285    0.048     C
O       0.8103   0.5201   0.8062     O
C       0.8116   0.3678   0.7185     C
H       0.8137   0.4055   0.9412     H
C       0.8209   0.6905   0.5791     C
C       0.8228   0.6028   0.7817     C
H       0.8295   0.6929   0.6214     H
H       0.8299   0.8693   0.0637     H
H       0.8347   0.0715   0.6403     H
H        0.835   0.8498   0.2341     H
H       0.8385   0.7915   0.7596     H
C       0.8406      0.7   0.9851     C
C       0.8412   0.2734   0.3254     C
C       0.8412    0.368   0.3027     C
C       0.8641   0.2531   0.6263     C
O       0.8641   0.4399   0.0372     O
C       0.8707   0.6323   0.4767     C
C      0.87241  0.76961   0.0085     C
H        0.878    0.589   0.9362     H
H       0.8818   0.2176   0.5933     H
C       0.8837   0.6359   0.5399     C
N       0.8871   0.5689     0.14     N
C        0.891   0.6784   0.2068     C
O       0.8955   0.6359   0.7348     O
C        0.898   0.3814   0.6718     C
H       0.9072   0.4826   0.2946     H
C       0.9101   0.4175   0.3113     C
C       0.9118   0.6394   0.9427     C
C       0.9197   0.2309   0.3499     C
N       0.9203   0.3221   0.6261     N
H       0.9274   0.7142   0.2217     H
O       0.9279   0.5967   0.3655     O
H       0.9285   0.1653   0.3597     H
C       0.9318   0.6238   0.1633     C
C       0.9326   0.5726    0.426     C
H       0.9344    0.602    0.556     H
H       0.9366   0.7804   0.9977     H
H       0.9377   0.7627   0.8645     H
H       0.9466    0.383   0.8367     H
H       0.9516     0.67   0.8355     H
Zn     0.95544  0.50036  0.06536    Zn
C       0.9604   0.6968   0.8718     C
N       0.9659   0.4383   0.6641     N
N        0.978   0.3824   0.3402     N
C       0.9844    0.285   0.3597     C
Zn     0.98882  0.53686  0.71031    Zn
N       0.9895   0.5947   0.9769     N
O       0.9916   0.5234    0.449     O
H       0.9972   0.6246    0.148     H
H       0.9986    0.385   0.5341     H
