data_I
_chemical_name_common  '/Users/gianmarcoterrones/Research/MOFs/MOF_structures/water_stability_work_extra_structs/cleaned_from_CCDC/AVIPEB'
_cell_length_a  7.27630
_cell_length_b  7.81669
_cell_length_c  7.81669
_cell_angle_alpha 101.07265
_cell_angle_beta  100.39802
_cell_angle_gamma 100.39802
_space_group_name_H-M_alt      'P 1'


loop_
_space_group_symop_operation_xyz
  'x, y, z' 

loop_
_atom_site_label
_atom_site_fract_x
_atom_site_fract_y
_atom_site_fract_z
_atom_site_type_symbol
O      0.03977   0.3767    0.714     O
H        0.097   0.3866   0.8124     H
H        0.102   0.4587   0.6833     H
O      0.21191  0.43361  0.06971     O
H       0.2142   0.0545   0.3239     H
C      0.23205  0.01631  0.20633     C
C      0.23299  0.32917  0.17249     C
C      0.23824   0.1387  0.09756     C
O      0.24871  0.66061  0.61827     O
C         0.25  0.07925  0.92075     C
H         0.25    0.158    0.842     H
Mg        0.25  0.65697  0.34303    Mg
N         0.25  0.84678  0.15322     N
O      0.25129  0.38173  0.33939     O
C      0.26176  0.90244   0.8613     C
C      0.26701  0.82751  0.67083     C
C      0.26795  0.79367  0.98369     C
H       0.2858   0.6761   0.9455     H
O      0.28809  0.93029  0.56639     O
H        0.398   0.3167   0.5413     H
H        0.403   0.1876   0.6134     H
O      0.46023    0.286   0.6233     O
O      0.53977    0.714   0.3767     O
H        0.597   0.8124   0.3866     H
H        0.602   0.6833   0.4587     H
O      0.71191  0.06971  0.43361     O
H       0.7142   0.3239   0.0545     H
C      0.73205  0.20633  0.01631     C
C      0.73299  0.17249  0.32917     C
C      0.73824  0.09756   0.1387     C
O      0.74871  0.61827  0.66061     O
N         0.75  0.15322  0.84678     N
Mg        0.75  0.34303  0.65697    Mg
H         0.75    0.842    0.158     H
C         0.75  0.92075  0.07925     C
O      0.75129  0.33939  0.38173     O
C      0.76176   0.8613  0.90244     C
C      0.76701  0.67083  0.82751     C
C      0.76795  0.98369  0.79367     C
H       0.7858   0.9455   0.6761     H
O      0.78809  0.56639  0.93029     O
H        0.898   0.5413   0.3167     H
H        0.903   0.6134   0.1876     H
O      0.96023   0.6233    0.286     O
