data_I
_chemical_name_common  '/Users/gianmarcoterrones/Research/MOFs/MOF_structures/water_stability_work_extra_structs/cleaned_from_CCDC/AVUHUV'
_cell_length_a  9.52750
_cell_length_b 14.86100
_cell_length_c 25.04800
_cell_angle_alpha 90.00000
_cell_angle_beta  96.92000
_cell_angle_gamma 90.00000
_space_group_name_H-M_alt      'P 1'


loop_
_space_group_symop_operation_xyz
  'x, y, z' 

loop_
_atom_site_label
_atom_site_fract_x
_atom_site_fract_y
_atom_site_fract_z
_atom_site_type_symbol
Ni         0.0      0.0      0.0    Ni
Ni         0.0      0.5      0.5    Ni
C       0.0011   0.0055    0.612     C
C       0.0011   0.4945    0.112     C
C       0.0011   0.5947  0.12006     C
C       0.0011   0.9053  0.62006     C
C       0.0023   0.2203    0.319     C
C       0.0023   0.2797    0.819     C
C       0.0036    0.243  0.76368     C
C       0.0036    0.257  0.26368     C
Ni     0.00377   0.6755  0.82731    Ni
Ni     0.00377   0.8245  0.32731    Ni
C       0.0056    0.629  0.17198     C
C       0.0056    0.871  0.67198     C
C       0.0081   0.1543   0.4232     C
C       0.0081   0.3457   0.9232     C
O       0.0083   0.1057   0.9491     O
O       0.0083   0.3943   0.4491     O
C       0.0098   0.2205   0.8626     C
C       0.0098   0.2795   0.3626     C
C       0.0104   0.2477  0.41449     C
C       0.0104   0.2523  0.91449     C
H       0.0129    0.132   0.4581     H
H       0.0129    0.368   0.9581     H
H       0.0139   0.5896   0.2011     H
H       0.0139   0.9104   0.7011     H
H       0.0145   0.1588   0.8567     H
H       0.0145   0.3412   0.3567     H
C       0.0175   0.1879   0.9615     C
C       0.0175   0.3121   0.4615     C
O       0.0374   0.2185  0.00828     O
O       0.0374   0.2815  0.50828     O
O       0.0387   0.7084  0.27719     O
O       0.0387   0.7916  0.77719     O
H        0.041    0.746   0.9204     H
H        0.041    0.754   0.4204     H
O       0.0468   0.1643  0.75666     O
O       0.0468   0.3357  0.25666     O
O       0.0537   0.0505  0.65228     O
O       0.0537   0.4495  0.15228     O
O       0.0552   0.5367  0.93171     O
O       0.0552   0.9633  0.43171     O
O       0.0847   0.7048  0.90592     O
O       0.0847   0.7952  0.40592     O
H        0.089   0.6582    0.926     H
H        0.089   0.8418    0.426     H
H        0.091   0.1193    0.052     H
H        0.091   0.3807    0.552     H
O       0.1071   0.0686  0.06674     O
O       0.1071   0.4314  0.56674     O
H       0.1808    0.587   0.7394     H
H       0.1808    0.913   0.2394     H
H        0.186    0.048    0.061     H
H        0.186    0.452    0.561     H
N       0.1947   0.5453  0.47987     N
N       0.1947   0.9547  0.97987     N
N       0.1959   0.2233   0.6629     N
N       0.1959   0.2767   0.1629     N
H       0.1982   0.5336   0.4005     H
H       0.1982   0.9664   0.9005     H
N       0.2025   0.6228   0.8177     N
N       0.2025   0.8772   0.3177     N
H       0.2201   0.1777    0.589     H
H       0.2201   0.3223    0.089     H
C       0.2358   0.5818   0.7726     C
C       0.2358   0.9182   0.2726     C
C       0.2455   0.5539   0.4329     C
C       0.2455   0.9461   0.9329     C
C       0.2626    0.208   0.6192     C
C       0.2626    0.292   0.1192     C
H       0.2777   0.5456   0.2818     H
H       0.2777   0.9544   0.7818     H
H        0.278   0.2182   0.4893     H
H        0.278   0.2818   0.9893     H
H        0.279   0.2144   0.2294     H
H        0.279   0.2856   0.7294     H
H       0.2838   0.6187   0.1629     H
H       0.2838   0.8813   0.6629     H
H       0.2858   0.0639    0.494     H
H       0.2858   0.4361    0.994     H
H       0.2897   0.1073   0.7941     H
H       0.2897   0.3927   0.2941     H
H       0.2914   0.5836   0.5504     H
H       0.2914   0.9164   0.0504     H
C       0.2917   0.2344   0.1951     C
C       0.2917   0.2656   0.6951     C
H       0.2947   0.5736   0.9998     H
C       0.2947   0.5803   0.5135     C
C       0.2947   0.9197   0.0135     C
H       0.2947   0.9264   0.4998     H
H       0.2952   0.7276   0.6726     H
H       0.2952   0.7724   0.1726     H
H       0.2962   0.2347   0.8495     H
H       0.2962   0.2653   0.3495     H
H       0.3036   0.7274   0.0056     H
H       0.3036   0.7726   0.5056     H
C       0.3093   0.5996   0.8535     C
C       0.3093   0.9004   0.3535     C
H       0.3096   0.5845   0.6393     H
H       0.3096   0.9155   0.1393     H
H       0.3104    0.114   0.3608     H
H       0.3104    0.386   0.8608     H
H       0.3195   0.6174   0.8893     H
H       0.3195   0.8826   0.3893     H
H        0.325   0.0686   0.1471     H
H        0.325   0.4314   0.6471     H
N        0.351   0.5346   0.7796     N
N        0.351   0.9654   0.2796     N
C       0.3607   0.5201   0.2985     C
C       0.3607   0.9799   0.7985     C
C       0.3652   0.1894   0.4916     C
C       0.3652   0.3106   0.9916     C
C       0.3683   0.0722   0.8057     C
C       0.3683   0.4278   0.3057     C
C       0.3689    0.648   0.1602     C
C       0.3689    0.852   0.6602     C
C       0.3697   0.0959   0.4944     C
C       0.3697   0.4041   0.9944     C
N       0.3697   0.5942    0.437     N
N       0.3697   0.9058    0.937     N
C       0.3759   0.7409   0.1663     C
C       0.3759   0.7591   0.6663     C
C       0.3819   0.2366    0.347     C
C       0.3819   0.2634    0.847     C
C       0.3822   0.6021   0.0021     C
C       0.3822   0.8979   0.5021     C
H       0.3846   0.6959   0.3274     H
H       0.3846   0.8041   0.8274     H
C        0.387    0.695   0.0052     C
C        0.387    0.805   0.5052     C
C       0.3904   0.1455   0.3536     C
C       0.3904   0.3545   0.8536     C
N       0.3921   0.2391   0.6227     N
N       0.3921   0.2609   0.1227     N
H       0.3924   0.0237   0.6606     H
H       0.3924   0.4763   0.1606     H
H       0.3936     0.14   0.0077     H
H       0.3936     0.36   0.5077     H
C       0.3942   0.5587   0.6542     C
C       0.3942   0.9413   0.1542     C
N        0.399   0.5483    0.832     N
N        0.399   0.9517    0.332     N
N       0.4008   0.6103  0.48961     N
N       0.4008   0.8897  0.98961     N
C       0.4027   0.0336   0.1599     C
C       0.4027   0.4664   0.6599     C
N       0.4094   0.2238   0.1727     N
N       0.4094   0.2762   0.6727     N
H       0.4349   0.6872   0.2703     H
H       0.4349   0.8128   0.7703     H
H       0.4476   0.1421    0.951     H
H       0.4476   0.3579    0.451     H
H       0.4562   0.0173   0.6058     H
H       0.4562   0.4827   0.1058     H
C       0.4607   0.6745   0.3082     C
C       0.4607   0.8255   0.8082     C
C       0.4713   0.1588   0.9885     C
C       0.4713   0.3412   0.4885     C
C       0.4728   0.0025   0.6437     C
C       0.4728   0.4975   0.1437     C
C       0.4757   0.5757   0.3158     C
C       0.4757   0.9243   0.8158     C
C       0.4852   0.5982   0.1501     C
C       0.4852   0.9018   0.6501     C
C       0.4856   0.2403   0.4923     C
C       0.4856   0.2597   0.9923     C
C       0.4903   0.1137   0.8299     C
C       0.4903   0.3863   0.3299     C
C       0.4969   0.0494   0.4978     C
C       0.4969   0.4506   0.9978     C
C       0.4993   0.2123   0.8368     C
C       0.4993   0.2877   0.3368     C
C       0.5007   0.7123   0.6632     C
C       0.5007   0.7877   0.1632     C
C       0.5031   0.5494   0.0022     C
C       0.5031   0.9506   0.5022     C
C       0.5097   0.6137   0.6701     C
C       0.5097   0.8863   0.1701     C
C       0.5144   0.7403   0.0077     C
C       0.5144   0.7597   0.5077     C
C       0.5148   0.0982   0.3499     C
C       0.5148   0.4018   0.8499     C
C       0.5243   0.0757   0.1842     C
C       0.5243   0.4243   0.6842     C
C       0.5272   0.5025   0.8563     C
C       0.5272   0.9975   0.3563     C
C       0.5287   0.6588   0.5115     C
C       0.5287   0.8412   0.0115     C
C       0.5393   0.1745   0.1918     C
C       0.5393   0.3255   0.6918     C
H       0.5438   0.5173   0.8942     H
H       0.5438   0.9827   0.3942     H
H       0.5524   0.6421    0.549     H
H       0.5524   0.8579    0.049     H
H       0.5651   0.1872   0.2297     H
H       0.5651   0.3128   0.7297     H
N       0.5906   0.7238   0.3273     N
N       0.5906   0.7762   0.8273     N
C       0.5973   0.5336   0.3401     C
C       0.5973   0.9664   0.8401     C
N       0.5992   0.1103  0.01039     N
N       0.5992   0.3897  0.51039     N
N        0.601   0.0483    0.668     N
N        0.601   0.4517    0.168     N
C       0.6058   0.0587   0.8458     C
C       0.6058   0.4413   0.3458     C
H       0.6064     0.64   0.4923     H
H       0.6064     0.86   0.9923     H
H       0.6076   0.5237   0.8394     H
H       0.6076   0.9763   0.3394     H
N       0.6079   0.7391   0.8773     N
N       0.6079   0.7609   0.3773     N
C       0.6096   0.6455   0.1464     C
C       0.6096   0.8545   0.6464     C
C        0.613    0.195   0.4948     C
C        0.613    0.305   0.9948     C
H       0.6154   0.1959   0.1726     H
H       0.6154   0.3041   0.6726     H
C       0.6178   0.1021   0.4979     C
C       0.6178   0.3979   0.9979     C
C       0.6181   0.7366    0.153     C
C       0.6181   0.7634    0.653     C
C       0.6241   0.2409   0.3337     C
C       0.6241   0.2591   0.8337     C
N       0.6303   0.0942    0.063     N
N       0.6303   0.4058    0.563     N
C       0.6303   0.5959   0.0056     C
C       0.6303   0.9041   0.5056     C
C       0.6311    0.148   0.3398     C
C       0.6311    0.352   0.8398     C
C       0.6317   0.5722   0.6943     C
C       0.6317   0.9278   0.1943     C
C       0.6348   0.6894   0.0084     C
C       0.6348   0.8106   0.5084     C
C       0.6393   0.0201   0.2015     C
C       0.6393   0.4799   0.7015     C
N        0.649   0.0346   0.7204     N
N        0.649   0.4654   0.2204     N
H        0.675   0.5686   0.3529     H
H        0.675   0.9314   0.8529     H
H       0.6805   0.1174   0.6107     H
H       0.6805   0.3826   0.1107     H
H       0.6896    0.614   0.1392     H
H       0.6896    0.886   0.6392     H
H       0.6904   0.0845   0.8607     H
H       0.6904   0.4155   0.3607     H
C       0.6907   0.0996   0.6465     C
C       0.6907   0.4004   0.1465     C
H       0.6964   0.2274   0.4944     H
H       0.6964   0.2726   0.9944     H
H       0.7038   0.7347   0.6505     H
H       0.7038   0.7653   0.1505     H
H       0.7048   0.2276   0.8274     H
H       0.7048   0.2724   0.3274     H
H       0.7053   0.0736   0.5002     H
C       0.7053   0.0803   0.9865     C
C       0.7053   0.4197   0.4865     C
H       0.7053   0.4264   0.0002     H
C       0.7083   0.7344   0.3049     C
C       0.7083   0.7656   0.8049     C
H       0.7086   0.0836   0.9496     H
H       0.7086   0.4164   0.4496     H
H       0.7103   0.6073   0.7059     H
H       0.7103   0.8927   0.2059     H
H       0.7142   0.5639    0.006     H
H       0.7142   0.9361    0.506     H
H       0.7162   0.1187   0.3371     H
H       0.7162   0.3813   0.8371     H
H        0.721   0.7144   0.2706     H
H        0.721   0.7856   0.7706     H
H        0.722   0.7182   0.0107     H
H        0.722   0.7818   0.5107     H
H       0.7223   0.0456   0.2182     H
H       0.7223   0.4544   0.7182     H
C       0.7374    0.708   0.8808     C
C       0.7374    0.792   0.3808     C
C       0.7545   0.0539   0.0671     C
C       0.7545   0.4461   0.5671     C
C       0.7642   0.0818   0.7274     C
C       0.7642   0.4182   0.2274     C
H       0.7799   0.6777    0.911     H
H       0.7799   0.8223    0.411     H
N       0.7975   0.1228   0.6823     N
N       0.7975   0.3772   0.1823     N
H       0.8018   0.0336   0.0995     H
H       0.8018   0.4664   0.5995     H
N       0.8041   0.7233   0.8371     N
N       0.8041   0.7767   0.3371     N
N       0.8053   0.0453  0.02013     N
N       0.8053   0.4547  0.52013     N
H        0.814    0.548    0.439     H
H        0.814    0.952    0.939     H
H       0.8192    0.087   0.7606     H
H       0.8192    0.413   0.2606     H
O       0.8929   0.5686  0.43326     O
O       0.8929   0.9314  0.93326     O
H        0.909   0.6193    0.448     H
H        0.909   0.8807    0.948     H
H        0.911   0.1582    0.574     H
H        0.911   0.3418    0.074     H
O       0.9153   0.2048  0.59408     O
O       0.9153   0.2952  0.09408     O
O       0.9448   0.0367  0.56829     O
O       0.9448   0.4633  0.06829     O
O       0.9463   0.5505  0.84772     O
O       0.9463   0.9495  0.34772     O
O       0.9532   0.6643  0.74334     O
O       0.9532   0.8357  0.24334     O
H        0.959    0.246   0.5796     H
H        0.959    0.254   0.0796     H
O       0.9613   0.2084  0.22281     O
O       0.9613   0.2916  0.72281     O
O       0.9626   0.7185  0.49172     O
O       0.9626   0.7815  0.99172     O
C       0.9825   0.6879   0.5385     C
C       0.9825   0.8121   0.0385     C
H       0.9855   0.6588   0.6433     H
H       0.9855   0.8412   0.1433     H
H       0.9861   0.0896   0.2989     H
H       0.9861   0.4104   0.7989     H
H       0.9871    0.632   0.0419     H
H       0.9871    0.868   0.5419     H
C       0.9896   0.7477  0.08551     C
C       0.9896   0.7523  0.58551     C
C       0.9902   0.7205   0.6374     C
C       0.9902   0.7795   0.1374     C
O       0.9917   0.6057   0.5509     O
O       0.9917   0.8943   0.0509     O
C       0.9919   0.6543   0.0768     C
C       0.9919   0.8457   0.5768     C
C       0.9944    0.129  0.32802     C
C       0.9944    0.371  0.82802     C
Ni     0.99623   0.1755  0.67269    Ni
Ni     0.99623   0.3245  0.17269    Ni
C       0.9964    0.743  0.73632     C
C       0.9964    0.757  0.23632     C
C       0.9977   0.7203    0.181     C
C       0.9977   0.7797    0.681     C
C       0.9989   0.0947  0.37994     C
C       0.9989   0.4053  0.87994     C
C       0.9989   0.5055    0.888     C
C       0.9989   0.9945    0.388     C
