data_I
_chemical_name_common  '/Users/gianmarcoterrones/Research/MOFs/MOF_structures/water_stability_work_extra_structs/cleaned_from_CCDC/AVUHOP'
_cell_length_a  9.54350
_cell_length_b 14.91500
_cell_length_c 25.14200
_cell_angle_alpha 90.00000
_cell_angle_beta  97.06000
_cell_angle_gamma 90.00000
_space_group_name_H-M_alt      'P 1'


loop_
_space_group_symop_operation_xyz
  'x, y, z' 

loop_
_atom_site_label
_atom_site_fract_x
_atom_site_fract_y
_atom_site_fract_z
_atom_site_type_symbol
Co         0.0      0.0      0.0    Co
Co         0.0      0.5      0.5    Co
C       0.0009   0.0042  0.38856     C
C       0.0009   0.4958  0.88856     C
C       0.0013   0.5952  0.88082     C
C       0.0013   0.9048  0.38082     C
C       0.0027   0.7206  0.82014     C
C       0.0027   0.7794  0.32014     C
C        0.003   0.1297  0.67096     C
C        0.003   0.3703  0.17096     C
Co     0.00309  0.17556  0.32727    Co
Co     0.00309  0.32444  0.82727    Co
C        0.004   0.7429  0.26444     C
C        0.004   0.7571  0.76444     C
O       0.0067  0.60703  0.44947     O
O       0.0067  0.89297  0.94947     O
C       0.0095   0.6543  0.92393     C
C       0.0095   0.7213  0.36362     C
C       0.0095   0.7787  0.86362     C
C       0.0095   0.8457  0.42393     C
H       0.0099   0.0906      0.7     H
H       0.0099   0.4094      0.2     H
C        0.011   0.7467  0.91539     C
C        0.011   0.7533  0.41539     C
H        0.013   0.6598   0.3578     H
H        0.013   0.8402   0.8578     H
H       0.0139    0.632   0.9586     H
H       0.0139    0.868   0.4586     H
C       0.0187   0.6886  0.46206     C
C       0.0187   0.8114  0.96206     C
H        0.029   0.2352   0.4212     H
H        0.029   0.2648   0.9212     H
O       0.0337   0.2075  0.77564     O
O       0.0337   0.2925  0.27564     O
O       0.0373  0.71917   0.5084     O
O       0.0373  0.78083   0.0084     O
O       0.0427   0.6634  0.25847     O
O       0.0427   0.8366  0.75847     O
O       0.0527  0.54987  0.15121     O
O       0.0527  0.95013  0.65121     O
O       0.0576  0.03564  0.43206     O
O       0.0576  0.46436  0.93206     O
H       0.0711   0.5598   0.5945     H
H       0.0711   0.9402   0.0945     H
H        0.076    0.152     0.42     H
H        0.076    0.348     0.92     H
O       0.0857   0.2045  0.40726     O
O       0.0857   0.2955  0.90726     O
H        0.092   0.6224    0.556     H
H        0.092   0.8776    0.056     H
O         0.11   0.5698  0.56779     O
O         0.11   0.9302  0.06779     O
H       0.1899    0.091     0.24     H
H       0.1899    0.409     0.74     H
N          0.2   0.0451  0.97947     N
N          0.2   0.4549  0.47947     N
H       0.2002   0.0398   0.8999     H
H       0.2002   0.4602   0.3999     H
N       0.2005    0.724  0.16333     N
N       0.2005    0.776  0.66333     N
N       0.2083   0.1231  0.31822     N
N       0.2083   0.3769  0.81822     N
H        0.225   0.6805   0.0896     H
H        0.225   0.8195   0.5896     H
C       0.2438   0.0852   0.2733     C
C       0.2438   0.4148   0.7733     C
C        0.249   0.0577  0.93243     C
C        0.249   0.4423  0.43243     C
C       0.2673   0.7102  0.11994     C
C       0.2673   0.7898  0.61994     C
H        0.276   0.0417   0.7824     H
H        0.276   0.4583   0.2824     H
H       0.2764   0.7164    0.991     H
H       0.2764   0.7836    0.491     H
H       0.2826   0.1184   0.6625     H
H       0.2826   0.3816   0.1625     H
H       0.2838   0.7124   0.7296     H
H       0.2838   0.7876   0.2296     H
H        0.285   0.5627    0.994     H
H        0.285   0.9373    0.494     H
H       0.2885   0.6092   0.2948     H
H       0.2885   0.8908   0.7948     H
H       0.2955   0.0734   0.5002     H
H       0.2955   0.4266   0.0002     H
H       0.2959   0.2287   0.1731     H
H       0.2959   0.2713   0.6731     H
C       0.2966   0.7326  0.69557     C
C       0.2966   0.7674  0.19557     C
H       0.2972   0.0817   0.0504     H
H       0.2972   0.4183   0.5504     H
H       0.2979   0.7364   0.3505     H
H       0.2979   0.7636   0.8505     H
C       0.2996   0.0798  0.01353     C
C       0.2996   0.4202  0.51353     C
H       0.3072   0.2273   0.5059     H
H       0.3072   0.2727   0.0059     H
H       0.3116    0.085   0.1384     H
H       0.3116    0.415   0.6384     H
C       0.3124   0.0988   0.3545     C
C       0.3124   0.4012   0.8545     C
H       0.3128   0.6113    0.861     H
H       0.3128   0.8887    0.361     H
H       0.3197   0.1145   0.3905     H
H       0.3197   0.3855   0.8905     H
H       0.3266   0.5667   0.6484     H
H       0.3266   0.9333   0.1484     H
C       0.3594   0.0166   0.7989     C
C       0.3594   0.4834   0.2989     C
N       0.3619   0.0392  0.28065     N
N       0.3619   0.4608  0.78065     N
C       0.3633   0.6877  0.99239     C
C       0.3633   0.8123  0.49239     C
C       0.3671   0.5742   0.3062     C
C       0.3671   0.9258   0.8062     C
C       0.3676   0.1475   0.6598     C
C       0.3676   0.3525   0.1598     C
C       0.3685   0.5951  0.99467     C
C       0.3685   0.9049  0.49467     C
N       0.3731   0.0979   0.9365     N
N       0.3731   0.4021   0.4365     N
C       0.3757   0.2396   0.6662     C
C       0.3757   0.2604   0.1662     C
H       0.3818   0.1929   0.8267     H
H       0.3818   0.3071   0.3267     H
C        0.383   0.1015   0.5022     C
C        0.383   0.3985   0.0022     C
C       0.3832   0.7349   0.8478     C
C       0.3832   0.7651   0.3478     C
H       0.3872   0.5227   0.1583     H
H       0.3872   0.9773   0.6583     H
C       0.3899   0.1945   0.5054     C
C       0.3899   0.3055   0.0054     C
H       0.3905    0.642   0.5071     H
H       0.3905    0.858   0.0071     H
C       0.3921   0.6434   0.8541     C
C       0.3921   0.8566   0.3541     C
C        0.396   0.0598  0.15387     C
C        0.396   0.4402  0.65387     C
N       0.3963   0.7417  0.12352     N
N       0.3963   0.7583  0.62352     N
C       0.4045   0.5314  0.66032     C
C       0.4045   0.9686  0.16032     C
N       0.4047   0.1122  0.98918     N
N       0.4047   0.3878  0.48918     N
N       0.4054   0.0491  0.33314     N
N       0.4054   0.4509  0.83314     N
N       0.4138   0.7214  0.67314     N
N       0.4138   0.7786  0.17314     N
H       0.4329   0.1839     0.77     H
H       0.4329   0.3161     0.27     H
H       0.4462   0.6438    0.451     H
H       0.4462   0.8562    0.951     H
H       0.4535   0.5157   0.1043     H
H       0.4535   0.9843   0.6043     H
C       0.4583   0.1716   0.8079     C
C       0.4583   0.3284   0.3079     C
C       0.4688   0.5019   0.1423     C
C       0.4688   0.6605   0.4884     C
C       0.4688   0.8395   0.9884     C
C       0.4688   0.9981   0.6423     C
C       0.4731   0.0722  0.81571     C
C       0.4731   0.4278  0.31571     C
C       0.4826   0.0985  0.64952     C
C       0.4826   0.4015  0.14952     C
C       0.4838   0.7385  0.99219     C
C       0.4838   0.7615  0.49219     C
C       0.4897   0.6154  0.33008     C
C       0.4897   0.8846  0.83008     C
C       0.4965   0.5496  0.99794     C
C       0.4965   0.9504  0.49794     C
C       0.4995   0.7144  0.33739     C
C       0.4995   0.7856  0.83739     C
C       0.5005   0.2144  0.16261     C
C       0.5005   0.2856  0.66261     C
C       0.5035   0.0496  0.50206     C
C       0.5035   0.4504  0.00206     C
C       0.5103   0.1154  0.16992     C
C       0.5103   0.3846  0.66992     C
C       0.5162   0.2385  0.50781     C
C       0.5162   0.2615  0.00781     C
C       0.5174   0.5985  0.85048     C
C       0.5174   0.9015  0.35048     C
C       0.5269   0.5722  0.68429     C
C       0.5269   0.9278  0.18429     C
C       0.5312   0.0019   0.3577     C
C       0.5312   0.1605   0.0116     C
C       0.5312   0.3395   0.5116     C
C       0.5312   0.4981   0.8577     C
C       0.5417   0.6716   0.6921     C
C       0.5417   0.8284   0.1921     C
H       0.5465   0.0157   0.3957     H
H       0.5465   0.4843   0.8957     H
H       0.5538   0.1438    0.049     H
H       0.5538   0.3562    0.549     H
H       0.5671   0.6839     0.73     H
H       0.5671   0.8161     0.23     H
N       0.5862   0.2214  0.82686     N
N       0.5862   0.2786  0.32686     N
N       0.5946   0.5491  0.16686     N
N       0.5946   0.9509  0.66686     N
N       0.5953   0.6122  0.51082     N
N       0.5953   0.8878  0.01082     N
C       0.5955   0.0314  0.83968     C
C       0.5955   0.4686  0.33968     C
N       0.6037   0.2417  0.37648     N
N       0.6037   0.2583  0.87648     N
C        0.604   0.5598  0.34613     C
C        0.604   0.9402  0.84613     C
C       0.6079   0.1434   0.6459     C
C       0.6079   0.3566   0.1459     C
H       0.6095    0.142   0.9929     H
H       0.6095    0.358   0.4929     H
C       0.6101   0.6945   0.9946     C
C       0.6101   0.8055   0.4946     C
H       0.6128   0.0227   0.3417     H
H       0.6128   0.4773   0.8417     H
C       0.6168   0.2349   0.6522     C
C       0.6168   0.2651   0.1522     C
C        0.617   0.6015   0.9978     C
C        0.617   0.8985   0.4978     C
H       0.6182   0.6929   0.6733     H
H       0.6182   0.8071   0.1733     H
C       0.6243   0.7396   0.8338     C
C       0.6243   0.7604   0.3338     C
N       0.6269   0.5979   0.5635     N
N       0.6269   0.9021   0.0635     N
C       0.6315   0.0951  0.50533     C
C       0.6315   0.4049  0.00533     C
C       0.6324   0.6475   0.8402     C
C       0.6324   0.8525   0.3402     C
C       0.6329   0.0742   0.1938     C
C       0.6329   0.4258   0.6938     C
C       0.6367   0.1877  0.50761     C
C       0.6367   0.3123  0.00761     C
N       0.6381   0.5392  0.21935     N
N       0.6381   0.9608  0.71935     N
C       0.6406   0.5166   0.7011     C
C       0.6406   0.9834   0.2011     C
H       0.6734   0.0667   0.8516     H
H       0.6734   0.4333   0.3516     H
H       0.6803   0.6145   0.1095     H
H       0.6803   0.8855   0.6095     H
H       0.6872   0.1113    0.639     H
H       0.6872   0.3887    0.139     H
C       0.6876   0.5988   0.1455     C
C       0.6876   0.9012   0.6455     C
H       0.6884    0.585   0.3616     H
H       0.6884    0.915   0.8616     H
H       0.6928   0.7273   0.9941     H
H       0.6928   0.7727   0.4941     H
C       0.7004   0.5798  0.48647     C
C       0.7004   0.9202  0.98647     C
H       0.7021   0.2364   0.1495     H
H       0.7021   0.2636   0.6495     H
H       0.7028   0.5817   0.4496     H
H       0.7028   0.9183   0.9496     H
C       0.7034   0.2326  0.80443     C
C       0.7034   0.2674  0.30443     C
H       0.7041   0.7287   0.3269     H
H       0.7041   0.7713   0.8269     H
H       0.7045   0.5734   0.9998     H
H       0.7045   0.9266   0.4998     H
H       0.7115   0.1092   0.2052     H
H       0.7115   0.3908   0.7052     H
H        0.715   0.0627    0.506     H
H        0.715   0.4373    0.006     H
H       0.7162   0.2124   0.7704     H
H       0.7162   0.2876   0.2704     H
H       0.7174   0.6184   0.8375     H
H       0.7174   0.8816   0.3375     H
H       0.7236   0.2164    0.509     H
H       0.7236   0.2836    0.009     H
H        0.724   0.5417   0.7176     H
H        0.724   0.9583   0.2176     H
C       0.7327   0.2102  0.38006     C
C       0.7327   0.2898  0.88006     C
C        0.751   0.5577  0.56757     C
C        0.751   0.9423  0.06757     C
C       0.7562   0.5852   0.2267     C
C       0.7562   0.9148   0.7267     C
H        0.775   0.1805   0.4104     H
H        0.775   0.3195   0.9104     H
N       0.7917   0.6231  0.18178     N
N       0.7917   0.8769  0.68178     N
N       0.7995    0.224  0.33667     N
N       0.7995    0.276  0.83667     N
H       0.7998   0.5398   0.6001     H
H       0.7998   0.9602   0.1001     H
N          0.8   0.5451  0.52053     N
N          0.8   0.9549  0.02053     N
H       0.8101    0.591     0.26     H
H       0.8101    0.909     0.76     H
O         0.89   0.0698  0.93221     O
O         0.89   0.4302  0.43221     O
H        0.908   0.1224    0.944     H
H        0.908   0.3776    0.444     H
O       0.9143   0.7045  0.09274     O
O       0.9143   0.7955  0.59274     O
H        0.924    0.652     0.08     H
H        0.924    0.848     0.58     H
H       0.9289   0.0598   0.9055     H
H       0.9289   0.4402   0.4055     H
O       0.9424  0.53564  0.06794     O
O       0.9424  0.96436  0.56794     O
O       0.9473  0.04987  0.34879     O
O       0.9473  0.45013  0.84879     O
O       0.9573   0.1634  0.24153     O
O       0.9573   0.3366  0.74153     O
O       0.9627  0.21917   0.9916     O
O       0.9627  0.28083   0.4916     O
O       0.9663   0.7075  0.72436     O
O       0.9663   0.7925  0.22436     O
H        0.971   0.7352   0.0788     H
H        0.971   0.7648   0.5788     H
C       0.9813   0.1886  0.03794     C
C       0.9813   0.3114  0.53794     C
H       0.9861    0.132   0.5414     H
H       0.9861    0.368   0.0414     H
H        0.987   0.1598   0.1422     H
H        0.987   0.3402   0.6422     H
C        0.989   0.2467  0.58461     C
C        0.989   0.2533  0.08461     C
H       0.9901   0.5906      0.8     H
H       0.9901   0.9094      0.3     H
C       0.9905   0.1543  0.57607     C
C       0.9905   0.2213  0.13638     C
C       0.9905   0.2787  0.63638     C
C       0.9905   0.3457  0.07607     C
O       0.9933  0.10703  0.05053     O
O       0.9933  0.39297  0.55053     O
C        0.996   0.2429  0.23556     C
C        0.996   0.2571  0.73556     C
Co     0.99691  0.67556  0.17273    Co
Co     0.99691  0.82444  0.67273    Co
C        0.997   0.6297  0.82904     C
C        0.997   0.8703  0.32904     C
C       0.9973   0.2206  0.67986     C
C       0.9973   0.2794  0.17986     C
C       0.9987   0.0952  0.61918     C
C       0.9987   0.4048  0.11918     C
C       0.9991   0.5042  0.11144     C
C       0.9991   0.9958  0.61144     C
