data_I
_chemical_name_common  '/Users/gianmarcoterrones/Research/MOFs/MOF_structures/water_stability_work_extra_structs/cleaned_from_CCDC/AVUJOR'
_cell_length_a  7.97900
_cell_length_b  8.53100
_cell_length_c 17.79000
_cell_angle_alpha 90.00000
_cell_angle_beta  90.00000
_cell_angle_gamma 110.33400
_space_group_name_H-M_alt      'P 1'


loop_
_space_group_symop_operation_xyz
  'x, y, z' 

loop_
_atom_site_label
_atom_site_fract_x
_atom_site_fract_y
_atom_site_fract_z
_atom_site_type_symbol
C       0.0017   0.3947   0.7924     C
C       0.0019   0.4525   0.8713     C
O       0.0051    0.125  0.55841     O
H       0.0057   0.3216   0.3803     H
O        0.014   0.2305   0.3961     O
C       0.0441   0.7621   0.3261     C
O       0.0557   0.1997   0.0372     O
C       0.0717   0.3981 0.66666667     C
C       0.0754   0.0649   0.0228     C
O        0.086   0.6499   0.0809     O
H       0.0875   0.8456   0.6094     H
O       0.0922   0.6035   0.8833     O
C        0.094    0.893   0.3847     C
C       0.0991    0.489   0.7344     C
S      0.12508  0.80359  0.23567     S
H       0.1269   0.4427   0.6216     H
H       0.1394   0.4914   0.4507     H
H       0.1742   0.5997   0.7393     H
O       0.1898   0.4863   0.4922     O
O       0.2048   0.0213   0.0411     O
O       0.2324   0.0192   0.3761     O
H       0.2371   0.4164    0.002     H
Gd     0.24601  0.78384 0.977619    Gd
Gd     0.25399  0.21616 0.477619    Gd
H       0.2629   0.5836    0.502     H
O       0.2676   0.9808   0.8761     O
O       0.2952   0.9787   0.5411     O
O       0.3102   0.5137   0.9922     O
H       0.3258   0.4003   0.2393     H
H       0.3606   0.5086   0.9507     H
H       0.3731   0.5573   0.1216     H
S      0.37492  0.19641  0.73567     S
C       0.4009    0.511   0.2344     C
C        0.406    0.107   0.8847     C
O       0.4078   0.3965   0.3833     O
H       0.4125   0.1544   0.1094     H
O        0.414   0.3501   0.5809     O
C       0.4246   0.9351   0.5228     C
C       0.4283   0.6019 0.16666667     C
O       0.4443   0.8003   0.5372     O
C       0.4559   0.2379   0.8261     C
O        0.486   0.7695   0.8961     O
H       0.4943   0.6784   0.8803     H
O       0.4949    0.875  0.05841     O
C       0.4981   0.5475   0.3713     C
C       0.4983   0.6053   0.2924     C
C       0.5017   0.3947   0.7076     C
C       0.5019   0.4525   0.6287     C
O       0.5051    0.125  0.94159     O
H       0.5057   0.3216   0.1197     H
O        0.514   0.2305   0.1039     O
C       0.5441   0.7621   0.1739     C
O       0.5557   0.1997   0.4628     O
C       0.5717   0.3981 0.83333333     C
C       0.5754   0.0649   0.4772     C
O        0.586   0.6499   0.4191     O
H       0.5875   0.8456   0.8906     H
O       0.5922   0.6035   0.6167     O
C        0.594    0.893   0.1153     C
C       0.5991    0.489   0.7656     C
S      0.62508  0.80359  0.26433     S
H       0.6269   0.4427   0.8784     H
H       0.6394   0.4914   0.0493     H
H       0.6742   0.5997   0.7607     H
O       0.6898   0.4863   0.0078     O
O       0.7048   0.0213   0.4589     O
O       0.7324   0.0192   0.1239     O
H       0.7371   0.4164    0.498     H
Gd     0.74601  0.78384 0.522381    Gd
Gd     0.75399  0.21616 0.022381    Gd
H       0.7629   0.5836    0.998     H
O       0.7676   0.9808   0.6239     O
O       0.7952   0.9787   0.9589     O
O       0.8102   0.5137   0.5078     O
H       0.8258   0.4003   0.2607     H
H       0.8606   0.5086   0.5493     H
H       0.8731   0.5573   0.3784     H
S      0.87492  0.19641  0.76433     S
C       0.9009    0.511   0.2656     C
C        0.906    0.107   0.6153     C
O       0.9078   0.3965   0.1167     O
H       0.9125   0.1544   0.3906     H
O        0.914   0.3501   0.9191     O
C       0.9246   0.9351   0.9772     C
C       0.9283   0.6019 0.33333333     C
O       0.9443   0.8003   0.9628     O
C       0.9559   0.2379   0.6739     C
O        0.986   0.7695   0.6039     O
H       0.9943   0.6784   0.6197     H
O       0.9949    0.875  0.44159     O
C       0.9981   0.5475   0.1287     C
C       0.9983   0.6053   0.2076     C
