data_I
_chemical_name_common  '/Users/gianmarcoterrones/Research/MOFs/MOF_structures/water_stability_work_extra_structs/cleaned_from_CCDC/AVUKEI'
_cell_length_a  9.86040
_cell_length_b 10.82731
_cell_length_c 12.45490
_cell_angle_alpha 104.97425
_cell_angle_beta  90.00000
_cell_angle_gamma 117.08736
_space_group_name_H-M_alt      'P 1'


loop_
_space_group_symop_operation_xyz
  'x, y, z' 

loop_
_atom_site_label
_atom_site_fract_x
_atom_site_fract_y
_atom_site_fract_z
_atom_site_type_symbol
Dy      0.0202      1.0     0.75    Dy
O       0.0296   0.8132   0.2711     O
C       0.0326   0.9448   0.9914     C
C       0.0357    0.595   0.6632     C
O       0.0374   0.8972    0.072     O
O       0.0775   0.9162   0.8988     O
C       0.0878   0.0552   0.5086     C
S      0.09061  0.48116  0.70094     S
C       0.0933    0.659   0.3363     C
O       0.0995   0.8342   0.6683     O
C       0.1152    0.473   0.3779     C
C       0.1346   0.7986   0.3138     C
O       0.1402   0.1028    0.428     O
C       0.1496   0.7508   0.6828     C
O       0.1613   0.0838   0.6012     O
H        0.164   0.4278   0.4034     H
C       0.1908   0.6192   0.3781     C
H       0.1958   0.8258   0.0955     H
O       0.2164   0.1868   0.2289     O
H       0.2627   0.7466   0.0379     H
H       0.2638   0.4278   0.9034     H
O       0.2653   0.1658   0.8317     O
O       0.2738   0.8938   0.3395     O
O       0.2753    0.814   0.0964     O
O       0.2872   0.7868   0.7115     O
H       0.2947   0.6814   0.4037     H
H       0.3069    0.988   0.9225     H
H       0.3189    0.012   0.5775     H
C        0.336   0.2014   0.1862     C
C       0.3578    0.473   0.8779     C
H         0.37   0.1742   0.4045     H
O         0.38   0.1062   0.1605     O
H       0.3853   0.9258   0.5344     H
H       0.3867   0.6814   0.9037     H
S      0.39055  0.48116  0.20094     S
O       0.3966    0.997   0.9164     O
C       0.3988   0.2492   0.8172     C
O       0.3996    0.003   0.5836     O
C       0.4284   0.6192   0.8781     C
C       0.4343    0.341   0.1637     C
C       0.4407    0.405   0.8368     C
H       0.4595   0.0742   0.9656     H
O       0.4613    0.186   0.4036     O
Dy     0.48066      1.0     0.25    Dy
H       0.4839   0.7466   0.5379     H
O       0.4996   0.7868   0.2115     O
O       0.5004   0.2132   0.7885     O
H       0.5161   0.2534   0.4621     H
Dy     0.51934      1.0     0.75    Dy
O       0.5387    0.814   0.5964     O
H       0.5405   0.9258   0.0344     H
C       0.5593    0.595   0.1632     C
C       0.5657    0.659   0.8363     C
C       0.5716   0.3808   0.1219     C
O       0.6004    0.997   0.4164     O
C       0.6012   0.7508   0.1828     C
O       0.6034    0.003   0.0836     O
S      0.60945  0.51884  0.79906     S
H       0.6133   0.3186   0.0963     H
H       0.6147   0.0742   0.4656     H
O         0.62   0.8938   0.8395     O
H         0.63   0.8258   0.5955     H
C       0.6422    0.527   0.1221     C
C        0.664   0.7986   0.8138     C
H       0.6811    0.988   0.4225     H
H       0.6931    0.012   0.0775     H
H       0.7053   0.3186   0.5963     H
O       0.7128   0.2132   0.2885     O
O       0.7247    0.186   0.9036     O
O       0.7262   0.1062   0.6605     O
O       0.7347   0.8342   0.1683     O
H       0.7362   0.5722   0.0966     H
H       0.7373   0.2534   0.9621     H
O       0.7836   0.8132   0.7711     O
H       0.8042   0.1742   0.9045     H
C       0.8092   0.3808   0.6219     C
H        0.836   0.5722   0.5966     H
O       0.8387   0.9162   0.3988     O
C       0.8504   0.2492   0.3172     C
O       0.8598   0.8972    0.572     O
C       0.8654   0.2014   0.6862     C
C       0.8848    0.527   0.6221     C
O       0.9005   0.1658   0.3317     O
C       0.9067    0.341   0.6637     C
S      0.90939  0.51884  0.29906     S
C       0.9122   0.9448   0.4914     C
O       0.9225   0.0838   0.1012     O
O       0.9626   0.1028    0.928     O
C       0.9643    0.405   0.3368     C
C       0.9674   0.0552   0.0086     C
O       0.9704   0.1868   0.7289     O
Dy      0.9798      0.0     0.25    Dy
