data_I
_chemical_name_common  '/Users/gianmarcoterrones/Research/MOFs/MOF_structures/water_stability_work_extra_structs/cleaned_from_CCDC/AXOHEA'
_cell_length_a 10.71950
_cell_length_b 11.47777
_cell_length_c 11.76350
_cell_angle_alpha 108.42654
_cell_angle_beta  90.00000
_cell_angle_gamma 117.83765
_space_group_name_H-M_alt      'P 1'


loop_
_space_group_symop_operation_xyz
  'x, y, z' 

loop_
_atom_site_label
_atom_site_fract_x
_atom_site_fract_y
_atom_site_fract_z
_atom_site_type_symbol
Cd         0.0      0.0      0.0    Cd
C       0.0003   0.0006   0.5626     C
N       0.0016   0.0032   0.2001     N
H       0.0073   0.3862    0.625     H
H       0.0107   0.3956   0.8046     H
H       0.0133   0.3846   0.4315     H
O       0.0297   0.6842    0.797     O
H       0.0321   0.4218   0.0049     H
C       0.0846   0.3872   0.5885     C
C       0.0891    0.386   0.4715     C
C       0.0911   0.4024   0.8427     C
O        0.096   0.8534   0.9791     O
C       0.1038   0.9984   0.7414     C
C       0.1039   0.4156   0.9633     C
C       0.1054   0.0016   0.2586     C
C       0.1076   0.9982   0.6256     C
C       0.1094   0.0018   0.3744     C
C        0.116    0.775   0.8895     C
H       0.1796   0.9998   0.7813     H
H       0.1798   0.0002   0.2187     H
H       0.1834   0.9962   0.5882     H
H       0.1872   0.0038   0.4118     H
N       0.1934   0.3868   0.4122     N
C       0.1948   0.3896   0.6519     C
C       0.1995    0.399   0.7779     C
Cd     0.20835   0.4167   0.2217    Cd
N         0.21     0.42    0.024     N
O       0.2258   0.6442   0.3083     O
O       0.2426   0.1466   0.0209     O
H        0.244    0.724    0.683     H
C       0.2647   0.7892   0.8943     C
C       0.2969    0.386   0.4715     C
C       0.3026   0.3872   0.5885     C
C       0.3078   0.7516   0.7851     C
C       0.3113   0.4024   0.8427     C
C       0.3117   0.4156   0.9633     C
C        0.341    0.225   0.1105     C
O       0.3455   0.3158    0.203     O
C       0.3468   0.8274   0.0032     C
C       0.3528   0.7056   0.3394     C
H       0.3713   0.3846   0.4315     H
H       0.3789   0.3862    0.625     H
C       0.3794   0.9048    0.527     C
H       0.3849   0.3956   0.8046     H
H       0.3897   0.4218   0.0049     H
C        0.413    0.958    0.392     C
O       0.4184   0.6442   0.3083     O
C        0.428    0.856   0.4293     C
C       0.4438   0.7516   0.7851     C
C        0.455    0.042    0.608     C
C       0.4746   0.0952    0.473     C
C       0.4755   0.2108   0.1057     C
H         0.48    0.724    0.683     H
C       0.4806   0.8274   0.0032     C
C       0.5194   0.1726   0.9968     C
H         0.52    0.276    0.317     H
C       0.5245   0.7892   0.8943     C
C       0.5254   0.9048    0.527     C
C        0.545    0.958    0.392     C
C       0.5562   0.2484   0.2149     C
C        0.572    0.144   0.5707     C
O       0.5816   0.3558   0.6917     O
C        0.587    0.042    0.608     C
H       0.6103   0.5782   0.9951     H
H       0.6151   0.6044   0.1954     H
C       0.6206   0.0952    0.473     C
H       0.6211   0.6138    0.375     H
H       0.6287   0.6154   0.5685     H
C       0.6472   0.2944   0.6606     C
C       0.6532   0.1726   0.9968     C
O       0.6545   0.6842    0.797     O
C        0.659    0.775   0.8895     C
C       0.6883   0.5844   0.0367     C
C       0.6887   0.5976   0.1573     C
C       0.6922   0.2484   0.2149     C
C       0.6974   0.6128   0.4115     C
C       0.7031    0.614   0.5285     C
C       0.7353   0.2108   0.1057     C
H        0.756    0.276    0.317     H
O       0.7574   0.8534   0.9791     O
O       0.7742   0.3558   0.6917     O
N         0.79     0.58    0.976     N
Cd     0.79165   0.5833   0.7783    Cd
C       0.8005    0.601   0.2221     C
C       0.8052   0.6104   0.3481     C
N       0.8066   0.6132   0.5878     N
H       0.8128   0.9962   0.5882     H
H       0.8166   0.0038   0.4118     H
H       0.8202   0.9998   0.7813     H
H       0.8204   0.0002   0.2187     H
C        0.884    0.225   0.1105     C
C       0.8906   0.9982   0.6256     C
C       0.8924   0.0018   0.3744     C
C       0.8946   0.9984   0.7414     C
C       0.8961   0.5844   0.0367     C
C       0.8962   0.0016   0.2586     C
O        0.904   0.1466   0.0209     O
C       0.9089   0.5976   0.1573     C
C       0.9109    0.614   0.5285     C
C       0.9154   0.6128   0.4115     C
H       0.9679   0.5782   0.9951     H
O       0.9703   0.3158    0.203     O
H       0.9867   0.6154   0.5685     H
H       0.9893   0.6044   0.1954     H
H       0.9927   0.6138    0.375     H
N       0.9984   0.9968   0.7999     N
C       0.9997   0.9994   0.4374     C
