data_I
_chemical_name_common  '/Users/gianmarcoterrones/Research/MOFs/MOF_structures/water_stability_work_extra_structs/cleaned_from_CCDC/BAFBOC'
_cell_length_a 12.37900
_cell_length_b 12.58800
_cell_length_c 17.79700
_cell_angle_alpha 101.87400
_cell_angle_beta  93.45500
_cell_angle_gamma 93.87300
_space_group_name_H-M_alt      'P 1'


loop_
_space_group_symop_operation_xyz
  'x, y, z' 

loop_
_atom_site_label
_atom_site_fract_x
_atom_site_fract_y
_atom_site_fract_z
_atom_site_type_symbol
C       0.0006   0.8366   0.8074     C
H       0.0007   0.4829   0.8925     H
C       0.0055   0.9392   0.2846     C
H        0.014   0.9975   0.9324     H
H        0.023   0.1647   0.6444     H
C       0.0271   0.0338   0.7855     C
C       0.0275   0.4533   0.8437     C
H        0.032   0.5645   0.1951     H
C       0.0389   0.0507    0.183     C
C       0.0424    0.357      0.2     C
C       0.0455   0.1485   0.6913     C
H        0.051   0.3397   0.6655     H
C       0.0559   0.0113   0.0969     C
C       0.0621   0.9917   0.4138     C
H       0.0628   0.3886    0.847     H
H       0.0651   0.8486   0.0944     H
C       0.0674   0.6298   0.8166     C
C       0.0744   0.2549   0.2042     C
O       0.0828   0.5461   0.4376     O
O       0.0832   0.3079   0.5257     O
O       0.0904   0.0048    0.329     O
H       0.0913   0.9542   0.4263     H
H       0.0935   0.2716   0.9606     H
H       0.0936   0.4166   0.2082     H
H       0.0966    0.274   0.4833     H
H       0.1006   0.0671     0.08     H
O       0.1031   0.5315   0.8239     O
C       0.1093   0.9046   0.0788     C
C       0.1109   0.8177   0.8193     C
H       0.1111   0.0596   0.2104     H
C       0.1142   0.1002   0.8281     C
H       0.1169   0.8846   0.0245     H
C       0.1284   0.3435   0.6595     C
C       0.1298   0.2112   0.7373     C
H       0.1386   0.0838   0.8745     H
C       0.1431   0.9662   0.3902     C
C       0.1464   0.7171   0.8235     C
C       0.1476   0.2834   0.5782     C
H       0.1537   0.4196   0.6656     H
H       0.1596   0.3857    0.981     H
C         0.16    0.311   0.9844     C
H       0.1626   0.8763   0.8246     H
H       0.1629   0.6708   0.9703     H
H       0.1644   0.7708   0.2196     H
C       0.1664   0.1877   0.8066     C
H       0.1679   0.3056   0.0375     H
O       0.1716   0.6273   0.3015     O
H       0.1736    0.899   0.3699     H
H       0.1797   0.9133   0.1061     H
O       0.1806   0.3014   0.7176     O
O        0.181   0.2361   0.2192     O
H       0.1999   0.0193   0.4158     H
C        0.204   0.8139   0.5406     C
O       0.2093   0.7561   0.4775     O
O       0.2095   0.4013    0.349     O
O       0.2165    0.219   0.5658     O
C       0.2357   0.7435   0.2224     C
H       0.2384    0.685   0.1777     H
C       0.2403   0.6717   0.9791     C
H       0.2445   0.3377   0.8523     H
C       0.2476   0.6965    0.294     C
H       0.2505    0.357   0.1806     H
C       0.2507   0.2638   0.9451     C
C       0.2555   0.2636   0.8585     C
C        0.257   0.9581   0.6518     C
H       0.2613   0.7011   0.0326     H
N       0.2613    0.899   0.5745     N
H       0.2618   0.5987   0.9654     H
C       0.2648   0.3206   0.2228     C
C       0.2657   0.7016   0.8431     C
O       0.2659   0.5891   0.5509     O
Tb     0.26712  0.58835  0.41622    Tb
H       0.2736   0.6231   0.8308     H
H        0.275   0.8155   0.9461     H
C       0.2758   0.4054    0.298     C
H       0.2935   0.0865   0.0972     H
C       0.2952   0.7415   0.9306     C
O       0.3147   0.8287   0.2177     O
O       0.3196   0.5913   0.6999     O
H       0.3207   0.9483   0.4852     H
C       0.3247    0.348   0.9938     C
O       0.3263   0.7237    0.342     O
H       0.3333   0.2883   0.2156     H
C       0.3339    0.522   0.5614     C
C        0.345   0.7545   0.7961     C
H        0.347   0.0696   0.0185     H
C       0.3494   0.9336    0.533     C
O       0.3498   0.4794   0.3067     O
H       0.3529   0.4437    0.651     H
H        0.357   0.0788   0.8315     H
C        0.361   0.0816   0.0733     C
C       0.3684    0.239    0.833     C
C       0.3698   0.5171   0.6437     C
C       0.3706   0.6954   0.7242     C
H        0.373   0.9203   0.0739     H
H       0.3732   0.7428   0.9405     H
O       0.3741   0.4638   0.5067     O
H       0.3776   0.0016   0.2051     H
H       0.3839   0.8975   0.8695     H
C       0.3867   0.1793   0.3966     C
H       0.3879   0.9985   0.5634     H
H       0.3981   0.8771   0.5228     H
C        0.401   0.8563   0.8227     C
H       0.4045   0.6426   0.2038     H
C       0.4058   0.1355   0.8257     C
H        0.406   0.1482   0.0915     H
O       0.4089    0.426   0.8353     O
C       0.4185   0.8039   0.2008     C
C       0.4185   0.9872   0.0937     C
O       0.4224   0.1145   0.3279     O
C       0.4442   0.3225   0.8247     C
C       0.4461   0.9961   0.1802     C
C       0.4468   0.7386   0.6821     C
H       0.4479   0.5328   0.6518     H
O       0.4519   0.6509   0.4558     O
C       0.4521   0.6982   0.1947     C
H       0.4536   0.5816   0.8512     H
H       0.4619   0.6993   0.6341     H
H       0.4629   0.4841   0.1113     H
H       0.4714   0.4928   0.2007     H
C       0.4764   0.1841   0.4171     C
C       0.4808   0.9005   0.7838     C
H       0.4853   0.9816   0.0679     H
C       0.4884   0.5148   0.8444     C
C       0.4894   0.8885   0.1895     C
C       0.4999     0.16   0.2886     C
C       0.5001     0.84   0.7114     C
C       0.5106   0.1115   0.8105     C
C       0.5116   0.4852   0.1556     C
H       0.5147   0.0184   0.9321     H
C       0.5192   0.0995   0.2162     C
C       0.5236   0.8159   0.5829     C
H       0.5286   0.5072   0.7993     H
H       0.5371   0.5159   0.8887     H
H       0.5381   0.3007   0.3659     H
H       0.5464   0.4184   0.1488     H
C       0.5479   0.3018   0.8053     C
O       0.5481   0.3491   0.5442     O
H       0.5521   0.4672   0.3482     H
C       0.5532   0.2614   0.3179     C
C       0.5539   0.0039   0.8198     C
C       0.5558   0.6775   0.1753     C
O       0.5776   0.8855   0.6721     O
C       0.5815   0.0128   0.9063     C
C       0.5815   0.1961   0.7992     C
O       0.5911    0.574   0.1647     O
H        0.594   0.8518   0.9085     H
C       0.5942   0.8645   0.1743     C
H       0.5955   0.3574   0.7962     H
C        0.599   0.1437   0.1773     C
H       0.6019   0.1229   0.4772     H
H       0.6121   0.0015   0.4366     H
C       0.6133   0.8207   0.6034     C
H       0.6161   0.1025   0.1305     H
H       0.6224   0.9984   0.7949     H
O       0.6259   0.5362   0.4933     O
H       0.6268   0.2572   0.0595     H
H        0.627   0.0797   0.9261     H
C       0.6294   0.3046   0.2758     C
C       0.6302   0.4829   0.3563     C
C       0.6316    0.761    0.167     C
C        0.639   0.9184   0.9267     C
H        0.643   0.9212   0.1685     H
H       0.6471   0.5563    0.349     H
O       0.6502   0.5206   0.6933     O
C       0.6506   0.0664    0.467     C
H        0.653   0.9304   0.9815     H
C        0.655   0.2455   0.2039     C
C       0.6661    0.478   0.4386     C
H       0.6667   0.7117   0.7844     H
O       0.6737   0.2763    0.658     O
C       0.6753    0.652   0.0062     C
H       0.6793   0.0517   0.5148     H
O       0.6804   0.4087   0.3001     O
O       0.6853   0.1713   0.7823     O
C       0.7048   0.2585   0.0694     C
H       0.7065   0.9135   0.9028     H
C       0.7242   0.5946    0.702     C
H        0.725   0.1845   0.0539     H
H       0.7264   0.3769   0.1692     H
Tb     0.73288  0.41165  0.58378    Tb
O       0.7341   0.4109   0.4491     O
C       0.7343   0.2984   0.1569     C
C       0.7352   0.6794   0.7772     C
H       0.7382   0.4013   0.0346     H
N       0.7387    0.101   0.4255     N
H       0.7387   0.2989   0.9674     H
C        0.743   0.0419   0.3482     C
C       0.7445   0.7364   0.1415     C
C       0.7493   0.7362   0.0549     C
H       0.7495    0.643   0.8194     H
C       0.7524   0.3035    0.706     C
H       0.7555   0.6623   0.1477     H
C       0.7597   0.3283   0.0209     C
H       0.7616    0.315   0.8223     H
C       0.7643   0.2565   0.7776     C
O       0.7835    0.781   0.4342     O
O       0.7905   0.5987    0.651     O
O       0.7907   0.2439   0.5225     O
C        0.796   0.1861   0.4594     C
H       0.8001   0.9807   0.5842     H
O        0.819   0.7639   0.7808     O
O       0.8194   0.6986   0.2824     O
H       0.8203   0.0867   0.8939     H
H       0.8264    0.101   0.6301     H
O       0.8284   0.3727   0.6985     O
H       0.8321   0.6944   0.9625     H
C       0.8336   0.8123   0.1934     C
H       0.8356   0.2292   0.7804     H
H       0.8371   0.3292   0.0297     H
H       0.8374   0.1237   0.1754     H
C         0.84    0.689   0.0156     C
H       0.8404   0.6143    0.019     H
H       0.8463   0.5804   0.3344     H
C       0.8524   0.7166   0.4218     C
C       0.8536   0.2829   0.1765     C
C       0.8569   0.0338   0.6098     C
H       0.8614   0.9162   0.1255     H
C       0.8702   0.7888   0.2627     C
C       0.8716   0.6565   0.3405     C
H       0.8831   0.1154   0.9755     H
C       0.8858   0.8998   0.1719     C
H       0.8889   0.9404   0.7896     H
C       0.8891   0.1823   0.1807     C
C       0.8907   0.0954   0.9212     C
O       0.8969   0.4685   0.1761     O
H       0.8994   0.9329     0.92     H
H       0.9034    0.726   0.5167     H
H       0.9064   0.5834   0.7918     H
H       0.9065   0.7284   0.0394     H
H       0.9087   0.0458   0.5737     H
O       0.9096   0.9952    0.671     O
O       0.9168   0.6921   0.4743     O
O       0.9172   0.4539   0.5624     O
C       0.9256   0.7451   0.7958     C
C       0.9326   0.3702   0.1834     C
H       0.9349   0.1514   0.9056     H
H       0.9372   0.6114    0.153     H
C       0.9379   0.0083   0.5862     C
C       0.9441   0.9887   0.9031     C
H        0.949   0.6603   0.3345     H
C       0.9545   0.8515   0.3087     C
C       0.9576    0.643      0.8     C
C       0.9611   0.9493    0.817     C
H        0.968   0.4355   0.8049     H
C       0.9725   0.5467   0.1563     C
C       0.9729   0.9662   0.2145     C
H        0.977   0.8353   0.3556     H
H        0.986   0.0025   0.0676     H
C       0.9945   0.0608   0.7154     C
H       0.9993   0.5171   0.1075     H
C       0.9994   0.1634   0.1926     C
