data_I
_chemical_name_common  '/Users/gianmarcoterrones/Research/MOFs/MOF_structures/water_stability_work_extra_structs/cleaned_from_CCDC/BELYUO'
_cell_length_a  7.57800
_cell_length_b 11.35400
_cell_length_c 20.35000
_cell_angle_alpha 80.63000
_cell_angle_beta  79.56000
_cell_angle_gamma 89.09000
_space_group_name_H-M_alt      'P 1'


loop_
_space_group_symop_operation_xyz
  'x, y, z' 

loop_
_atom_site_label
_atom_site_fract_x
_atom_site_fract_y
_atom_site_fract_z
_atom_site_type_symbol
H       0.0069    0.182   0.7697     H
O       0.0188   0.4384   0.6095     O
C       0.0203   0.7415    0.649     C
H       0.0275   0.8635   0.7094     H
O       0.0435   0.4053   0.1674     O
O       0.0437   0.7511   0.5866     O
H       0.0486   0.3912   0.9763     H
H         0.05   0.2399   0.6913     H
O       0.0533   0.6411   0.6852     O
C       0.0577   0.1628   0.3164     C
H       0.0737     0.35   0.9036     H
H       0.0845   0.0956   0.3498     H
O        0.098   0.4217   0.7457     O
C       0.1015   0.2161   0.7323     C
H        0.103    0.656    0.553     H
Mg      0.1114   0.5117  0.30152    Mg
C       0.1357     0.38    0.936     C
C       0.1358   0.4668   0.5599     C
H       0.1687   0.1915   0.2854     H
O        0.181   0.5776   0.5346     O
C       0.1833   0.3232   0.7501     C
Mg      0.1866   0.5888  0.76445    Mg
H       0.1942   0.1564    0.724     H
C       0.2008   0.4382    0.161     C
H        0.208   0.3814   0.4788     H
O       0.2099   0.5811   0.9372     O
H       0.2162   0.2979   0.5495     H
H       0.2175    0.746   0.3982     H
C       0.2243   0.4946   0.9044     C
H       0.2258   0.3224    0.949     H
H        0.238    0.708    0.888     H
C       0.2414   0.3782   0.5234     C
O       0.2591   0.7566   0.7746     O
O       0.2612     0.48   0.2072     O
H       0.2634   0.3939   0.0662     H
H       0.2696    0.851   0.0227     H
O        0.285   0.4058   0.3488     O
O       0.2908   0.6538   0.2769     O
O       0.3094     0.51   0.8429     O
C       0.3186    0.749   0.2989     C
C        0.323   0.4361   0.0947     C
C       0.3279   0.8151   0.8092     C
H        0.328    0.852    0.195     H
O       0.3328   0.3121   0.7665     O
C       0.3359   0.7382   0.3705     C
O       0.3361   0.7791   0.8721     O
O       0.3362    0.848   0.2629     O
O        0.337     0.87   0.1369     O
H       0.3415   0.9959   0.8037     H
H        0.352   0.5181   0.0718     H
H       0.3697   0.3967   0.5177     H
H       0.3853   0.6601   0.3852     H
C       0.3864    0.816   0.0276     C
C       0.3963   0.7854   0.1018     C
H        0.398   0.6947   0.5959     H
H       0.4005   0.9536   0.7317     H
H       0.4012   0.7434   0.0071     H
C       0.4078   0.9358   0.7799     C
H       0.4164   0.8014   0.3758     H
H        0.417   0.7753   0.6519     H
H       0.4196   0.2324   0.4093     H
H       0.4337   0.3949   0.1025     H
O       0.4423   0.5588   0.7138     O
C        0.446    0.383    0.336     C
O       0.4526   0.6924   0.1261     O
H       0.4663   0.0628   0.2149     H
C       0.4808    0.723   0.6219     C
H       0.4821   0.8736    0.005     H
Mg      0.4894   0.5788  0.21046    Mg
Mg      0.5106   0.4212  0.78954    Mg
H       0.5179   0.1264    0.995     H
C       0.5192    0.277   0.3781     C
H       0.5337   0.9372   0.7851     H
O       0.5474   0.3076   0.8739     O
C        0.554    0.617    0.664     C
O       0.5577   0.4412   0.2862     O
H       0.5663   0.6051   0.8975     H
H       0.5804   0.7676   0.5907     H
H        0.583   0.2247   0.3481     H
H       0.5836   0.1986   0.6242     H
C       0.5922   0.0642   0.2201     C
H       0.5988   0.2566   0.9929     H
H       0.5995   0.0464   0.2683     H
H        0.602   0.3053   0.4041     H
C       0.6037   0.2146   0.8982     C
C       0.6136    0.184   0.9724     C
H       0.6147   0.3399   0.6148     H
H       0.6303   0.6033   0.4823     H
H        0.648   0.4819   0.9282     H
H       0.6585   0.0041   0.1963     H
O        0.663     0.13   0.8631     O
O       0.6638    0.152   0.7371     O
O       0.6639   0.2209   0.1279     O
C       0.6641   0.2618   0.6295     C
O       0.6672   0.6879   0.2335     O
H        0.672    0.148    0.805     H
C       0.6721   0.1849   0.1908     C
C        0.677   0.5639   0.9053     C
C       0.6814    0.251   0.7011     C
O       0.6906     0.49   0.1571     O
O       0.7092   0.3462   0.7231     O
O        0.715   0.5942   0.6512     O
H       0.7304    0.149   0.9773     H
H       0.7366   0.6061   0.9338     H
O       0.7388     0.52   0.7928     O
O       0.7409   0.2434   0.2254     O
C       0.7586   0.6218   0.4766     C
H        0.762    0.292    0.112     H
H       0.7742   0.6776    0.051     H
C       0.7757   0.5054   0.0956     C
H       0.7825    0.254   0.6018     H
H       0.7838   0.7021   0.4505     H
O       0.7901   0.4189   0.0628     O
H        0.792   0.6186   0.5212     H
C       0.7992   0.5618    0.839     C
H       0.8058   0.8436    0.276     H
Mg      0.8134   0.4112  0.23555    Mg
C       0.8167   0.6768   0.2499     C
O        0.819   0.4224   0.4654     O
H       0.8313   0.8085   0.7146     H
C       0.8642   0.5332   0.4401     C
C       0.8643     0.62    0.064     C
Mg      0.8886   0.4883  0.69848    Mg
H        0.897    0.344    0.447     H
C       0.8985   0.7839   0.2677     C
O        0.902   0.5783   0.2543     O
H       0.9155   0.9044   0.6502     H
H       0.9263     0.65   0.0964     H
C       0.9423   0.8372   0.6836     C
O       0.9467   0.3589   0.3148     O
H         0.95   0.7601   0.3087     H
H       0.9514   0.6088   0.0237     H
O       0.9563   0.2489   0.4134     O
O       0.9565   0.5947   0.8326     O
H       0.9725   0.1365   0.2906     H
C       0.9797   0.2585    0.351     C
O       0.9812   0.5616   0.3905     O
H       0.9931    0.818   0.2303     H
