data_I
_chemical_name_common  '/Users/gianmarcoterrones/Downloads/Bio-MOF-12'
_cell_length_a 15.81887
_cell_length_b 15.81887
_cell_length_c 15.81887
_cell_angle_alpha 100.84538
_cell_angle_beta  113.94881
_cell_angle_gamma 113.94881
_space_group_name_H-M_alt      'P 1'


loop_
_space_group_symop_operation_xyz
  'x, y, z' 

loop_
_atom_site_label
_atom_site_fract_x
_atom_site_fract_y
_atom_site_fract_z
_atom_site_type_symbol
Co     0.00685 0.098019 0.029649    Co
N      0.00952  0.23182  0.05742     N
N      0.01293  0.64055   0.3042     N
H       0.0146   0.3943   0.7591     H
N      0.01901  0.65398  0.99857     N
H       0.0245   0.0032   0.2927     H
H       0.0256   0.3771   0.6693     H
O      0.03633  0.93737  0.11914     O
C      0.03945  0.74941  0.02118     C
C      0.05036   0.3939  0.10476     C
O      0.05528  0.08873  0.16595     O
C      0.05848  0.01511  0.18351     C
C      0.06825  0.32552  0.14027     C
Co     0.06837 0.591169 0.098019    Co
H       0.0725   0.8831   0.2708     H
H       0.0762   0.6145   0.7597     H
O      0.07722  0.46655  0.91127     O
H       0.0852   0.7994    0.088     H
C      0.08829  0.02078  0.28807     C
N       0.0962  0.49343  0.16403     N
H       0.1123   0.7292   0.8017     H
C      0.11566  0.72226   0.3614     C
C       0.1284    0.953   0.3178     C
H       0.1352   0.2409   0.2555     H
C       0.1352   0.6822   0.8106     C
C      0.13914   0.3614  0.24574     C
H       0.1449   0.0909   0.3374     H
H       0.1452   0.9617   0.3855     H
H       0.1551   0.6839   0.8772     H
N      0.15541  0.00143  0.02044     N
N      0.15572  0.77498   0.4608     N
C      0.16288  0.51909  0.26195     C
N      0.16365   0.3042  0.29127     N
C       0.1684  0.54337  0.98489     C
N       0.1706  0.16403  0.06783     N
N       0.1744   0.7223  0.23182     N
O      0.18177  0.59896  0.06263     O
C      0.18525  0.75727  0.32552     C
N      0.18582   0.4608  0.30508     N
H       0.1933   0.9712   0.3161     H
H       0.1981   0.5869    0.306     H
H       0.2078   0.3307   0.3563     H
H       0.2105   0.7073   0.7318     H
C      0.21086  0.10476   0.0544     C
H       0.2114    0.912   0.9972     H
H       0.2191    0.306   0.1079     H
C      0.22823  0.97882  0.01827     C
C      0.23271  0.71193  0.80022     C
C      0.24286  0.26195  0.09907     C
H       0.2465    0.554   0.9091     H
H       0.2535   0.6626   0.8075     H
C      0.25714  0.85621  0.51909     C
C      0.26729  0.56751  0.97922     C
C      0.27177  0.79004  0.25059     C
H       0.2809   0.8888   0.5869     H
H       0.2886   0.7858   0.2006     H
C      0.28914  0.84354   0.3939     C
H       0.2895   0.5213   0.9968     H
H       0.2922   0.1485   0.6229     H
H       0.3019   0.1079   0.8888     H
H       0.3067   0.1228   0.2779     H
N      0.31418  0.11926  0.77498     N
C      0.31475  0.14027  0.07202     C
O      0.31823  0.88086  0.91719     O
N       0.3256  0.05742   0.0479     N
N       0.3294  0.89723  0.49343     N
C       0.3316  0.81649  0.87497     C
N      0.33635  0.12762  0.64055     N
C      0.33712  0.09907  0.85621     C
N      0.34428  0.30508  0.11926     N
N      0.34459  0.86503  0.34602     N
H       0.3449   0.7221   0.0288     H
H       0.3548   0.2403   0.3165     H
H       0.3551   0.1925    0.446     H
C      0.36086   0.1066  0.72226     C
H       0.3648   0.1203   0.6057     H
C       0.3648   0.6754    0.047     C
C       0.3716   0.1894   0.3246     C
C      0.38434  0.24574   0.1066     C
H       0.3877   0.6894   0.1169     H
N       0.4038  0.06783  0.89723     N
C      0.41171  0.19978  0.43249     C
H       0.4148   0.0028   0.2142     H
O      0.42278  0.83405  0.88933     O
H       0.4238   0.6835   0.0383     H
H       0.4275   0.1983   0.3106     H
Co     0.43163 0.029649 0.022799    Co
C      0.43175  0.07202  0.75727     C
C      0.44152  0.12503  0.45663     C
O      0.44472  0.11067  0.53345     O
C      0.44964   0.0544  0.84354     C
C      0.46055  0.98173  0.20996     C
O      0.46367  0.08281  0.40104     O
H       0.4744   0.6437   0.8515     H
H       0.4755   0.2682   0.4787     H
N      0.48099  0.97956  0.13497     N
H       0.4854   0.7445   0.8797     H
N      0.48707  0.29127  0.12762     N
N      0.49048   0.0479   0.7223     N
Co     0.49315 0.022799 0.591169    Co
Co     0.50685 0.977201 0.408831    Co
N      0.50952   0.9521   0.2777     N
N      0.51293  0.70873  0.87238     N
H       0.5146   0.2555   0.1203     H
N      0.51901  0.02044  0.86503     N
H       0.5245   0.7318   0.5213     H
H       0.5256   0.3563   0.1485     H
O      0.53633  0.91719  0.59896     O
C      0.53945  0.01827  0.79004     C
C      0.55036   0.9456  0.15646     C
O      0.55528  0.88933  0.46655     O
C      0.55848  0.87497  0.54337     C
C      0.56825  0.92798  0.24273     C
Co     0.56837 0.970351 0.977201    Co
H       0.5725   0.8017   0.6894     H
H       0.5762   0.3165   0.9617     H
O      0.57722  0.16595  0.11067     O
H       0.5852   0.9972   0.7858     H
C      0.58829  0.80022  0.56751     C
N       0.5962  0.93217  0.10277     N
H       0.6123   0.3106   0.8831     H
C      0.61566  0.75426   0.8934     C
C       0.6284   0.8106   0.6754     C
C       0.6352   0.3246    0.953     C
H       0.6352   0.8797   0.3943     H
C      0.63914   0.8934  0.27774     C
H       0.6449   0.8075    0.554     H
H       0.6452   0.7597   0.6835     H
H       0.6551   0.2779   0.9712     H
N      0.65541  0.13497  0.65398     N
N      0.65572  0.69492  0.88074     N
C      0.66288  0.90093  0.14379     C
N      0.66365  0.87238  0.35945     N
C       0.6684  0.18351  0.12503     C
N       0.6706  0.10277  0.50657     N
N       0.6744  0.94258   0.9521     N
O      0.68177  0.11914  0.08281     O
C      0.68525  0.85973  0.92798     C
N      0.68582  0.88074  0.22502     N
H       0.6933   0.8772   0.7221     H
H       0.6981   0.8921   0.1112     H
H       0.7078   0.8515   0.3771     H
H       0.7105   0.4787   0.0032     H
C      0.71086  0.15646   0.6061     C
H       0.7114   0.2142   0.7994     H
H       0.7191   0.1112   0.4131     H
C      0.72823  0.20996  0.74941     C
C      0.73271  0.43249  0.02078     C
C      0.74286  0.14379  0.48091     C
H       0.7465   0.3374   0.1925     H
H       0.7535    0.446   0.0909     H
C      0.75714  0.73805  0.90093     C
C      0.76729  0.28807  0.19978     C
C      0.77177  0.02118  0.98173     C
H       0.7809    0.694   0.8921     H
H       0.7886    0.088   0.0028     H
C      0.78914  0.89524   0.9456     C
H       0.7895   0.2927   0.2682     H
H       0.7922   0.6693   0.6437     H
H       0.8019   0.4131    0.694     H
H       0.8067   0.0288   0.6839     H
N      0.81418   0.5392  0.69492     N
C      0.81475  0.24273  0.67448     C
O      0.81823  0.40104  0.93737     O
N       0.8256   0.2777  0.76818     N
N       0.8294  0.83597  0.93217     N
C       0.8316  0.45663  0.01511     C
N      0.83635   0.6958  0.70873     N
C      0.83712  0.48091  0.73805     C
N      0.84428  0.22502   0.5392     N
N      0.84459  0.99857  0.97956     N
H       0.8449   0.3161   0.1228     H
H       0.8548   0.0383   0.6145     H
H       0.8551   0.9091   0.6626     H
C      0.86086   0.6386  0.75426     C
C       0.8648   0.3178   0.1894     C
H       0.8648   0.7591   0.7445     H
C       0.8716    0.047   0.6822     C
C      0.88434  0.27774   0.6386     C
H       0.8877   0.2708   0.1983     H
N       0.9038  0.50657  0.83597     N
C      0.91171  0.97922  0.71193     C
H       0.9148   0.2006    0.912     H
O      0.92278  0.53345  0.08873     O
H       0.9238   0.3855   0.2403     H
H       0.9275   0.1169   0.7292     H
Co     0.93163 0.408831 0.901981    Co
C      0.93175  0.67448  0.85973     C
C      0.94152  0.98489  0.81649     C
O      0.94472  0.91127  0.83405     O
C      0.94964   0.6061  0.89524     C
C      0.96055  0.25059  0.97882     C
O      0.96367  0.06263  0.88086     O
H       0.9744   0.6229   0.3307     H
H       0.9755   0.9968   0.7073     H
N      0.98099  0.34602  0.00143     N
H       0.9854   0.6057   0.2409     H
N      0.98707  0.35945   0.6958     N
N      0.99048  0.76818  0.94258     N
Co     0.99315 0.901981 0.970351    Co
