data_I
_chemical_name_common  '/Users/gianmarcoterrones/Downloads/Bio-MOF-14'
_cell_length_a 15.85230
_cell_length_b 15.85230
_cell_length_c 22.34680
_cell_angle_alpha 90.00000
_cell_angle_beta  90.00000
_cell_angle_gamma 90.00000
_space_group_name_H-M_alt      'P 1'


loop_
_space_group_symop_operation_xyz
  'x, y, z' 

loop_
_atom_site_label
_atom_site_fract_x
_atom_site_fract_y
_atom_site_fract_z
_atom_site_type_symbol
H        0.005   0.1579   0.3068     H
H        0.005   0.6579   0.6932     H
H        0.006   0.4796   0.3378     H
H        0.006   0.9796   0.6622     H
O      0.01424  0.09294  0.91122     O
O      0.01424  0.59294  0.08882     O
Co    0.040015 0.016435 0.059463    Co
Co    0.040015 0.516435 0.940543    Co
H       0.0401   0.3525   0.3687     H
H       0.0401   0.8525   0.6313     H
H       0.0405   0.4069   0.8296     H
H       0.0405   0.9069   0.1704     H
H       0.0409   0.4631   0.2739     H
H       0.0409   0.9631   0.7261     H
C      0.04585  0.36287  0.32614     C
C      0.04585  0.86287  0.67394     C
H        0.052    0.365   0.7705     H
H        0.052    0.865   0.2295     H
C     0.052214  0.45381 0.316017     C
C     0.052214  0.95381 0.684017     C
N      0.06015  0.40754  0.79384     N
N      0.06015  0.90754  0.20624     N
C      0.06364  0.13034  0.94694     C
C      0.06364  0.63034  0.05314     C
H       0.0727    0.379   0.1552     H
H       0.0727    0.879   0.8448     H
O      0.07434  0.10754  0.99962     O
O      0.07434  0.60754  0.00042     O
N      0.07514  0.42294  0.07182     N
N      0.07514  0.92294  0.92822     N
H       0.0895   0.1244    0.675     H
H       0.0895   0.6244    0.325     H
H       0.0921    0.255   0.9432     H
H       0.0921    0.755   0.0568     H
N      0.09964  0.06884  0.13292     N
N      0.09964  0.56884  0.86702     N
H       0.1025   0.2099   0.8813     H
H       0.1025   0.7099   0.1187     H
C      0.10265  0.47354  0.77434     C
C      0.10265  0.97354  0.22574     C
C      0.10474  0.38314  0.12042     C
C      0.10474  0.88314  0.87962     C
C      0.11287  0.20425  0.92394     C
C      0.11287  0.70425  0.07614     C
H        0.115    0.198   0.4795     H
H        0.115    0.698   0.5205     H
C      0.11974  0.04664  0.19092     C
C      0.11974  0.31364  0.30314     C
C      0.11974  0.54664  0.80912     C
C      0.11974  0.81364  0.69694     C
H       0.1256   0.3395    0.575     H
H       0.1256   0.8395    0.425     H
C     0.128914 0.003013 0.669317     C
C     0.128914 0.503013 0.330717     C
H        0.129   0.1773   0.0948     H
H        0.129   0.6773   0.9052     H
N      0.13285  0.47254  0.71734     N
N      0.13285  0.97254  0.28274     N
C      0.13314  0.14534  0.12962     C
C      0.13314  0.64534  0.87042     C
H       0.1336   0.4379   0.5779     H
H       0.1336   0.9379   0.4221     H
H       0.1351   0.0021   0.6261     H
H       0.1351   0.5021   0.3739     H
C       0.1372   0.0932   0.6892     C
C       0.1372   0.5932   0.3112     C
C      0.13934  0.41374  0.03242     C
C      0.13934  0.91374  0.96762     C
H         0.14   0.0953   0.7316     H
H         0.14   0.5953   0.2684     H
N      0.14044  0.44404  0.97512     N
N      0.14044  0.94404  0.02492     N
O      0.14254  0.32434  0.25042     O
O      0.14254  0.82434  0.74962     O
H       0.1547     0.39   0.5184     H
H       0.1547     0.89   0.4816     H
H       0.1569   0.2095   0.4204     H
H       0.1569   0.7095   0.5796     H
O      0.15714  0.26424  0.33882     O
O      0.15714  0.76424  0.66122     O
C       0.1572   0.3872   0.5612     C
C       0.1572   0.8872   0.4392     C
N      0.15754  0.18995  0.45624     N
N      0.15754  0.68995  0.54384     N
C      0.16374  0.11074  0.21762     C
C      0.16374  0.61074  0.78242     C
N      0.17294  0.17494  0.17822     N
N      0.17294  0.67494  0.82182     N
C      0.17485  0.03884  0.30304     C
C      0.17485  0.53884  0.69704     C
H       0.1767   0.4725   0.3143     H
H       0.1767   0.9725   0.6857     H
N      0.18124  0.34964  0.11712     N
N      0.18124  0.84964  0.88302     N
H       0.1879   0.1164   0.6721     H
H       0.1879   0.6164   0.3279     H
H       0.1933   0.0351   0.3424     H
H       0.1933   0.5351   0.6576     H
N      0.19404  0.10964  0.27492     N
N      0.19404  0.60964  0.72512     N
C      0.20344  0.36974  0.05912     C
C      0.20344  0.86974  0.94092     C
C      0.20381 0.197814 0.934017     C
C      0.20381 0.697814 0.066017     C
C      0.21124  0.42485  0.94704     C
C      0.21124  0.92485  0.05304     C
H       0.2131   0.2091   0.9761     H
H       0.2131   0.7091   0.0239     H
H       0.2149   0.4433   0.9076     H
H       0.2149   0.9433   0.0924     H
H       0.2225   0.0733   0.9357     H
H       0.2225   0.5733   0.0643     H
N      0.22254  0.11725  0.53274     N
N      0.22254  0.61725  0.46734     N
C      0.22354  0.14745  0.47574     C
C      0.22354  0.64745  0.52434     C
H       0.2296    0.244   0.9122     H
H       0.2296    0.744   0.0878     H
Co    0.233575 0.290015 0.190543    Co
Co    0.233575 0.790015 0.809463    Co
C     0.247013 0.378914 0.580717     C
C     0.247013 0.878914 0.419317     C
H       0.2479   0.3851   0.6239     H
H       0.2479   0.8851   0.3761     H
H       0.2521   0.1149   0.8761     H
H       0.2521   0.6149   0.1239     H
C     0.253013 0.121114 0.919317     C
C     0.253013 0.621114 0.080717     C
Co    0.266435 0.209995 0.309463    Co
Co    0.266435 0.709995 0.690543    Co
H       0.2704    0.256   0.5878     H
H       0.2704    0.756   0.4122     H
C      0.27654  0.35265  0.02434     C
C      0.27654  0.85265  0.97574     C
H       0.2775   0.4267   0.5643     H
H       0.2775   0.9267   0.4357     H
N      0.27754  0.38285  0.96734     N
N      0.27754  0.88285  0.03274     N
H       0.2851   0.0567   0.5924     H
H       0.2851   0.5567   0.4076     H
H       0.2869   0.2909   0.5239     H
H       0.2869   0.7909   0.4761     H
C      0.28884  0.07525  0.55304     C
C      0.28884  0.57525  0.44704     C
C      0.29621 0.302214 0.566017     C
C      0.29621 0.802214 0.434017     C
C      0.29664  0.13034  0.44092     C
C      0.29664  0.63034  0.55912     C
N      0.30604  0.39044  0.22512     N
N      0.30604  0.89044  0.77492     N
H       0.3067   0.4649   0.1576     H
H       0.3067   0.9649   0.8424     H
H       0.3121   0.3836   0.8279     H
H       0.3121   0.8836   0.1721     H
N      0.31884  0.15044  0.38302     N
N      0.31884  0.65044  0.61702     N
H       0.3233   0.0275   0.1857     H
H       0.3233   0.5275   0.8143     H
C      0.32525  0.46124  0.19704     C
C      0.32525  0.96124  0.80304     C
N      0.32714  0.32514  0.32182     N
N      0.32714  0.82514  0.67822     N
C      0.33634  0.38934  0.28242     C
C      0.33634  0.88934  0.71762     C
N      0.34254  0.31015  0.04384     N
N      0.34254  0.81015  0.95624     N
O      0.34294  0.23584  0.16122     O
O      0.34294  0.73584  0.83882     O
H       0.3431   0.2905   0.0796     H
H       0.3431   0.7905   0.9204     H
C       0.3432   0.1132   0.9392     C
C       0.3432   0.6132   0.0612     C
H       0.3453     0.11   0.9816     H
H       0.3453     0.61   0.0184     H
O      0.35754  0.17574  0.24962     O
O      0.35754  0.67574  0.75042     O
N      0.35964  0.05604  0.52492     N
N      0.35964  0.55604  0.47512     N
H         0.36   0.4047   0.7684     H
H         0.36   0.9047   0.2316     H
C      0.36074  0.08634  0.46762     C
C      0.36074  0.58634  0.53242     C
C       0.3632   0.4072   0.8112     C
C       0.3632   0.9072   0.1892     C
H       0.3649   0.4979   0.8739     H
H       0.3649   0.9979   0.1261     H
H       0.3664   0.0621   0.9221     H
H       0.3664   0.5621   0.0779     H
C      0.36694  0.35474  0.37042     C
C      0.36694  0.85474  0.62962     C
N      0.36725  0.02754  0.78274     N
N      0.36725  0.52754  0.21734     N
H        0.371   0.3227   0.4052     H
H        0.371   0.8227   0.5948     H
C     0.371114 0.497013 0.830717     C
C     0.371114 0.997013 0.169317     C
H       0.3744   0.1605    0.925     H
H       0.3744   0.6605    0.075     H
C      0.38034  0.18644  0.19694     C
C      0.38034  0.45344  0.30912     C
C      0.38034  0.68644  0.80314     C
C      0.38034  0.95344  0.69092     C
H        0.385    0.302   0.0205     H
H        0.385    0.802   0.9795     H
C      0.38727  0.29585  0.57614     C
C      0.38727  0.79585  0.42394     C
C      0.39534  0.11694  0.37962     C
C      0.39534  0.61694  0.62042     C
C      0.39745  0.02654  0.72574     C
C      0.39745  0.52654  0.27434     C
H       0.3975   0.2901   0.6187     H
H       0.3975   0.7901   0.3813     H
N      0.40044  0.43124  0.36702     N
N      0.40044  0.93124  0.63302     N
H       0.4079    0.245   0.5568     H
H       0.4079    0.745   0.4432     H
H       0.4105   0.3756    0.825     H
H       0.4105   0.8756    0.175     H
N      0.42494  0.07714  0.42822     N
N      0.42494  0.57714  0.57182     N
O      0.42574  0.39254  0.50042     O
O      0.42574  0.89254  0.49962     O
H       0.4273    0.121   0.3448     H
H       0.4273    0.621   0.6552     H
C      0.43644  0.36974  0.55314     C
C      0.43644  0.86974  0.44694     C
N      0.43995  0.09254  0.70624     N
N      0.43995  0.59254  0.29384     N
C     0.447814  0.04621 0.184017     C
C     0.447814  0.54621 0.816017     C
H        0.448    0.135   0.7295     H
H        0.448    0.635   0.2705     H
C      0.45425  0.13727  0.17394     C
C      0.45425  0.63727  0.82614     C
H       0.4591   0.0369   0.2261     H
H       0.4591   0.5369   0.7739     H
H       0.4595   0.0931   0.6704     H
H       0.4595   0.5931   0.3296     H
H       0.4599   0.1475   0.1313     H
H       0.4599   0.6475   0.8687     H
Co    0.459995 0.483575 0.440543    Co
Co    0.459995 0.983575 0.559463    Co
O      0.48584  0.40714  0.58882     O
O      0.48584  0.90714  0.41122     O
H        0.494   0.0204   0.1622     H
H        0.494   0.5204   0.8378     H
H        0.495   0.3421   0.1932     H
H        0.495   0.8421   0.8068     H
H        0.505   0.1579   0.1932     H
H        0.505   0.6579   0.8068     H
H        0.506   0.4796   0.1622     H
H        0.506   0.9796   0.8378     H
O      0.51424  0.09294  0.58882     O
O      0.51424  0.59294  0.41122     O
Co    0.540015 0.016435 0.440543    Co
Co    0.540015 0.516435 0.559463    Co
H       0.5401   0.3525   0.1313     H
H       0.5401   0.8525   0.8687     H
H       0.5405   0.4069   0.6704     H
H       0.5405   0.9069   0.3296     H
H       0.5409   0.4631   0.2261     H
H       0.5409   0.9631   0.7739     H
C      0.54585  0.36287  0.17394     C
C      0.54585  0.86287  0.82614     C
H        0.552    0.365   0.7295     H
H        0.552    0.865   0.2705     H
C     0.552214  0.45381 0.184017     C
C     0.552214  0.95381 0.816017     C
N      0.56015  0.40754  0.70624     N
N      0.56015  0.90754  0.29384     N
C      0.56364  0.13034  0.55314     C
C      0.56364  0.63034  0.44694     C
H       0.5727    0.379   0.3448     H
H       0.5727    0.879   0.6552     H
O      0.57434  0.10754  0.50042     O
O      0.57434  0.60754  0.49962     O
N      0.57514  0.42294  0.42822     N
N      0.57514  0.92294  0.57182     N
H       0.5895   0.1244    0.825     H
H       0.5895   0.6244    0.175     H
H       0.5921    0.255   0.5568     H
H       0.5921    0.755   0.4432     H
N      0.59964  0.06884  0.36702     N
N      0.59964  0.56884  0.63302     N
H       0.6025   0.2099   0.6187     H
H       0.6025   0.7099   0.3813     H
C      0.60265  0.47354  0.72574     C
C      0.60265  0.97354  0.27434     C
C      0.60474  0.38314  0.37962     C
C      0.60474  0.88314  0.62042     C
C      0.61287  0.20425  0.57614     C
C      0.61287  0.70425  0.42394     C
H        0.615    0.198   0.0205     H
H        0.615    0.698   0.9795     H
C      0.61974  0.04664  0.30912     C
C      0.61974  0.31364  0.19694     C
C      0.61974  0.54664  0.69092     C
C      0.61974  0.81364  0.80314     C
H       0.6256   0.3395    0.925     H
H       0.6256   0.8395    0.075     H
C     0.628914 0.003013 0.830717     C
C     0.628914 0.503013 0.169317     C
H        0.629   0.1773   0.4052     H
H        0.629   0.6773   0.5948     H
N      0.63285  0.47254  0.78274     N
N      0.63285  0.97254  0.21734     N
C      0.63314  0.14534  0.37042     C
C      0.63314  0.64534  0.62962     C
H       0.6336   0.4379   0.9221     H
H       0.6336   0.9379   0.0779     H
H       0.6351   0.0021   0.8739     H
H       0.6351   0.5021   0.1261     H
C       0.6372   0.0932   0.8112     C
C       0.6372   0.5932   0.1892     C
C      0.63934  0.41374  0.46762     C
C      0.63934  0.91374  0.53242     C
H         0.64   0.0953   0.7684     H
H         0.64   0.5953   0.2316     H
N      0.64044  0.44404  0.52492     N
N      0.64044  0.94404  0.47512     N
O      0.64254  0.32434  0.24962     O
O      0.64254  0.82434  0.75042     O
H       0.6547     0.39   0.9816     H
H       0.6547     0.89   0.0184     H
H       0.6569   0.2095   0.0796     H
H       0.6569   0.7095   0.9204     H
O      0.65714  0.26424  0.16122     O
O      0.65714  0.76424  0.83882     O
C       0.6572   0.3872   0.9392     C
C       0.6572   0.8872   0.0612     C
N      0.65754  0.18995  0.04384     N
N      0.65754  0.68995  0.95624     N
C      0.66374  0.11074  0.28242     C
C      0.66374  0.61074  0.71762     C
N      0.67294  0.17494  0.32182     N
N      0.67294  0.67494  0.67822     N
C      0.67485  0.03884  0.19704     C
C      0.67485  0.53884  0.80304     C
H       0.6767   0.4725   0.1857     H
H       0.6767   0.9725   0.8143     H
N      0.68124  0.34964  0.38302     N
N      0.68124  0.84964  0.61702     N
H       0.6879   0.1164   0.8279     H
H       0.6879   0.6164   0.1721     H
H       0.6933   0.0351   0.1576     H
H       0.6933   0.5351   0.8424     H
N      0.69404  0.10964  0.22512     N
N      0.69404  0.60964  0.77492     N
C      0.70344  0.36974  0.44092     C
C      0.70344  0.86974  0.55912     C
C      0.70381 0.197814 0.566017     C
C      0.70381 0.697814 0.434017     C
C      0.71124  0.42485  0.55304     C
C      0.71124  0.92485  0.44704     C
H       0.7131   0.2091   0.5239     H
H       0.7131   0.7091   0.4761     H
H       0.7149   0.4433   0.5924     H
H       0.7149   0.9433   0.4076     H
H       0.7225   0.0733   0.5643     H
H       0.7225   0.5733   0.4357     H
N      0.72254  0.11725  0.96734     N
N      0.72254  0.61725  0.03274     N
C      0.72354  0.14745  0.02434     C
C      0.72354  0.64745  0.97574     C
H       0.7296    0.244   0.5878     H
H       0.7296    0.744   0.4122     H
Co    0.733575 0.290015 0.309463    Co
Co    0.733575 0.790015 0.690543    Co
C     0.747013 0.378914 0.919317     C
C     0.747013 0.878914 0.080717     C
H       0.7479   0.3851   0.8761     H
H       0.7479   0.8851   0.1239     H
H       0.7521   0.1149   0.6239     H
H       0.7521   0.6149   0.3761     H
C     0.753013 0.121114 0.580717     C
C     0.753013 0.621114 0.419317     C
Co    0.766435 0.209995 0.190543    Co
Co    0.766435 0.709995 0.809463    Co
H       0.7704    0.256   0.9122     H
H       0.7704    0.756   0.0878     H
C      0.77654  0.35265  0.47574     C
C      0.77654  0.85265  0.52434     C
H       0.7775   0.4267   0.9357     H
H       0.7775   0.9267   0.0643     H
N      0.77754  0.38285  0.53274     N
N      0.77754  0.88285  0.46734     N
H       0.7851   0.0567   0.9076     H
H       0.7851   0.5567   0.0924     H
H       0.7869   0.2909   0.9761     H
H       0.7869   0.7909   0.0239     H
C      0.78884  0.07525  0.94704     C
C      0.78884  0.57525  0.05304     C
C      0.79621 0.302214 0.934017     C
C      0.79621 0.802214 0.066017     C
C      0.79664  0.13034  0.05912     C
C      0.79664  0.63034  0.94092     C
N      0.80604  0.39044  0.27492     N
N      0.80604  0.89044  0.72512     N
H       0.8067   0.4649   0.3424     H
H       0.8067   0.9649   0.6576     H
H       0.8121   0.3836   0.6721     H
H       0.8121   0.8836   0.3279     H
N      0.81884  0.15044  0.11712     N
N      0.81884  0.65044  0.88302     N
H       0.8233   0.0275   0.3143     H
H       0.8233   0.5275   0.6857     H
C      0.82525  0.46124  0.30304     C
C      0.82525  0.96124  0.69704     C
N      0.82714  0.32514  0.17822     N
N      0.82714  0.82514  0.82182     N
C      0.83634  0.38934  0.21762     C
C      0.83634  0.88934  0.78242     C
N      0.84254  0.31015  0.45624     N
N      0.84254  0.81015  0.54384     N
O      0.84294  0.23584  0.33882     O
O      0.84294  0.73584  0.66122     O
H       0.8431   0.2905   0.4204     H
H       0.8431   0.7905   0.5796     H
C       0.8432   0.1132   0.5612     C
C       0.8432   0.6132   0.4392     C
H       0.8453     0.11   0.5184     H
H       0.8453     0.61   0.4816     H
O      0.85754  0.17574  0.25042     O
O      0.85754  0.67574  0.74962     O
N      0.85964  0.05604  0.97512     N
N      0.85964  0.55604  0.02492     N
H         0.86   0.4047   0.7316     H
H         0.86   0.9047   0.2684     H
C      0.86074  0.08634  0.03242     C
C      0.86074  0.58634  0.96762     C
C       0.8632   0.4072   0.6892     C
C       0.8632   0.9072   0.3112     C
H       0.8649   0.4979   0.6261     H
H       0.8649   0.9979   0.3739     H
H       0.8664   0.0621   0.5779     H
H       0.8664   0.5621   0.4221     H
C      0.86694  0.35474  0.12962     C
C      0.86694  0.85474  0.87042     C
N      0.86725  0.02754  0.71734     N
N      0.86725  0.52754  0.28274     N
H        0.871   0.3227   0.0948     H
H        0.871   0.8227   0.9052     H
C     0.871114 0.497013 0.669317     C
C     0.871114 0.997013 0.330717     C
H       0.8744   0.1605    0.575     H
H       0.8744   0.6605    0.425     H
C      0.88034  0.18644  0.30314     C
C      0.88034  0.45344  0.19092     C
C      0.88034  0.68644  0.69694     C
C      0.88034  0.95344  0.80912     C
H        0.885    0.302   0.4795     H
H        0.885    0.802   0.5205     H
C      0.88727  0.29585  0.92394     C
C      0.88727  0.79585  0.07614     C
C      0.89534  0.11694  0.12042     C
C      0.89534  0.61694  0.87962     C
C      0.89745  0.02654  0.77434     C
C      0.89745  0.52654  0.22574     C
H       0.8975   0.2901   0.8813     H
H       0.8975   0.7901   0.1187     H
N      0.90044  0.43124  0.13292     N
N      0.90044  0.93124  0.86702     N
H       0.9079    0.245   0.9432     H
H       0.9079    0.745   0.0568     H
H       0.9105   0.3756    0.675     H
H       0.9105   0.8756    0.325     H
N      0.92494  0.07714  0.07182     N
N      0.92494  0.57714  0.92822     N
O      0.92574  0.39254  0.99962     O
O      0.92574  0.89254  0.00042     O
H       0.9273    0.121   0.1552     H
H       0.9273    0.621   0.8448     H
C      0.93644  0.36974  0.94694     C
C      0.93644  0.86974  0.05314     C
N      0.93995  0.09254  0.79384     N
N      0.93995  0.59254  0.20624     N
C     0.947814  0.04621 0.316017     C
C     0.947814  0.54621 0.684017     C
H        0.948    0.135   0.7705     H
H        0.948    0.635   0.2295     H
C      0.95425  0.13727  0.32614     C
C      0.95425  0.63727  0.67394     C
H       0.9591   0.0369   0.2739     H
H       0.9591   0.5369   0.7261     H
H       0.9595   0.0931   0.8296     H
H       0.9595   0.5931   0.1704     H
H       0.9599   0.1475   0.3687     H
H       0.9599   0.6475   0.6313     H
Co    0.959995 0.483575 0.059463    Co
Co    0.959995 0.983575 0.940543    Co
O      0.98584  0.40714  0.91122     O
O      0.98584  0.90714  0.08882     O
H        0.994   0.0204   0.3378     H
H        0.994   0.5204   0.6622     H
H        0.995   0.3421   0.3068     H
H        0.995   0.8421   0.6932     H
