data_I
_chemical_name_common  '/Users/gianmarcoterrones/Downloads/Bio-MOF-13'
_cell_length_a 15.78691
_cell_length_b 15.78691
_cell_length_c 22.32830
_cell_angle_alpha 90.00000
_cell_angle_beta  90.00000
_cell_angle_gamma 90.00000
_space_group_name_H-M_alt      'P 1'


loop_
_space_group_symop_operation_xyz
  'x, y, z' 

loop_
_atom_site_label
_atom_site_fract_x
_atom_site_fract_y
_atom_site_fract_z
_atom_site_type_symbol
O     0.0148517 0.0924116 0.4121913     O
O     0.0148517 0.5924116 0.5878113     O
H       0.0204   0.4718   0.7972     H
H       0.0204   0.9718   0.2028     H
H       0.0285   0.8412   0.1351     H
H     0.031603 0.343155 0.871794     H
H       0.0323   0.4675   0.8657     H
H       0.0323   0.9675   0.1343     H
H       0.0354   0.4064 0.328416     H
H       0.0354   0.9064 0.671616     H
Co    0.040682 0.017023 0.55899617    Co
Co    0.040682 0.517023 0.44100417    Co
H       0.0414   0.3753   0.2642     H
H       0.0414   0.8753   0.7362     H
C      0.04544  0.36474  0.82654     C
C      0.04544  0.86474  0.17354     C
C     0.057815 0.450313 0.828113     C
C     0.057815 0.950313 0.171913     C
N      0.05894  0.40564  0.29432     N
N      0.05894  0.90564  0.70572     N
C      0.06512  0.12992 0.4467016     C
C      0.06512  0.62992 0.5533016     C
H       0.0712   0.3783   0.6549     H
H       0.0712   0.8783   0.3451     H
N     0.0750016 0.4216917 0.5705911     N
N     0.0750016 0.9216917 0.4294111     N
O      0.07642 0.1094118 0.4996712     O
O      0.07642 0.6094118 0.5003312     O
H       0.0912   0.2215   0.3851     H
H       0.0912   0.7215   0.6149     H
N     0.0994017 0.0687517 0.6334211     N
N     0.0994017 0.5687517 0.3665811     N
C      0.10184  0.47272  0.27432     C
C      0.10184  0.97272  0.72572     C
C      0.10362  0.38232 0.6202614     C
C      0.10362  0.88232 0.3797414     C
H       0.1056   0.5545   0.8207     H
H       0.1071   0.2516    0.451     H
H       0.1071   0.7516    0.549     H
C      0.11474  0.20464  0.42354     C
C      0.11474  0.70464  0.57654     C
C      0.11912  0.04502 0.6912813     C
C      0.11912  0.54502 0.3087213     C
C      0.12012  0.31512 0.8033016     C
C      0.12012  0.81512 0.1967016     C
C     0.122516 0.496214 0.823915     C
C     0.122516 0.996214 0.176115     C
H       0.1253   0.2094   0.9862     H
H       0.1253   0.7094   0.0142     H
H       0.1283   0.1788   0.5951     H
H       0.1283   0.6788   0.4049     H
N      0.13194  0.47012 0.2175717     N
N      0.13194  0.97012 0.7824317     N
C      0.13232  0.14642 0.6297414     C
C      0.13232  0.64642 0.3702614     C
C     0.1398518  0.41322 0.5315013     C
C     0.1398518  0.91322 0.4685013     C
O     0.1405918  0.32642 0.7503312     O
O     0.1405918  0.82642 0.2496712     O
N     0.1418617  0.44412 0.4747112     N
N     0.1418617  0.94412 0.5252912     N
H       0.1542   0.4803    0.789     H
H       0.1542   0.9803    0.211     H
N      0.15564  0.19114  0.95572     N
N      0.15564  0.69114  0.04432     N
H       0.1564   0.2154 0.921616     H
H       0.1564   0.7154 0.078416     H
H        0.157    0.989   0.1411     H
O     0.1575916 0.2648517 0.8378113     O
O     0.1575916 0.7648517 0.1621913     O
C      0.16322 0.1101518 0.7185013     C
C      0.16322 0.6101518 0.2815013     C
N     0.1716917 0.1750016 0.6794111     N
N     0.1716917 0.6750016 0.3205911     N
C      0.17554  0.03674  0.80352     C
C      0.17554  0.53674  0.19652     C
N     0.1812517 0.3494017 0.6165811     N
N     0.1812517 0.8494017 0.3834211     N
N      0.19412 0.1081417 0.7752912     N
N      0.19412 0.6081417 0.2247112     N
H       0.1949   0.0321   0.8427     H
H       0.1949   0.5321   0.1573     H
C     0.200313 0.192215 0.421913     C
C     0.200313 0.692215 0.578113     C
C      0.20502  0.36912 0.5587213     C
C      0.20502  0.86912 0.4412813     C
C      0.21334  0.42554  0.44652     C
C      0.21334  0.92554  0.55352     C
H       0.2175   0.2177   0.3843     H
H       0.2175   0.7177   0.6157     H
H       0.2179   0.4449   0.4073     H
H       0.2179   0.9449   0.5927     H
N      0.22012  0.11814 0.0324317     N
N      0.22012  0.61814 0.9675717     N
H       0.2218   0.2296   0.4528     H
H       0.2218   0.7296   0.5472     H
C      0.22272  0.14824  0.97572     C
C      0.22272  0.64824  0.02432     C
H       0.2303   0.0958    0.461     H
H       0.2303   0.5958    0.539     H
Co    0.232983 0.290682 0.69100417    Co
Co    0.232983 0.790682 0.30899617    Co
H     0.237955 0.588262 0.613588     H
H        0.239    0.093   0.3911     H
C     0.246214 0.127516 0.426115     C
C     0.246214 0.627516 0.573915     C
H        0.267   0.3581   0.1461     H
H        0.267   0.8581   0.8539     H
Co    0.267023 0.209322 0.80899617    Co
Co    0.267023 0.709322 0.19100417    Co
C      0.27732  0.35184  0.52432     C
C      0.27732  0.85184  0.47572     C
N      0.27992  0.38194 0.4675717     N
N      0.27992  0.88194 0.5324317     N
H       0.2821   0.0551   0.0927     H
H       0.2821   0.5551   0.9073     H
C      0.28674  0.07454  0.05352     C
C      0.28674  0.57454  0.94652     C
C      0.29502  0.13092 0.9412813     C
C      0.29502  0.63092 0.0587213     C
H       0.3045   0.1444   0.4293     H
H       0.3045   0.6444   0.5707     H
H       0.3051   0.4679   0.6573     H
H       0.3051   0.9679   0.3427     H
N      0.30592 0.3918617 0.7247112     N
N      0.30592 0.8918617 0.2752912     N
H       0.3182   0.3412    0.205     H
H       0.3182   0.8412    0.795     H
N     0.3187517 0.1506017 0.8834211     N
N     0.3187517 0.6506017 0.1165811     N
C     0.322714 0.354313  0.16321     C
C     0.322714 0.854313  0.83681     C
C      0.32454  0.46334  0.69652     C
C      0.32454  0.96334  0.30352     C
N     0.3283117 0.3250016 0.8205911     N
N     0.3283117 0.8250016 0.1794111     N
H       0.3327   0.2451   0.1447     H
H       0.3327   0.7451   0.8553     H
H       0.3336   0.2907   0.0533     H
H       0.3336   0.7907   0.9467     H
C      0.33682 0.3898518 0.7815013     C
C      0.33682 0.8898518 0.2185013     C
O     0.3424116 0.2351517 0.6621913     O
O     0.3424116 0.7351517 0.3378113     O
H        0.343    0.011   0.6411     H
H        0.343    0.511   0.3589     H
H       0.3444   0.2854 0.578416     H
H       0.3444   0.7854 0.421616     H
N      0.34444  0.30894  0.54432     N
N      0.34444  0.80894  0.45572     N
H       0.3458   0.0197    0.711     H
H       0.3458   0.5197    0.289     H
H       0.3514   0.4074   0.1583     H
H       0.3514   0.9074   0.8417     H
N     0.3581417  0.05592 0.0252912     N
N     0.3581417  0.55592 0.9747112     N
O     0.3594118  0.17362 0.7496712     O
O     0.3594118  0.67362 0.2503312     O
C     0.3601518  0.08682 0.9685013     C
C     0.3601518  0.58682 0.0315013     C
C     0.363613 0.297211  0.13738     C
C     0.363613 0.797211  0.86278     C
C      0.36772  0.35362 0.8702614     C
C      0.36772  0.85362 0.1297414     C
N      0.36814  0.02992 0.2824317     N
N      0.36814  0.52992 0.7175717     N
H       0.3717   0.3212   0.9049     H
H       0.3717   0.8212   0.0951     H
H       0.3753   0.2914   0.5142     H
H       0.3753   0.7914   0.4862     H
C     0.377516 0.003814 0.676115     C
C     0.377516 0.503814 0.323915     C
C      0.37992  0.18492 0.6967016     C
C      0.37992  0.68492 0.3033016     C
C      0.38092  0.45502 0.8087213     C
C      0.38092  0.95502 0.1912813     C
C      0.38534  0.29544  0.07654     C
C      0.38534  0.79544  0.92354     C
H       0.3944   0.4455   0.3207     H
C      0.39642  0.11772 0.8797414     C
C      0.39642  0.61772 0.1202614     C
C      0.39824  0.02732  0.22572     C
C      0.39824  0.52732  0.77432     C
N     0.4006017 0.4312517 0.8665811     N
N     0.4006017 0.9312517 0.1334211     N
H       0.4165   0.2923    0.159     H
H       0.4165   0.7923    0.841     H
H       0.4182   0.2445   0.0692     H
H       0.4182   0.7445   0.9308     H
O      0.42362 0.3905918 0.0003312     O
O      0.42362 0.8905918 0.9996712     O
N     0.4250016 0.0783117 0.9294111     N
N     0.4250016 0.5783117 0.0705911     N
H       0.4288   0.1217   0.8451     H
H       0.4288   0.6217   0.1549     H
C      0.43492  0.37012 0.0533016     C
C      0.43492  0.87012 0.9467016     C
N      0.44114  0.09444  0.20572     N
N      0.44114  0.59444  0.79432     N
C     0.442215 0.049713 0.671913     C
C     0.442215 0.549713 0.328113     C
C      0.45464  0.13534  0.67354     C
C      0.45464  0.63534  0.32654     C
Co    0.459322 0.482983 0.94100417    Co
Co    0.459322 0.982983 0.05899617    Co
H       0.4594   0.1253   0.2362     H
H       0.4594   0.6253   0.7642     H
H       0.4654   0.0944 0.171616     H
H       0.4654   0.5944 0.828416     H
H       0.4677   0.0325   0.6343     H
H       0.4677   0.5325   0.3657     H
H       0.4796   0.0282   0.7028     H
H       0.4796   0.5282   0.2972     H
O     0.4851517 0.4075916 0.0878113     O
O     0.4851517 0.9075916 0.9121913     O
H       0.4945   0.3318   0.6808     H
H       0.4951   0.4173   0.6053     H
H       0.4984   0.3571    0.701     H
H       0.4984   0.8571    0.299     H
H       0.5016   0.1429    0.701     H
H       0.5016   0.6429    0.299     H
H       0.5055   0.1682   0.6808     H
H       0.5055   0.6682   0.3192     H
O     0.5148517 0.0924116 0.0878113     O
O     0.5148517 0.5924116 0.9121913     O
H       0.5204   0.9718   0.2972     H
H       0.5285   0.8412   0.3649     H
H       0.5323   0.9675   0.3657     H
H       0.5354   0.4064 0.171616     H
H       0.5354   0.9064 0.828416     H
Co    0.540682 0.017023 0.94100417    Co
Co    0.540682 0.517023 0.05899617    Co
H       0.5414   0.3753   0.2362     H
H       0.5414   0.8753   0.7642     H
H       0.5423   0.3335    0.591     H
C      0.54544  0.36474  0.67354     C
C      0.54544  0.86474  0.32654     C
C     0.547211 0.386413  0.61278     C
C     0.557815 0.950313 0.328113     C
N      0.55894  0.40564  0.20572     N
N      0.55894  0.90564  0.79432     N
C      0.56512  0.12992 0.0533016     C
C      0.56512  0.62992 0.9467016     C
H       0.5712   0.3783   0.8451     H
H       0.5712   0.8783   0.1549     H
N     0.5750016 0.4216917 0.9294111     N
N     0.5750016 0.9216917 0.0705911     N
O      0.57642 0.1094118 0.0003312     O
O      0.57642 0.6094118 0.9996712     O
H       0.5818   0.2555   0.0692     H
H       0.5835   0.2077    0.159     H
H       0.5912   0.4318    0.545     H
H       0.5912   0.7215   0.8851     H
N     0.5994017 0.0687517 0.8665811     N
N     0.5994017 0.5687517 0.1334211     N
C      0.60184  0.47272  0.22572     C
C      0.60184  0.97272  0.77432     C
C      0.60362  0.38232 0.8797414     C
C      0.60362  0.88232 0.1202614     C
C     0.604313 0.427314  0.58681     C
H       0.6071   0.2516    0.049     H
H       0.6071   0.7516    0.951     H
H       0.6081    0.483   0.6039     H
C      0.61474  0.20464  0.07654     C
C      0.61474  0.70464  0.92354     C
C      0.61912  0.04502 0.8087213     C
C      0.61912  0.54502 0.1912813     C
C      0.62012  0.31512 0.6967016     C
C      0.62012  0.81512 0.3033016     C
C     0.622516 0.996214 0.323915     C
H       0.6253   0.2094   0.5142     H
H       0.6253   0.7094   0.4862     H
H       0.6283   0.1788   0.9049     H
H       0.6283   0.6788   0.0951     H
N      0.63194  0.47012 0.2824317     N
N      0.63194  0.97012 0.7175717     N
C      0.63232  0.14642 0.8702614     C
C      0.63232  0.64642 0.1297414     C
C     0.636413 0.202811  0.13738     C
C     0.6398518  0.41322 0.9685013     C
C     0.6398518  0.91322 0.0315013     C
O     0.6405918  0.32642 0.7496712     O
O     0.6405918  0.82642 0.2503312     O
N     0.6418617  0.44412 0.0252912     N
N     0.6418617  0.94412 0.9747112     N
H       0.6486   0.0926   0.1583     H
H       0.6542   0.9803    0.289     H
N      0.65564  0.19114  0.54432     N
N      0.65564  0.69114  0.45572     N
H       0.6564   0.2154 0.578416     H
H       0.6564   0.7154 0.421616     H
H        0.657    0.989   0.3589     H
H       0.6574   0.3986   0.5917     H
O     0.6575916 0.2648517 0.6621913     O
O     0.6575916 0.7648517 0.3378113     O
C      0.66322 0.1101518 0.7815013     C
C      0.66322 0.6101518 0.2185013     C
H       0.6664   0.2093   0.0533     H
H       0.6673   0.2549   0.1447     H
N     0.6716917 0.1750016 0.8205911     N
N     0.6716917 0.6750016 0.1794111     N
C      0.67554  0.03674  0.69652     C
C      0.67554  0.53674  0.30352     C
C     0.677314 0.145713  0.16321     C
N     0.6812517 0.3494017 0.8834211     N
N     0.6812517 0.8494017 0.1165811     N
H       0.6818   0.1588    0.205     H
N      0.69412 0.1081417 0.7247112     N
N      0.69412 0.6081417 0.2752912     N
H       0.6949   0.0321   0.6573     H
H       0.6949   0.5321   0.3427     H
H       0.6955   0.8556   0.5707     H
C     0.700313 0.692215 0.921913     C
C      0.70502  0.36912 0.9412813     C
C      0.70502  0.86912 0.0587213     C
C      0.71334  0.42554  0.05352     C
C      0.71334  0.92554  0.94652     C
H       0.7175   0.7177   0.8843     H
H       0.7179   0.4449   0.0927     H
H       0.7179   0.9449   0.9073     H
N      0.72012  0.11814 0.4675717     N
N      0.72012  0.61814 0.5324317     N
H       0.7218   0.7296   0.9528     H
C      0.72272  0.14824  0.52432     C
C      0.72272  0.64824  0.47572     C
H       0.7303   0.5958    0.961     H
Co    0.732983 0.290682 0.80899617    Co
Co    0.732983 0.790682 0.19100417    Co
H        0.733   0.1419   0.1461     H
H        0.739    0.593   0.8911     H
C     0.746214 0.627516 0.926115     C
C     0.753814 0.872516 0.573915     C
H        0.761    0.907   0.6089     H
H        0.767   0.3581   0.3539     H
Co    0.767023 0.209322 0.69100417    Co
Co    0.767023 0.709322 0.30899617    Co
H       0.7697   0.9042    0.539     H
C      0.77732  0.35184  0.97572     C
C      0.77732  0.85184  0.02432     C
H       0.7782   0.7704   0.5472     H
H     0.779784 0.778186 0.619838     H
N      0.77992  0.38194 0.0324317     N
N      0.77992  0.88194 0.9675717     N
H       0.7821   0.0551   0.4073     H
H       0.7821   0.5551   0.5927     H
C      0.78674  0.07454  0.44652     C
C      0.78674  0.57454  0.55352     C
C      0.79502  0.13092 0.5587213     C
C      0.79502  0.63092 0.4412813     C
C     0.799713 0.807815 0.578113     C
H       0.8045   0.6444   0.9293     H
H       0.8051   0.4679   0.8427     H
H       0.8051   0.9679   0.1573     H
N      0.80592 0.3918617 0.7752912     N
N      0.80592 0.8918617 0.2247112     N
H       0.8182   0.3412    0.295     H
N     0.8187517 0.1506017 0.6165811     N
N     0.8187517 0.6506017 0.3834211     N
C     0.822714 0.354313  0.33681     C
C      0.82454  0.46334  0.80352     C
C      0.82454  0.96334  0.19652     C
N     0.8283117 0.3250016 0.6794111     N
N     0.8283117 0.8250016 0.3205911     N
H       0.8327   0.2451   0.3553     H
H       0.8336   0.2907   0.4467     H
C      0.83682 0.3898518 0.7185013     C
C      0.83682 0.8898518 0.2815013     C
O     0.8424116 0.2351517 0.8378113     O
O     0.8424116 0.7351517 0.1621913     O
H       0.8426   0.6014   0.0917     H
H        0.843    0.011   0.8589     H
H       0.8444   0.2854 0.921616     H
H       0.8444   0.7854 0.078416     H
N      0.84444  0.30894  0.95572     N
N      0.84444  0.80894  0.04432     N
H       0.8458   0.0197    0.789     H
H       0.8514   0.4074   0.3417     H
N     0.8581417  0.05592 0.4747112     N
N     0.8581417  0.55592 0.5252912     N
O     0.8594118  0.17362 0.7503312     O
O     0.8594118  0.67362 0.2496712     O
C     0.8601518  0.08682 0.5315013     C
C     0.8601518  0.58682 0.4685013     C
C     0.863613 0.297211  0.36278     C
C      0.86772  0.35362 0.6297414     C
C      0.86772  0.85362 0.3702614     C
N      0.86814  0.02992 0.2175717     N
N      0.86814  0.52992 0.7824317     N
H       0.8717   0.3212   0.5951     H
H       0.8717   0.8212   0.4049     H
H       0.8753   0.2914   0.9862     H
H       0.8753   0.7914   0.0142     H
C     0.877516 0.003814 0.823915     C
C      0.87992  0.18492 0.8033016     C
C      0.87992  0.68492 0.1967016     C
C      0.88092  0.45502 0.6912813     C
C      0.88092  0.95502 0.3087213     C
C      0.88534  0.29544  0.42354     C
C      0.88534  0.79544  0.57654     C
H       0.8919    0.517   0.1039     H
H       0.8929   0.2484    0.451     H
H       0.8929   0.7484    0.549     H
C     0.895713 0.572714  0.08681     C
C      0.89642  0.11772 0.6202614     C
C      0.89642  0.61772 0.3797414     C
C      0.89824  0.02732  0.27432     C
C      0.89824  0.52732  0.72572     C
N     0.9006017 0.4312517 0.6334211     N
N     0.9006017 0.9312517 0.3665811     N
H       0.9088   0.5682    0.045     H
H       0.9088   0.7785   0.6149     H
H       0.9165   0.2923    0.341     H
O      0.92362 0.3905918 0.4996712     O
O      0.92362 0.8905918 0.5003312     O
N     0.9250016 0.0783117 0.5705911     N
N     0.9250016 0.5783117 0.4294111     N
H       0.9288   0.1217   0.6549     H
H       0.9288   0.6217   0.3451     H
C      0.93492  0.37012 0.4467016     C
C      0.93492  0.87012 0.5533016     C
N      0.94114  0.09444  0.29432     N
N      0.94114  0.59444  0.70572     N
C     0.942215 0.049713 0.828113     C
C     0.952811 0.613613  0.11278     C
C      0.95464  0.13534  0.82654     C
C      0.95464  0.63534  0.17354     C
H       0.9577   0.6665    0.091     H
H       0.9593   0.5836   0.1967     H
Co    0.959322 0.482983 0.55899617    Co
Co    0.959322 0.982983 0.44100417    Co
H       0.9594   0.1253   0.2642     H
H       0.9594   0.6253   0.7362     H
H       0.9654   0.0944 0.328416     H
H       0.9654   0.5944 0.671616     H
H       0.9677   0.0325   0.8657     H
H       0.9715   0.1588   0.8649     H
H       0.9796   0.0282   0.7972     H
O     0.9851517 0.4075916 0.4121913     O
O     0.9851517 0.9075916 0.5878113     O
