data_I
_chemical_name_common  '/Users/gianmarcoterrones/Research/MOFs/MOF_structures/water_stability_work_extra_structs/cleaned_from_CCDC/BIQHOA'
_cell_length_a  7.53440
_cell_length_b 12.18117
_cell_length_c 13.49730
_cell_angle_alpha 99.31422
_cell_angle_beta  90.00000
_cell_angle_gamma 108.01490
_space_group_name_H-M_alt      'P 1'


loop_
_space_group_symop_operation_xyz
  'x, y, z' 

loop_
_atom_site_label
_atom_site_fract_x
_atom_site_fract_y
_atom_site_fract_z
_atom_site_type_symbol
Zn         0.0      0.0      0.0    Zn
C       0.0102   0.0204   0.7767     C
H       0.0122   0.0244   0.6279     H
N       0.0246   0.4872   0.1876     N
H       0.0304   0.0608   0.2303     H
C       0.0352   0.0704   0.6915     C
N       0.0413   0.0826   0.8683     N
C       0.0945    0.189   0.7031     C
C       0.0987   0.1974   0.8737     C
C       0.1165    0.585   0.8363     C
N       0.1189   0.2378   0.6063     N
H       0.1216   0.2432   0.9374     H
H       0.1234   0.2468     0.42     H
C       0.1276   0.2552   0.7919     C
N        0.142    0.882   0.9359     N
C       0.1642   0.3284   0.4328     C
H       0.1682   0.3364   0.7996     H
N       0.1692   0.3384   0.6181     N
H       0.1757   0.3514   0.2915     H
C       0.1958   0.3916   0.5306     C
C       0.1964   0.3928   0.3569     C
C       0.2254   0.8172   0.9136     C
N       0.2544   0.5088   0.3675     N
C       0.2548   0.5096   0.5424     C
N         0.26    0.118   0.0641     N
H       0.2769   0.5538   0.6068     H
C       0.2821   0.5642    0.462     C
Zn     0.29135   0.5827  0.22448    Zn
H       0.3149   0.7598     0.35     H
H       0.3228   0.6456   0.4734     H
N       0.3254   0.6508   0.0918     N
C       0.3341   0.6682   0.0115     C
Fe     0.35195   0.7039  0.87495    Fe
O       0.3736   0.7472   0.3022     O
C       0.3767   0.7534   0.7445     C
H        0.392    0.784    0.264     H
N       0.3946   0.7892   0.6705     N
C       0.4082   0.1828   0.0864     C
H       0.4449   0.7598     0.35     H
N       0.4626   0.4872   0.1876     N
C       0.4685    0.585   0.8363     C
C       0.5315    0.415   0.1637     C
N       0.5374   0.5128   0.8124     N
H       0.5551   0.2402     0.65     H
C       0.5918   0.8172   0.9136     C
N       0.6054   0.2108   0.3295     N
H        0.608    0.216    0.736     H
C       0.6233   0.2466   0.2555     C
O       0.6264   0.2528   0.6978     O
Fe     0.64805   0.2961  0.12505    Fe
C       0.6659   0.3318   0.9885     C
N       0.6746   0.3492   0.9082     N
H       0.6772   0.3544   0.5266     H
H       0.6851   0.2402     0.65     H
Zn     0.70865   0.4173  0.77552    Zn
C       0.7179   0.4358    0.538     C
H       0.7231   0.4462   0.3932     H
N         0.74    0.882   0.9359     N
C       0.7452   0.4904   0.4576     C
N       0.7456   0.4912   0.6325     N
C       0.7746   0.1828   0.0864     C
C       0.8036   0.6072   0.6431     C
C       0.8042   0.6084   0.4694     C
H       0.8243   0.6486   0.7085     H
N       0.8308   0.6616   0.3819     N
H       0.8318   0.6636   0.2004     H
C       0.8358   0.6716   0.5672     C
N        0.858    0.118   0.0641     N
C       0.8724   0.7448   0.2081     C
H       0.8766   0.7532     0.58     H
H       0.8784   0.7568   0.0626     H
N       0.8811   0.7622   0.3937     N
C       0.8835    0.415   0.1637     C
C       0.9013   0.8026   0.1263     C
C       0.9055    0.811   0.2969     C
N       0.9587   0.9174   0.1317     N
C       0.9648   0.9296   0.3085     C
H       0.9696   0.9392   0.7697     H
N       0.9754   0.5128   0.8124     N
H       0.9878   0.9756   0.3721     H
C       0.9898   0.9796   0.2233     C
