data_I
_chemical_name_common  '/Users/gianmarcoterrones/Research/MOFs/MOF_structures/water_stability_work_extra_structs/cleaned_from_CCDC/BIRKUK'
_cell_length_a  9.10900
_cell_length_b  9.55159
_cell_length_c 22.67040
_cell_angle_alpha 98.49588
_cell_angle_beta  90.00000
_cell_angle_gamma 118.47866
_space_group_name_H-M_alt      'P 1'


loop_
_space_group_symop_operation_xyz
  'x, y, z' 

loop_
_atom_site_label
_atom_site_fract_x
_atom_site_fract_y
_atom_site_fract_z
_atom_site_type_symbol
C        0.002      1.0     0.25     C
Ag     0.00592  0.26418  0.66918    Ag
H       0.0129   0.3292   0.5057     H
H       0.0135   0.7886   0.9795     H
H       0.0186    0.303   0.5161     H
H       0.0311   0.9296   0.2216     H
H       0.0392   0.9968   0.4727     H
H       0.0399   0.6612   0.0105     H
S       0.0409  0.87402  0.79141     S
H       0.0424   0.0032   0.0273     H
H       0.0478   0.9178   0.6274     H
H       0.0547   0.6602   0.9401     H
H       0.0625   0.8936     0.07     H
C       0.0761   0.7288   0.9792     C
H       0.0805   0.5182   0.2008     H
S      0.09487  0.87814  0.43761     S
C       0.0986   0.7352   0.4812     C
H       0.1015   0.0704   0.2784     H
C       0.1172   0.9622   0.0394     C
H         0.13   0.0822   0.8726     H
H       0.1325   0.6636   0.4565     H
H       0.1338    0.658   0.4785     H
S       0.1367   0.8372   0.9747     S
H       0.1537    0.812   0.5241     H
C        0.155   0.0378   0.4606     C
C       0.1583    0.973   0.6497     C
H       0.1655    0.517   0.2623     H
S      0.16688  0.12598  0.70859     S
H       0.1689   0.1064     0.43     H
H       0.1776   0.8946    0.667     H
H       0.1792   0.6222     0.99     H
H       0.1794    0.794   0.5163     H
H        0.183   0.7254   0.0529     H
C       0.1845    0.575   0.2279     C
C       0.1853    0.027   0.8503     C
H       0.2077   0.6172   0.5923     H
S      0.21316  0.56602  0.68856     S
H       0.2134   0.5466      0.1     H
S      0.21673  0.12186  0.06239     S
C       0.2198   0.7316   0.0123     C
H       0.2214   0.9764   0.8776     H
H       0.2249   0.2114   0.5205     H
S      0.22537   0.7802  0.25508     S
H       0.2447   0.9114   0.0913     H
H        0.245   0.0236   0.6224     H
Ag     0.25826  0.26418  0.16918    Ag
H        0.283   0.1054    0.833     H
H       0.2844    0.303   0.0161     H
C       0.2954   0.6218   0.6188     C
S      0.29893  0.87066  0.99305     S
S       0.2995   0.1628   0.5253     S
C       0.3052    0.987   0.0634     C
H       0.3163   0.3292   0.0057     H
C       0.3182    0.013   0.4366     C
C       0.3264   0.6218   0.1188     C
H       0.3332   0.5466      0.6     H
H       0.3333   0.0886   0.4087     H
H       0.3417    0.188   0.9759     H
H       0.3417   0.7318    0.126     H
H       0.3428   0.7904   0.0145     H
C       0.3473   0.2712   0.5208     C
H        0.349   0.8534    0.777     H
H       0.3515    0.517   0.7623     H
S      0.35286  0.56602  0.18856     S
C       0.3588   0.2556    0.015     C
H       0.3711   0.9476   0.4202     H
H       0.3787   0.3388   0.4895     H
H       0.3854    0.206   0.9837     H
H       0.3901   0.7318    0.626     H
C       0.3905    0.575   0.7279     C
H       0.3916     0.79   0.8327     H
H       0.3945   0.3398   0.5599     H
H       0.3984     0.79   0.3327     H
H       0.4095   0.6172   0.0923     H
C       0.4173   0.8568   0.3016     C
H       0.4235   0.0524   0.0798     H
S      0.42827  0.12934  0.50695     S
H       0.4377   0.5182   0.7008     H
C       0.4395   0.8568   0.8016     C
H        0.443   0.6222     0.49     H
S      0.44517   0.2198  0.24492     S
H       0.4476   0.7904   0.5145     H
H       0.4535   0.9686   0.3205     H
H       0.4576   0.2746   0.4471     H
H       0.4689   0.3364   0.0435     H
H       0.4758    0.342   0.0215     H
H       0.4849   0.0314   0.1795     H
C       0.4882   0.2684   0.4877     C
H       0.4956   0.1466    0.723     H
H       0.5044   0.8534    0.277     H
C       0.5118   0.7316   0.5123     C
H       0.5151   0.9686   0.8205     H
H       0.5242    0.658   0.9785     H
H       0.5311   0.6636   0.9565     H
H       0.5424   0.7254   0.5529     H
H       0.5465   0.0314   0.6795     H
H       0.5524   0.2096   0.4855     H
S      0.55483   0.7802  0.75508     S
H        0.557   0.3778     0.51     H
C       0.5605   0.1432   0.1984     C
H       0.5623   0.4818   0.2992     H
S      0.57173  0.87066  0.49305     S
H       0.5765   0.9476   0.9202     H
C       0.5827   0.1432   0.6984     C
H       0.5905   0.3828   0.9077     H
H       0.6016     0.21   0.6673     H
H       0.6055   0.6602   0.4401     H
H       0.6084     0.21   0.1673     H
C       0.6095    0.425   0.2721     C
H       0.6099   0.2682    0.374     H
H       0.6146    0.794   0.0163     H
H       0.6213   0.6612   0.5105     H
H       0.6289   0.0524   0.5798     H
C       0.6366   0.7352   0.9812     C
S      0.64714  0.43398  0.81144     S
H       0.6485    0.483   0.2377     H
H        0.651   0.1466    0.223     H
C       0.6527   0.7288   0.4792     C
H       0.6572   0.2096   0.9855     H
H       0.6583   0.2682    0.874     H
H       0.6583    0.812   0.0241     H
H       0.6667   0.9114   0.5913     H
H       0.6668   0.4534      0.4     H
C       0.6736   0.3782   0.8812     C
C       0.6818    0.987   0.5634     C
H       0.6837   0.6708   0.9943     H
S       0.6866   0.8672   0.9267     S
C       0.6948    0.013   0.9366     C
S       0.7005   0.8372   0.4747     S
S      0.70107  0.12934  0.00695     S
C       0.7046   0.3782   0.3812     C
H       0.7156    0.697   0.9839     H
H        0.717   0.8946    0.167     H
Ag     0.74174  0.73582  0.83082    Ag
H        0.755   0.9764   0.3776     H
H       0.7553   0.0886   0.9087     H
S      0.77463   0.2198  0.74492     S
H       0.7751   0.7886   0.4795     H
H       0.7786   0.0236   0.1224     H
C       0.7802   0.2684   0.9877     C
H       0.7866   0.4534      0.9     H
S      0.78684  0.43398  0.31144     S
H       0.7923   0.3828   0.4077     H
C       0.8147    0.973   0.1497     C
C       0.8155    0.425   0.7721     C
H        0.817   0.2746   0.9471     H
S       0.8194   0.1328   0.5733     S
H       0.8206    0.206   0.4837     H
H       0.8208   0.3778     0.01     H
H       0.8224   0.1054    0.333     H
H       0.8311   0.8936     0.57     H
S      0.83312  0.87402  0.29141     S
H       0.8345    0.483   0.7377     H
C       0.8417    0.027   0.3503     C
C        0.845   0.9622   0.5394     C
H       0.8463    0.188   0.4759     H
S       0.8633   0.1628   0.0253     S
H       0.8662    0.342   0.5215     H
H       0.8675   0.3364   0.5435     H
H         0.87   0.9178   0.1274     H
C       0.8828   0.0378   0.9606     C
C       0.8968   0.2556    0.515     C
H       0.8985   0.9296   0.7216     H
H       0.9195   0.4818   0.7992     H
C       0.9239   0.2712   0.0208     C
H       0.9375   0.1064     0.93     H
H       0.9453   0.3398   0.0599     H
H       0.9522   0.0822   0.3726     H
H       0.9576   0.9968   0.9727     H
S       0.9591  0.12598  0.20859     S
H       0.9601   0.3388   0.9895     H
H       0.9608   0.0032   0.5273     H
H       0.9689   0.0704   0.7784     H
H       0.9814    0.697   0.4839     H
H       0.9865   0.2114   0.0205     H
H       0.9871   0.6708   0.4943     H
Ag     0.99408  0.73582  0.33082    Ag
C        0.998      1.0     0.75     C
