data_I
_chemical_name_common  '/Users/gianmarcoterrones/Research/MOFs/MOF_structures/water_stability_work_extra_structs/cleaned_from_CCDC/BIRLEV'
_cell_length_a  8.24680
_cell_length_b 10.13810
_cell_length_c 10.40266
_cell_angle_alpha 83.32023
_cell_angle_beta  66.64798
_cell_angle_gamma 72.93500
_space_group_name_H-M_alt      'P 1'


loop_
_space_group_symop_operation_xyz
  'x, y, z' 

loop_
_atom_site_label
_atom_site_fract_x
_atom_site_fract_y
_atom_site_fract_z
_atom_site_type_symbol
H        0.003   0.9355   0.6284     H
Ag     0.01258     0.75  0.97484    Ag
H       0.0247   0.2475   0.6734     H
S      0.03776  0.97478   0.8302     S
H       0.1014   0.5968    0.301     H
C       0.1018   0.6939   0.2936     C
C       0.1089   0.9396   0.6472     C
S      0.13204  0.52522   0.8302     S
H       0.1595    0.013   0.5908     H
H       0.1638   0.7104    0.351     H
H       0.1743    0.649   0.6228     H
C       0.1954    0.917   0.1244     C
H       0.2029    0.851   0.6228     H
S      0.22188  0.73469  0.11292     S
H       0.2412   0.9306   0.1952     H
C       0.2439   0.5604   0.6472     C
H       0.2497    0.487   0.5908     H
H       0.2735    0.948    0.033     H
H       0.3019   0.2525   0.6734     H
H       0.3065    0.448    0.967     H
C       0.3198    0.417   0.8756     C
S       0.3348  0.23469  0.88708     S
H       0.3686   0.5645   0.6284     H
C       0.3954   0.1939   0.7064     C
H       0.4024   0.0968    0.699     H
H       0.4364   0.4306   0.8048     H
H       0.4852   0.7896    0.351     H
H       0.5148   0.2104    0.649     H
H       0.5636   0.5694   0.1952     H
H       0.5976   0.9032    0.301     H
C       0.6046   0.8061   0.2936     C
H       0.6314   0.4355   0.3716     H
S       0.6652  0.76531  0.11292     S
C       0.6802    0.583   0.1244     C
H       0.6935    0.552    0.033     H
H       0.6981   0.7475   0.3266     H
H       0.7265    0.052    0.967     H
H       0.7503    0.513   0.4092     H
C       0.7561   0.4396   0.3528     C
H       0.7588   0.0694   0.8048     H
S      0.77812  0.26531  0.88708     S
H       0.7971    0.149   0.3772     H
C       0.8046    0.083   0.8756     C
H       0.8257    0.351   0.3772     H
H       0.8362   0.2896    0.649     H
H       0.8405    0.987   0.4092     H
S      0.86796  0.47478   0.1698     S
C       0.8911   0.0604   0.3528     C
C       0.8982   0.3061   0.7064     C
H       0.8986   0.4032    0.699     H
S      0.96224  0.02522   0.1698     S
H       0.9753   0.7525   0.3266     H
Ag     0.98742     0.25  0.02516    Ag
H        0.997   0.0645   0.3716     H
