data_I
_chemical_name_common  '/Users/gianmarcoterrones/Research/MOFs/MOF_structures/water_stability_work_extra_structs/cleaned_from_CCDC/BIRLAR'
_cell_length_a  8.98040
_cell_length_b 10.44905
_cell_length_c 10.44905
_cell_angle_alpha 100.95964
_cell_angle_beta  93.73973
_cell_angle_gamma 93.73973
_space_group_name_H-M_alt      'P 1'


loop_
_space_group_symop_operation_xyz
  'x, y, z' 

loop_
_atom_site_label
_atom_site_fract_x
_atom_site_fract_y
_atom_site_fract_z
_atom_site_type_symbol
Sb         0.0      0.5      0.0    Sb
F       0.0186   0.3198   0.9664     F
H       0.0379   0.2532   0.7132     H
H       0.0411   0.8352   0.4188     H
C        0.048   0.1781   0.6431     C
S      0.06664   0.0335   0.7122     S
S      0.09894  0.10921  0.12199     S
C       0.1039    0.972   0.2036     C
F       0.1053   0.5196   0.8572     F
H       0.1087   0.8899   0.1393     H
H       0.1368   0.2489   0.3243     H
H       0.1369   0.1947   0.5973     H
F       0.1774   0.5291   0.1067     F
H       0.1929   0.9834    0.267     H
C       0.1931   0.2377   0.2461     C
H       0.1994   0.3195   0.2133     H
H       0.2058   0.7316   0.7856     H
Ag        0.25  0.08436  0.91564    Ag
H       0.2942   0.2144   0.2684     H
H       0.3006   0.7867   0.6805     H
C       0.3069   0.7539   0.7623     C
H       0.3071    0.733   0.0166     H
F       0.3226   0.8933   0.4709     F
H       0.3631   0.4027   0.8053     H
H       0.3632   0.6757   0.7511     H
H       0.3913   0.8607   0.1101     H
F       0.3947   0.1428   0.4804     F
C       0.3961   0.7964    0.028     C
S      0.40106  0.87801  0.89079     S
S      0.43336   0.2878   0.9665     S
C        0.452   0.3569   0.8219     C
H       0.4589   0.5812   0.1648     H
H       0.4621   0.2868   0.7468     H
F       0.4814   0.0336   0.6802     F
Sb         0.5      0.0      0.5    Sb
F       0.5186   0.9664   0.3198     F
H       0.5379   0.7132   0.2532     H
H       0.5411   0.4188   0.8352     H
C        0.548   0.6431   0.1781     C
S      0.56664   0.7122   0.0335     S
S      0.59894  0.12199  0.10921     S
C       0.6039   0.2036    0.972     C
F       0.6053   0.8572   0.5196     F
H       0.6087   0.1393   0.8899     H
H       0.6368   0.3243   0.2489     H
H       0.6369   0.5973   0.1947     H
F       0.6774   0.1067   0.5291     F
H       0.6929    0.267   0.9834     H
C       0.6931   0.2461   0.2377     C
H       0.6994   0.2133   0.3195     H
H       0.7058   0.7856   0.7316     H
Ag        0.75  0.91564  0.08436    Ag
H       0.7942   0.2684   0.2144     H
H       0.8006   0.6805   0.7867     H
C       0.8069   0.7623   0.7539     C
H       0.8071   0.0166    0.733     H
F       0.8226   0.4709   0.8933     F
H       0.8631   0.8053   0.4027     H
H       0.8632   0.7511   0.6757     H
H       0.8913   0.1101   0.8607     H
F       0.8947   0.4804   0.1428     F
C       0.8961    0.028   0.7964     C
S      0.90106  0.89079  0.87801     S
S      0.93336   0.9665   0.2878     S
C        0.952   0.8219   0.3569     C
H       0.9589   0.1648   0.5812     H
H       0.9621   0.7468   0.2868     H
F       0.9814   0.6802   0.0336     F
