data_I
_chemical_name_common  '/Users/gianmarcoterrones/Research/MOFs/MOF_structures/water_stability_work_extra_structs/cleaned_from_CoRE/BUNKUS_clean'
_cell_length_a 16.19500
_cell_length_b 49.92000
_cell_length_c 49.92000
_cell_angle_alpha 120.00000
_cell_angle_beta  90.00000
_cell_angle_gamma 90.00000
_space_group_name_H-M_alt      'P 1'


loop_
_space_group_symop_operation_xyz
  'x, y, z' 

loop_
_atom_site_label
_atom_site_fract_x
_atom_site_fract_y
_atom_site_fract_z
_atom_site_type_symbol
O          0.0  0.03079  0.55397     O
Zr         0.0  0.05338  0.52669    Zr
Zr         0.0  0.47331  0.52669    Zr
Zr         0.0  0.47331  0.94662    Zr
O          0.0  0.47682  0.03079     O
O          0.0  0.52318  0.55397     O
O          0.0  0.52318  0.96921     O
Zr         0.0  0.52669  0.47331    Zr
O          0.0  0.55397  0.03079     O
O          0.0  0.96921  0.44603     O
O          0.0  0.96921  0.52318     O
O      0.07241  0.08157  0.51681     O
O      0.07241  0.08157  0.56476     O
O      0.07241  0.43524  0.51681     O
O      0.07241  0.43524  0.91843     O
O      0.07241  0.48319  0.56476     O
O      0.07241  0.48319  0.91843     O
O      0.07241  0.51681  0.08157     O
O      0.07241  0.51681  0.43524     O
O      0.07241  0.56476  0.08157     O
O      0.07241  0.56476  0.48319     O
O      0.07241  0.91843  0.43524     O
O      0.07241  0.91843  0.48319     O
Zr      0.1083      0.0  0.53612    Zr
Zr      0.1083  0.46388      0.0    Zr
Zr      0.1083  0.46388  0.46388    Zr
Zr      0.1083  0.53612      0.0    Zr
Zr      0.1083  0.53612  0.53612    Zr
Zr      0.1083      1.0  0.46388    Zr
O      0.10884  0.02676  0.51338     O
O      0.10884  0.48662  0.51338     O
O      0.10884  0.48662  0.97324     O
O      0.10884  0.51338  0.02676     O
O      0.10884  0.51338  0.48662     O
O      0.10884  0.97324  0.48662     O
C      0.13295  0.07573  0.49728     C
C      0.13295  0.07573  0.57845     C
C      0.13295  0.42155  0.49728     C
C      0.13295  0.42155  0.92427     C
C      0.13295  0.49728  0.07573     C
C      0.13295  0.49728  0.42155     C
C      0.13295  0.50272  0.57845     C
C      0.13295  0.50272  0.92427     C
C      0.13295  0.57845  0.07573     C
C      0.13295  0.57845  0.50272     C
C      0.13295  0.92427  0.42155     C
C      0.13295  0.92427  0.50272     C
O      0.14781  0.04667  0.47708     O
O      0.14781  0.04667  0.56959     O
O      0.14781  0.43041  0.47708     O
O      0.14781  0.43041  0.95333     O
O      0.14781  0.47708  0.04667     O
O      0.14781  0.47708  0.43041     O
O      0.14781  0.52292  0.56959     O
O      0.14781  0.52292  0.95333     O
O      0.14781  0.56959  0.04667     O
O      0.14781  0.56959  0.52292     O
O      0.14781  0.95333  0.43041     O
O      0.14781  0.95333  0.52292     O
H      0.14903  0.13425   0.5445     H
H      0.14903  0.13425  0.58975     H
H      0.14903  0.41025   0.5445     H
H      0.14903  0.41025  0.86575     H
H      0.14903   0.4555  0.58975     H
H      0.14903   0.4555  0.86575     H
H      0.14903   0.5445  0.13425     H
H      0.14903   0.5445  0.41025     H
H      0.14903  0.58975  0.13425     H
H      0.14903  0.58975   0.4555     H
H      0.14903  0.86575  0.41025     H
H      0.14903  0.86575   0.4555     H
C      0.18161  0.13139  0.52623     C
C      0.18161  0.13139  0.60516     C
C      0.18161  0.39484  0.52623     C
C      0.18161  0.39484  0.86861     C
C      0.18161  0.47377  0.60516     C
C      0.18161  0.47377  0.86861     C
C      0.18161  0.52623  0.13139     C
C      0.18161  0.52623  0.39484     C
C      0.18161  0.60516  0.13139     C
C      0.18161  0.60516  0.47377     C
C      0.18161  0.86861  0.39484     C
C      0.18161  0.86861  0.47377     C
C      0.18222  0.10284  0.49915     C
C      0.18222  0.10284  0.60369     C
C      0.18222  0.39631  0.49915     C
C      0.18222  0.39631  0.89716     C
C      0.18222  0.49915  0.10284     C
C      0.18222  0.49915  0.39631     C
C      0.18222  0.50085  0.60369     C
C      0.18222  0.50085  0.89716     C
C      0.18222  0.60369  0.10284     C
C      0.18222  0.60369  0.50085     C
C      0.18222  0.89716  0.39631     C
C      0.18222  0.89716  0.50085     C
H      0.22545  0.17642  0.54752     H
H      0.22545  0.17642   0.6289     H
H      0.22545   0.3711  0.54752     H
H      0.22545   0.3711  0.82358     H
H      0.22545  0.45248   0.6289     H
H      0.22545  0.45248  0.82358     H
H      0.22545  0.54752  0.17642     H
H      0.22545  0.54752   0.3711     H
H      0.22545   0.6289  0.17642     H
H      0.22545   0.6289  0.45248     H
H      0.22545  0.82358   0.3711     H
H      0.22545  0.82358  0.45248     H
C      0.22628  0.15597  0.52793     C
C      0.22628  0.15597  0.62804     C
C      0.22628  0.37196  0.52793     C
C      0.22628  0.37196  0.84403     C
C      0.22628  0.47207  0.62804     C
C      0.22628  0.47207  0.84403     C
C      0.22628  0.52793  0.15597     C
C      0.22628  0.52793  0.37196     C
C      0.22628  0.62804  0.15597     C
C      0.22628  0.62804  0.47207     C
C      0.22628  0.84403  0.37196     C
C      0.22628  0.84403  0.47207     C
C       0.2275  0.09887  0.47376     C
C       0.2275  0.09887  0.62511     C
C       0.2275  0.37489  0.47376     C
C       0.2275  0.37489  0.90113     C
C       0.2275  0.47376  0.09887     C
C       0.2275  0.47376  0.37489     C
C       0.2275  0.52624  0.62511     C
C       0.2275  0.52624  0.90113     C
C       0.2275  0.62511  0.09887     C
C       0.2275  0.62511  0.52624     C
C       0.2275  0.90113  0.37489     C
C       0.2275  0.90113  0.52624     C
H      0.22794  0.07834  0.45427     H
H      0.22794  0.07834  0.62407     H
H      0.22794  0.37593  0.45427     H
H      0.22794  0.37593  0.92166     H
H      0.22794  0.45427  0.07834     H
H      0.22794  0.45427  0.37593     H
H      0.22794  0.54573  0.62407     H
H      0.22794  0.54573  0.92166     H
H      0.22794  0.62407  0.07834     H
H      0.22794  0.62407  0.54573     H
H      0.22794  0.92166  0.37593     H
H      0.22794  0.92166  0.54573     H
O      0.23155      0.0  0.47616     O
O      0.23155      0.0  0.52384     O
O      0.23155  0.47616      0.0     O
O      0.23155  0.47616  0.47616     O
O      0.23155  0.52384      0.0     O
O      0.23155  0.52384  0.52384     O
C      0.27106      0.0      0.5     C
C      0.27106      0.5      0.0     C
C      0.27106      0.5      0.5     C
C      0.27218  0.12346  0.47545     C
C      0.27218  0.12346  0.64801     C
C      0.27218  0.35199  0.47545     C
C      0.27218  0.35199  0.87654     C
C      0.27218  0.47545  0.12346     C
C      0.27218  0.47545  0.35199     C
C      0.27218  0.52455  0.64801     C
C      0.27218  0.52455  0.87654     C
C      0.27218  0.64801  0.12346     C
C      0.27218  0.64801  0.52455     C
C      0.27218  0.87654  0.35199     C
C      0.27218  0.87654  0.52455     C
C      0.27269  0.15226  0.50223     C
C      0.27269  0.15226  0.65003     C
C      0.27269  0.34997  0.50223     C
C      0.27269  0.34997  0.84774     C
C      0.27269  0.49777  0.65003     C
C      0.27269  0.49777  0.84774     C
C      0.27269  0.50223  0.15226     C
C      0.27269  0.50223  0.34997     C
C      0.27269  0.65003  0.15226     C
C      0.27269  0.65003  0.49777     C
C      0.27269  0.84774  0.34997     C
C      0.27269  0.84774  0.49777     C
H      0.30475   0.1206  0.45718     H
H      0.30475   0.1206  0.66342     H
H      0.30475  0.33658  0.45718     H
H      0.30475  0.33658   0.8794     H
H      0.30475  0.45718   0.1206     H
H      0.30475  0.45718  0.33658     H
H      0.30475  0.54282  0.66342     H
H      0.30475  0.54282   0.8794     H
H      0.30475  0.66342   0.1206     H
H      0.30475  0.66342  0.54282     H
H      0.30475   0.8794  0.33658     H
H      0.30475   0.8794  0.54282     H
H      0.31907  0.16126  0.45589     H
H      0.31907  0.16126  0.70537     H
H      0.31907  0.29463  0.45589     H
H      0.31907  0.29463  0.83874     H
H      0.31907  0.45589  0.16126     H
H      0.31907  0.45589  0.29463     H
H      0.31907  0.54411  0.70537     H
H      0.31907  0.54411  0.83874     H
H      0.31907  0.70537  0.16126     H
H      0.31907  0.70537  0.54411     H
H      0.31907  0.83874  0.29463     H
H      0.31907  0.83874  0.54411     H
C       0.3215  0.17834  0.50336     C
C       0.3215  0.17834  0.67498     C
C       0.3215  0.32502  0.50336     C
C       0.3215  0.32502  0.82166     C
C       0.3215  0.49664  0.67498     C
C       0.3215  0.49664  0.82166     C
C       0.3215  0.50336  0.17834     C
C       0.3215  0.50336  0.32502     C
C       0.3215  0.67498  0.17834     C
C       0.3215  0.67498  0.49664     C
C       0.3215  0.82166  0.32502     C
C       0.3215  0.82166  0.49664     C
H      0.33662   0.2022  0.55112     H
H      0.33662   0.2022  0.65108     H
H      0.33662  0.34892  0.55112     H
H      0.33662  0.34892   0.7978     H
H      0.33662  0.44888  0.65108     H
H      0.33662  0.44888   0.7978     H
H      0.33662  0.55112   0.2022     H
H      0.33662  0.55112  0.34892     H
H      0.33662  0.65108   0.2022     H
H      0.33662  0.65108  0.44888     H
H      0.33662   0.7978  0.34892     H
H      0.33662   0.7978  0.44888     H
C      0.33902  0.17852  0.47618     C
C      0.33902  0.17852  0.70234     C
C      0.33902  0.29766  0.47618     C
C      0.33902  0.29766  0.82148     C
C      0.33902  0.47618  0.17852     C
C      0.33902  0.47618  0.29766     C
C      0.33902  0.52382  0.70234     C
C      0.33902  0.52382  0.82148     C
C      0.33902  0.70234  0.17852     C
C      0.33902  0.70234  0.52382     C
C      0.33902  0.82148  0.29766     C
C      0.33902  0.82148  0.52382     C
C      0.34922  0.20233  0.53157     C
C      0.34922  0.20233  0.67076     C
C      0.34922  0.32924  0.53157     C
C      0.34922  0.32924  0.79767     C
C      0.34922  0.46843  0.67076     C
C      0.34922  0.46843  0.79767     C
C      0.34922  0.53157  0.20233     C
C      0.34922  0.53157  0.32924     C
C      0.34922  0.67076  0.20233     C
C      0.34922  0.67076  0.46843     C
C      0.34922  0.79767  0.32924     C
C      0.34922  0.79767  0.46843     C
C      0.36606      0.0      0.5     C
C      0.36606      0.5      0.0     C
C      0.36606      0.5      0.5     C
C      0.38425  0.20269  0.47722     C
C      0.38425  0.20269  0.72547     C
C      0.38425  0.27453  0.47722     C
C      0.38425  0.27453  0.79731     C
C      0.38425  0.47722  0.20269     C
C      0.38425  0.47722  0.27453     C
C      0.38425  0.52278  0.72547     C
C      0.38425  0.52278  0.79731     C
C      0.38425  0.72547  0.20269     C
C      0.38425  0.72547  0.52278     C
C      0.38425  0.79731  0.27453     C
C      0.38425  0.79731  0.52278     C
C      0.39446   0.2265  0.53261     C
C      0.39446   0.2265  0.69389     C
C      0.39446  0.30611  0.53261     C
C      0.39446  0.30611   0.7735     C
C      0.39446  0.46739  0.69389     C
C      0.39446  0.46739   0.7735     C
C      0.39446  0.53261   0.2265     C
C      0.39446  0.53261  0.30611     C
C      0.39446  0.69389   0.2265     C
C      0.39446  0.69389  0.46739     C
C      0.39446   0.7735  0.30611     C
C      0.39446   0.7735  0.46739     C
F      0.39491  0.02672  0.49852     F
F      0.39491  0.02672   0.5282     F
F      0.39491   0.4718  0.49852     F
F      0.39491   0.4718  0.97328     F
F      0.39491  0.49852  0.02672     F
F      0.39491  0.49852   0.4718     F
F      0.39491  0.50148   0.5282     F
F      0.39491  0.50148  0.97328     F
F      0.39491   0.5282  0.02672     F
F      0.39491   0.5282  0.50148     F
F      0.39491  0.97328   0.4718     F
F      0.39491  0.97328  0.50148     F
H      0.39681  0.20279  0.45766     H
H      0.39681  0.20279  0.74513     H
H      0.39681  0.25487  0.45766     H
H      0.39681  0.25487  0.79721     H
H      0.39681  0.45766  0.20279     H
H      0.39681  0.45766  0.25487     H
H      0.39681  0.54234  0.74513     H
H      0.39681  0.54234  0.79721     H
H      0.39681  0.74513  0.20279     H
H      0.39681  0.74513  0.54234     H
H      0.39681  0.79721  0.25487     H
H      0.39681  0.79721  0.54234     H
C      0.41202   0.2267  0.50541     C
C      0.41202   0.2267  0.72129     C
C      0.41202  0.27871  0.50541     C
C      0.41202  0.27871   0.7733     C
C      0.41202  0.49459  0.72129     C
C      0.41202  0.49459   0.7733     C
C      0.41202  0.50541   0.2267     C
C      0.41202  0.50541  0.27871     C
C      0.41202  0.72129   0.2267     C
C      0.41202  0.72129  0.49459     C
C      0.41202   0.7733  0.27871     C
C      0.41202   0.7733  0.49459     C
H      0.41438  0.24375  0.55291     H
H      0.41438  0.24375  0.69084     H
H      0.41438  0.30916  0.55291     H
H      0.41438  0.30916  0.75625     H
H      0.41438  0.44709  0.69084     H
H      0.41438  0.44709  0.75625     H
H      0.41438  0.55291  0.24375     H
H      0.41438  0.55291  0.30916     H
H      0.41438  0.69084  0.24375     H
H      0.41438  0.69084  0.44709     H
H      0.41438  0.75625  0.30916     H
H      0.41438  0.75625  0.44709     H
C      0.45802   0.2549   0.5098     C
C      0.45802   0.2549   0.7451     C
C      0.45802   0.4902   0.7451     C
C      0.45802   0.5098   0.2549     C
C      0.45802   0.7451   0.2549     C
C      0.45802   0.7451   0.4902     C
C      0.54198   0.2549   0.5098     C
C      0.54198   0.2549   0.7451     C
C      0.54198   0.4902   0.7451     C
C      0.54198   0.5098   0.2549     C
C      0.54198   0.7451   0.2549     C
C      0.54198   0.7451   0.4902     C
H      0.58562  0.24375  0.55291     H
H      0.58562  0.24375  0.69084     H
H      0.58562  0.30916  0.55291     H
H      0.58562  0.30916  0.75625     H
H      0.58562  0.44709  0.69084     H
H      0.58562  0.44709  0.75625     H
H      0.58562  0.55291  0.24375     H
H      0.58562  0.55291  0.30916     H
H      0.58562  0.69084  0.24375     H
H      0.58562  0.69084  0.44709     H
H      0.58562  0.75625  0.30916     H
H      0.58562  0.75625  0.44709     H
C      0.58798   0.2267  0.50541     C
C      0.58798   0.2267  0.72129     C
C      0.58798  0.27871  0.50541     C
C      0.58798  0.27871   0.7733     C
C      0.58798  0.49459  0.72129     C
C      0.58798  0.49459   0.7733     C
C      0.58798  0.50541   0.2267     C
C      0.58798  0.50541  0.27871     C
C      0.58798  0.72129   0.2267     C
C      0.58798  0.72129  0.49459     C
C      0.58798   0.7733  0.27871     C
C      0.58798   0.7733  0.49459     C
H      0.60319  0.20279  0.45766     H
H      0.60319  0.20279  0.74513     H
H      0.60319  0.25487  0.45766     H
H      0.60319  0.25487  0.79721     H
H      0.60319  0.45766  0.20279     H
H      0.60319  0.45766  0.25487     H
H      0.60319  0.54234  0.74513     H
H      0.60319  0.54234  0.79721     H
H      0.60319  0.74513  0.20279     H
H      0.60319  0.74513  0.54234     H
H      0.60319  0.79721  0.25487     H
H      0.60319  0.79721  0.54234     H
F      0.60509  0.02672  0.49852     F
F      0.60509  0.02672   0.5282     F
F      0.60509   0.4718  0.49852     F
F      0.60509   0.4718  0.97328     F
F      0.60509  0.49852  0.02672     F
F      0.60509  0.49852   0.4718     F
F      0.60509  0.50148   0.5282     F
F      0.60509  0.50148  0.97328     F
F      0.60509   0.5282  0.02672     F
F      0.60509   0.5282  0.50148     F
F      0.60509  0.97328   0.4718     F
F      0.60509  0.97328  0.50148     F
C      0.60554   0.2265  0.53261     C
C      0.60554   0.2265  0.69389     C
C      0.60554  0.30611  0.53261     C
C      0.60554  0.30611   0.7735     C
C      0.60554  0.46739  0.69389     C
C      0.60554  0.46739   0.7735     C
C      0.60554  0.53261   0.2265     C
C      0.60554  0.53261  0.30611     C
C      0.60554  0.69389   0.2265     C
C      0.60554  0.69389  0.46739     C
C      0.60554   0.7735  0.30611     C
C      0.60554   0.7735  0.46739     C
C      0.61575  0.20269  0.47722     C
C      0.61575  0.20269  0.72547     C
C      0.61575  0.27453  0.47722     C
C      0.61575  0.27453  0.79731     C
C      0.61575  0.47722  0.20269     C
C      0.61575  0.47722  0.27453     C
C      0.61575  0.52278  0.72547     C
C      0.61575  0.52278  0.79731     C
C      0.61575  0.72547  0.20269     C
C      0.61575  0.72547  0.52278     C
C      0.61575  0.79731  0.27453     C
C      0.61575  0.79731  0.52278     C
C      0.63394      0.0      0.5     C
C      0.63394      0.5      0.0     C
C      0.63394      0.5      0.5     C
C      0.65078  0.20233  0.53157     C
C      0.65078  0.20233  0.67076     C
C      0.65078  0.32924  0.53157     C
C      0.65078  0.32924  0.79767     C
C      0.65078  0.46843  0.67076     C
C      0.65078  0.46843  0.79767     C
C      0.65078  0.53157  0.20233     C
C      0.65078  0.53157  0.32924     C
C      0.65078  0.67076  0.20233     C
C      0.65078  0.67076  0.46843     C
C      0.65078  0.79767  0.32924     C
C      0.65078  0.79767  0.46843     C
C      0.66098  0.17852  0.47618     C
C      0.66098  0.17852  0.70234     C
C      0.66098  0.29766  0.47618     C
C      0.66098  0.29766  0.82148     C
C      0.66098  0.47618  0.17852     C
C      0.66098  0.47618  0.29766     C
C      0.66098  0.52382  0.70234     C
C      0.66098  0.52382  0.82148     C
C      0.66098  0.70234  0.17852     C
C      0.66098  0.70234  0.52382     C
C      0.66098  0.82148  0.29766     C
C      0.66098  0.82148  0.52382     C
H      0.66338   0.2022  0.55112     H
H      0.66338   0.2022  0.65108     H
H      0.66338  0.34892  0.55112     H
H      0.66338  0.34892   0.7978     H
H      0.66338  0.44888  0.65108     H
H      0.66338  0.44888   0.7978     H
H      0.66338  0.55112   0.2022     H
H      0.66338  0.55112  0.34892     H
H      0.66338  0.65108   0.2022     H
H      0.66338  0.65108  0.44888     H
H      0.66338   0.7978  0.34892     H
H      0.66338   0.7978  0.44888     H
C       0.6785  0.17834  0.50336     C
C       0.6785  0.17834  0.67498     C
C       0.6785  0.32502  0.50336     C
C       0.6785  0.32502  0.82166     C
C       0.6785  0.49664  0.67498     C
C       0.6785  0.49664  0.82166     C
C       0.6785  0.50336  0.17834     C
C       0.6785  0.50336  0.32502     C
C       0.6785  0.67498  0.17834     C
C       0.6785  0.67498  0.49664     C
C       0.6785  0.82166  0.32502     C
C       0.6785  0.82166  0.49664     C
H      0.68093  0.16126  0.45589     H
H      0.68093  0.16126  0.70537     H
H      0.68093  0.29463  0.45589     H
H      0.68093  0.29463  0.83874     H
H      0.68093  0.45589  0.16126     H
H      0.68093  0.45589  0.29463     H
H      0.68093  0.54411  0.70537     H
H      0.68093  0.54411  0.83874     H
H      0.68093  0.70537  0.16126     H
H      0.68093  0.70537  0.54411     H
H      0.68093  0.83874  0.29463     H
H      0.68093  0.83874  0.54411     H
H      0.69525   0.1206  0.45718     H
H      0.69525   0.1206  0.66342     H
H      0.69525  0.33658  0.45718     H
H      0.69525  0.33658   0.8794     H
H      0.69525  0.45718   0.1206     H
H      0.69525  0.45718  0.33658     H
H      0.69525  0.54282  0.66342     H
H      0.69525  0.54282   0.8794     H
H      0.69525  0.66342   0.1206     H
H      0.69525  0.66342  0.54282     H
H      0.69525   0.8794  0.33658     H
H      0.69525   0.8794  0.54282     H
C      0.72731  0.15226  0.50223     C
C      0.72731  0.15226  0.65003     C
C      0.72731  0.34997  0.50223     C
C      0.72731  0.34997  0.84774     C
C      0.72731  0.49777  0.65003     C
C      0.72731  0.49777  0.84774     C
C      0.72731  0.50223  0.15226     C
C      0.72731  0.50223  0.34997     C
C      0.72731  0.65003  0.15226     C
C      0.72731  0.65003  0.49777     C
C      0.72731  0.84774  0.34997     C
C      0.72731  0.84774  0.49777     C
C      0.72782  0.12346  0.47545     C
C      0.72782  0.12346  0.64801     C
C      0.72782  0.35199  0.47545     C
C      0.72782  0.35199  0.87654     C
C      0.72782  0.47545  0.12346     C
C      0.72782  0.47545  0.35199     C
C      0.72782  0.52455  0.64801     C
C      0.72782  0.52455  0.87654     C
C      0.72782  0.64801  0.12346     C
C      0.72782  0.64801  0.52455     C
C      0.72782  0.87654  0.35199     C
C      0.72782  0.87654  0.52455     C
C      0.72894      0.0      0.5     C
C      0.72894      0.5      0.0     C
C      0.72894      0.5      0.5     C
O      0.76845      0.0  0.47616     O
O      0.76845      0.0  0.52384     O
O      0.76845  0.47616      0.0     O
O      0.76845  0.47616  0.47616     O
O      0.76845  0.52384      0.0     O
O      0.76845  0.52384  0.52384     O
H      0.77206  0.07834  0.45427     H
H      0.77206  0.07834  0.62407     H
H      0.77206  0.37593  0.45427     H
H      0.77206  0.37593  0.92166     H
H      0.77206  0.45427  0.07834     H
H      0.77206  0.45427  0.37593     H
H      0.77206  0.54573  0.62407     H
H      0.77206  0.54573  0.92166     H
H      0.77206  0.62407  0.07834     H
H      0.77206  0.62407  0.54573     H
H      0.77206  0.92166  0.37593     H
H      0.77206  0.92166  0.54573     H
C       0.7725  0.09887  0.47376     C
C       0.7725  0.09887  0.62511     C
C       0.7725  0.37489  0.47376     C
C       0.7725  0.37489  0.90113     C
C       0.7725  0.47376  0.09887     C
C       0.7725  0.47376  0.37489     C
C       0.7725  0.52624  0.62511     C
C       0.7725  0.52624  0.90113     C
C       0.7725  0.62511  0.09887     C
C       0.7725  0.62511  0.52624     C
C       0.7725  0.90113  0.37489     C
C       0.7725  0.90113  0.52624     C
C      0.77372  0.15597  0.52793     C
C      0.77372  0.15597  0.62804     C
C      0.77372  0.37196  0.52793     C
C      0.77372  0.37196  0.84403     C
C      0.77372  0.47207  0.62804     C
C      0.77372  0.47207  0.84403     C
C      0.77372  0.52793  0.15597     C
C      0.77372  0.52793  0.37196     C
C      0.77372  0.62804  0.15597     C
C      0.77372  0.62804  0.47207     C
C      0.77372  0.84403  0.37196     C
C      0.77372  0.84403  0.47207     C
H      0.77455  0.17642  0.54752     H
H      0.77455  0.17642   0.6289     H
H      0.77455   0.3711  0.54752     H
H      0.77455   0.3711  0.82358     H
H      0.77455  0.45248   0.6289     H
H      0.77455  0.45248  0.82358     H
H      0.77455  0.54752  0.17642     H
H      0.77455  0.54752   0.3711     H
H      0.77455   0.6289  0.17642     H
H      0.77455   0.6289  0.45248     H
H      0.77455  0.82358   0.3711     H
H      0.77455  0.82358  0.45248     H
C      0.81778  0.10284  0.49915     C
C      0.81778  0.10284  0.60369     C
C      0.81778  0.39631  0.49915     C
C      0.81778  0.39631  0.89716     C
C      0.81778  0.49915  0.10284     C
C      0.81778  0.49915  0.39631     C
C      0.81778  0.50085  0.60369     C
C      0.81778  0.50085  0.89716     C
C      0.81778  0.60369  0.10284     C
C      0.81778  0.60369  0.50085     C
C      0.81778  0.89716  0.39631     C
C      0.81778  0.89716  0.50085     C
C      0.81839  0.13139  0.52623     C
C      0.81839  0.13139  0.60516     C
C      0.81839  0.39484  0.52623     C
C      0.81839  0.39484  0.86861     C
C      0.81839  0.47377  0.60516     C
C      0.81839  0.47377  0.86861     C
C      0.81839  0.52623  0.13139     C
C      0.81839  0.52623  0.39484     C
C      0.81839  0.60516  0.13139     C
C      0.81839  0.60516  0.47377     C
C      0.81839  0.86861  0.39484     C
C      0.81839  0.86861  0.47377     C
H      0.85097  0.13425   0.5445     H
H      0.85097  0.13425  0.58975     H
H      0.85097  0.41025   0.5445     H
H      0.85097  0.41025  0.86575     H
H      0.85097   0.4555  0.58975     H
H      0.85097   0.4555  0.86575     H
H      0.85097   0.5445  0.13425     H
H      0.85097   0.5445  0.41025     H
H      0.85097  0.58975  0.13425     H
H      0.85097  0.58975   0.4555     H
H      0.85097  0.86575  0.41025     H
H      0.85097  0.86575   0.4555     H
O      0.85219  0.04667  0.47708     O
O      0.85219  0.04667  0.56959     O
O      0.85219  0.43041  0.47708     O
O      0.85219  0.43041  0.95333     O
O      0.85219  0.47708  0.04667     O
O      0.85219  0.47708  0.43041     O
O      0.85219  0.52292  0.56959     O
O      0.85219  0.52292  0.95333     O
O      0.85219  0.56959  0.04667     O
O      0.85219  0.56959  0.52292     O
O      0.85219  0.95333  0.43041     O
O      0.85219  0.95333  0.52292     O
C      0.86705  0.07573  0.49728     C
C      0.86705  0.07573  0.57845     C
C      0.86705  0.42155  0.49728     C
C      0.86705  0.42155  0.92427     C
C      0.86705  0.49728  0.07573     C
C      0.86705  0.49728  0.42155     C
C      0.86705  0.50272  0.57845     C
C      0.86705  0.50272  0.92427     C
C      0.86705  0.57845  0.07573     C
C      0.86705  0.57845  0.50272     C
C      0.86705  0.92427  0.42155     C
C      0.86705  0.92427  0.50272     C
O      0.89116  0.02676  0.51338     O
O      0.89116  0.48662  0.51338     O
O      0.89116  0.48662  0.97324     O
O      0.89116  0.51338  0.02676     O
O      0.89116  0.51338  0.48662     O
O      0.89116  0.97324  0.48662     O
Zr      0.8917      0.0  0.53612    Zr
Zr      0.8917  0.46388      0.0    Zr
Zr      0.8917  0.46388  0.46388    Zr
Zr      0.8917  0.53612      0.0    Zr
Zr      0.8917  0.53612  0.53612    Zr
Zr      0.8917      1.0  0.46388    Zr
O      0.92759  0.08157  0.51681     O
O      0.92759  0.08157  0.56476     O
O      0.92759  0.43524  0.51681     O
O      0.92759  0.43524  0.91843     O
O      0.92759  0.48319  0.56476     O
O      0.92759  0.48319  0.91843     O
O      0.92759  0.51681  0.08157     O
O      0.92759  0.51681  0.43524     O
O      0.92759  0.56476  0.08157     O
O      0.92759  0.56476  0.48319     O
O      0.92759  0.91843  0.43524     O
O      0.92759  0.91843  0.48319     O
O          1.0  0.03079  0.47682     O
O          1.0  0.44603  0.47682     O
O          1.0  0.44603  0.96921     O
O          1.0  0.47682  0.44603     O
Zr         1.0  0.52669  0.05338    Zr
O          1.0  0.55397  0.52318     O
Zr         1.0  0.94662  0.47331    Zr
