data_I
_chemical_name_common  '/Users/gianmarcoterrones/Downloads/CALF-25-a'
_cell_length_a 19.92007
_cell_length_b 21.47008
_cell_length_c  8.24804
_cell_angle_alpha 90.00000
_cell_angle_beta  107.60820
_cell_angle_gamma 90.00000
_space_group_name_H-M_alt      'P 1'


loop_
_space_group_symop_operation_xyz
  'x, y, z' 

loop_
_atom_site_label
_atom_site_fract_x
_atom_site_fract_y
_atom_site_fract_z
_atom_site_type_symbol
Ba         0.0 0.45660113     0.75    Ba
Ba         0.0 0.54339913     0.25    Ba
H       0.0183   0.1414    0.563     H
H       0.0183   0.8586    0.063     H
H        0.019   0.2353   0.3744     H
H        0.019   0.7647   0.8744     H
O     0.0230416 0.3593414  0.96664     O
O     0.0230416 0.6406614  0.46664     O
C      0.02707  0.22984 0.495517     C
C      0.02707  0.77024 0.995517     C
O      0.03732 0.2418818  0.96627     O
O      0.03732 0.7581218  0.46627     O
C     0.054611  0.16708   0.5443     C
C     0.054611  0.83308   0.0443     C
H       0.0621   0.2601   0.5546     H
H       0.0621   0.7399   0.0546     H
H       0.0701   0.1495   0.4544     H
H       0.0701   0.8505   0.9544     H
P     0.0726218 0.3077616  0.00184     P
P     0.0726218 0.6922416  0.50184     P
O     0.0780114 0.4694013  0.49744     O
O     0.0780114 0.5306013  0.99744     O
H       0.0791   0.3862   0.2743     H
H       0.0791   0.6138   0.7743     H
H       0.0936   0.1692   0.6464     H
H       0.0936   0.8308   0.1464     H
C      0.11532 0.3580318  0.32085     C
C      0.11532 0.6419718  0.82085     C
O      0.12332 0.3053817  0.89104     O
O      0.12332 0.6946217  0.39104     O
C      0.12542  0.30822  0.22135     C
C      0.12542  0.69182  0.72135     C
O     0.1338716 0.4127814  0.77094     O
O     0.1338716 0.5872214  0.27094     O
P     0.140545 0.433155 0.6009712     P
P     0.140545 0.566855 0.1009712     P
C      0.15762 0.3665518  0.48625     C
C      0.15762 0.6334518  0.98625     C
H       0.1631   0.2059   0.0869     H
H       0.1631   0.7941   0.5869     H
H       0.1783   0.0469   0.7188     H
H       0.1783   0.9531   0.2188     H
H       0.1784   0.4424   0.1051     H
H       0.1784   0.5576   0.6051     H
C      0.17902  0.26432  0.29175     C
C      0.17902  0.73572  0.79175     C
C      0.19112  0.21152  0.19885     C
C      0.19112  0.78852  0.69885     C
H        0.203   0.0465   0.9182     H
H        0.203   0.9535   0.4182     H
O     0.2109717 0.4708216  0.62805     O
O     0.2109717 0.5291816  0.12805     O
H       0.2116   0.4637   0.2946     H
H       0.2116   0.5363   0.7946     H
C      0.21222  0.32412  0.55995     C
C      0.21222  0.67592  0.05995     C
C      0.21427  0.06055   0.8192     C
C      0.21427  0.93955   0.3192     C
C      0.21634  0.46644  0.18111     C
C      0.21634  0.53364  0.68111     C
H       0.2169   0.1051   0.8193     H
H       0.2169   0.8949   0.3193     H
C      0.22272  0.27202  0.46315     C
C      0.22272  0.72802  0.96315     C
C      0.24212  0.16942  0.26965     C
C      0.24212  0.83062  0.76965     C
H       0.2476   0.1352   0.2057     H
H       0.2476   0.8648   0.7057     H
H       0.2524   0.3648   0.7943     H
H       0.2524   0.6352   0.2943     H
C      0.25792  0.33062  0.73045     C
C      0.25792  0.66942  0.23045     C
C      0.27732  0.22802  0.53695     C
C      0.27732  0.77202  0.03695     C
H       0.2831   0.3949   0.1807     H
H       0.2831   0.6051   0.6807     H
C      0.28374  0.03364  0.81891     C
C      0.28374  0.96644  0.31891     C
C      0.28587  0.43955   0.1812     C
C      0.28587  0.56055   0.6812     C
C      0.28782  0.17592  0.44015     C
C      0.28782  0.82412  0.94015     C
H       0.2884   0.0363   0.7054     H
H       0.2884   0.9637   0.2054     H
O     0.2890317 0.0291816  0.37205     O
O     0.2890317 0.9708216  0.87205     O
H        0.297   0.4535   0.0818     H
H        0.297   0.5465   0.5818     H
C      0.30892  0.28852  0.80125     C
C      0.30892  0.71152  0.30125     C
C      0.32102  0.23572  0.70835     C
C      0.32102  0.76432  0.20835     C
H       0.3216   0.0576   0.8949     H
H       0.3216   0.9424   0.3949     H
H       0.3217   0.4531   0.2812     H
H       0.3217   0.5469   0.7812     H
H       0.3369   0.2941   0.9131     H
H       0.3369   0.7059   0.4131     H
C      0.34242 0.1334518  0.51385     C
C      0.34242 0.8665518  0.01385     C
P     0.359465 0.066855 0.3990312     P
P     0.359465 0.933155 0.8990312     P
O     0.3661316 0.0872214  0.22914     O
O     0.3661316 0.9127814  0.72914     O
C      0.37462  0.19182  0.77875     C
C      0.37462  0.80822  0.27875     C
O      0.37672 0.1946217  0.10904     O
O      0.37672 0.8053817  0.60904     O
C      0.38472 0.1419718  0.67925     C
C      0.38472 0.8580318  0.17925     C
H       0.4064   0.3308   0.3536     H
H       0.4064   0.6692   0.8536     H
H       0.4209   0.1138   0.7257     H
H       0.4209   0.8862   0.2257     H
O     0.4219914 0.0306013  0.50264     O
O     0.4219914 0.9694013  0.00264     O
P     0.4273818 0.1922416  0.99824     P
P     0.4273818 0.8077616  0.49824     P
H       0.4299   0.3505   0.5456     H
H       0.4299   0.6495   0.0456     H
H       0.4379   0.2399   0.4454     H
H       0.4379   0.7601   0.9454     H
C     0.445411  0.33308   0.4563     C
C     0.445411  0.66708   0.9563     C
O      0.46272 0.2581218  0.03387     O
O      0.46272 0.7418818  0.53387     O
C      0.47307  0.27024 0.504517     C
C      0.47307  0.72984 0.004517     C
O     0.4769616 0.1406614  0.03344     O
O     0.4769616 0.8593414  0.53344     O
H        0.481   0.2647   0.6256     H
H        0.481   0.7353   0.1256     H
H       0.4817   0.3586    0.437     H
H       0.4817   0.6414    0.937     H
Ba         0.5 0.04339913     0.25    Ba
Ba         0.5 0.95660113     0.75    Ba
H       0.5183   0.3586    0.063     H
H       0.5183   0.6414    0.563     H
H        0.519   0.2647   0.8744     H
H        0.519   0.7353   0.3744     H
O     0.5230416 0.1406614  0.46664     O
O     0.5230416 0.8593414  0.96664     O
C      0.52707  0.27024 0.995517     C
C      0.52707  0.72984 0.495517     C
O      0.53732 0.2581218  0.46627     O
O      0.53732 0.7418818  0.96627     O
C     0.554611  0.33308   0.0443     C
C     0.554611  0.66708   0.5443     C
H       0.5621   0.2399   0.0546     H
H       0.5621   0.7601   0.5546     H
H       0.5701   0.3505   0.9544     H
H       0.5701   0.6495   0.4544     H
P     0.5726218 0.1922416  0.50184     P
P     0.5726218 0.8077616  0.00184     P
O     0.5780114 0.0306013  0.99744     O
O     0.5780114 0.9694013  0.49744     O
H       0.5791   0.1138   0.7743     H
H       0.5791   0.8862   0.2743     H
H       0.5936   0.3308   0.1464     H
H       0.5936   0.6692   0.6464     H
C      0.61532 0.1419718  0.82085     C
C      0.61532 0.8580318  0.32085     C
O      0.62332 0.1946217  0.39104     O
O      0.62332 0.8053817  0.89104     O
C      0.62542  0.19182  0.72135     C
C      0.62542  0.80822  0.22135     C
O     0.6338716 0.0872214  0.27094     O
O     0.6338716 0.9127814  0.77094     O
P     0.640545 0.066855 0.1009712     P
P     0.640545 0.933155 0.6009712     P
C      0.65762 0.1334518  0.98625     C
C      0.65762 0.8665518  0.48625     C
H       0.6631   0.2941   0.5869     H
H       0.6631   0.7059   0.0869     H
H       0.6783   0.4531   0.2188     H
H       0.6783   0.5469   0.7188     H
H       0.6784   0.0576   0.6051     H
H       0.6784   0.9424   0.1051     H
C      0.67902  0.23572  0.79175     C
C      0.67902  0.76432  0.29175     C
C      0.69112  0.28852  0.69885     C
C      0.69112  0.71152  0.19885     C
H        0.703   0.4535   0.4182     H
H        0.703   0.5465   0.9182     H
O     0.7109717 0.0291816  0.12805     O
O     0.7109717 0.9708216  0.62805     O
H       0.7116   0.0363   0.7946     H
H       0.7116   0.9637   0.2946     H
C      0.71222  0.17592  0.05995     C
C      0.71222  0.82412  0.55995     C
C      0.71427  0.43955   0.3192     C
C      0.71427  0.56055   0.8192     C
C      0.71634  0.03364  0.68111     C
C      0.71634  0.96644  0.18111     C
H       0.7169   0.3949   0.3193     H
H       0.7169   0.6051   0.8193     H
C      0.72272  0.22802  0.96315     C
C      0.72272  0.77202  0.46315     C
C      0.74212  0.33062  0.76965     C
C      0.74212  0.66942  0.26965     C
H       0.7476   0.3648   0.7057     H
H       0.7476   0.6352   0.2057     H
H       0.7524   0.1352   0.2943     H
H       0.7524   0.8648   0.7943     H
C      0.75792  0.16942  0.23045     C
C      0.75792  0.83062  0.73045     C
C      0.77732  0.27202  0.03695     C
C      0.77732  0.72802  0.53695     C
H       0.7831   0.1051   0.6807     H
H       0.7831   0.8949   0.1807     H
C      0.78374  0.46644  0.31891     C
C      0.78374  0.53364  0.81891     C
C      0.78587  0.06055   0.6812     C
C      0.78587  0.93955   0.1812     C
C      0.78782  0.32412  0.94015     C
C      0.78782  0.67592  0.44015     C
H       0.7884   0.4637   0.2054     H
H       0.7884   0.5363   0.7054     H
O     0.7890317 0.4708216  0.87205     O
O     0.7890317 0.5291816  0.37205     O
H        0.797   0.0465   0.5818     H
H        0.797   0.9535   0.0818     H
C      0.80892  0.21152  0.30125     C
C      0.80892  0.78852  0.80125     C
C      0.82102  0.26432  0.20835     C
C      0.82102  0.73572  0.70835     C
H       0.8216   0.4424   0.3949     H
H       0.8216   0.5576   0.8949     H
H       0.8217   0.0469   0.7812     H
H       0.8217   0.9531   0.2812     H
H       0.8369   0.2059   0.4131     H
H       0.8369   0.7941   0.9131     H
C      0.84242 0.3665518  0.01385     C
C      0.84242 0.6334518  0.51385     C
P     0.859465 0.433155 0.8990312     P
P     0.859465 0.566855 0.3990312     P
O     0.8661316 0.4127814  0.72914     O
O     0.8661316 0.5872214  0.22914     O
C      0.87462  0.30822  0.27875     C
C      0.87462  0.69182  0.77875     C
O      0.87672 0.3053817  0.60904     O
O      0.87672 0.6946217  0.10904     O
C      0.88472 0.3580318  0.17925     C
C      0.88472 0.6419718  0.67925     C
H       0.9064   0.1692   0.8536     H
H       0.9064   0.8308   0.3536     H
H       0.9209   0.3862   0.2257     H
H       0.9209   0.6138   0.7257     H
O     0.9219914 0.4694013  0.00264     O
O     0.9219914 0.5306013  0.50264     O
P     0.9273818 0.3077616  0.49824     P
P     0.9273818 0.6922416  0.99824     P
H       0.9299   0.1495   0.0456     H
H       0.9299   0.8505   0.5456     H
H       0.9379   0.2601   0.9454     H
H       0.9379   0.7399   0.4454     H
C     0.945411  0.16708   0.9563     C
C     0.945411  0.83308   0.4563     C
O      0.96272 0.2418818  0.53387     O
O      0.96272 0.7581218  0.03387     O
C      0.97307  0.22984 0.004517     C
C      0.97307  0.77024 0.504517     C
O     0.9769616 0.3593414  0.53344     O
O     0.9769616 0.6406614  0.03344     O
H        0.981   0.2353   0.1256     H
H        0.981   0.7647   0.6256     H
H       0.9817   0.1414    0.937     H
H       0.9817   0.8586    0.437     H
