data_I
_chemical_name_common  '/Users/gianmarcoterrones/Downloads/CAU-10-H'
_cell_length_a 21.55700
_cell_length_b 21.55700
_cell_length_c 10.38400
_cell_angle_alpha 90.00000
_cell_angle_beta  90.00000
_cell_angle_gamma 90.00000
_space_group_name_H-M_alt      'P 1'


loop_
_space_group_symop_operation_xyz
  'x, y, z' 

loop_
_atom_site_label
_atom_site_fract_x
_atom_site_fract_y
_atom_site_fract_z
_atom_site_type_symbol
H     0.000846 0.652174 0.698094     H
C       0.0023   0.2173   0.8843     C
C       0.0033   0.6582   0.5944     C
H     0.005245 0.234032 0.982351     H
C     0.007118   0.7072   0.3413     C
H     0.012588 0.729974 0.247914     H
C     0.014115   0.8274   0.6274     C
H     0.016187 0.842349  0.52685     H
C     0.045013   0.1834   0.6844     C
C      0.05151   0.2033   0.8103     C
C     0.052011   0.3022   0.4003     C
C     0.052613   0.3323   0.5253     C
C      0.05641   0.7933   0.8173     C
C     0.056511 0.685216   0.4113     C
C     0.060913   0.6552   0.5323     C
C      0.06811   0.8184   0.6923     C
H     0.086511 0.174759 0.626478     H
H     0.096567 0.347239 0.566012     H
H     0.102408 0.632666 0.569968     H
O       0.1102   0.2652   0.2423     O
C     0.112111 0.702916   0.3303     C
O       0.1123   0.7552   0.9813     O
C      0.11361 0.204818   0.8793     C
H     0.113979 0.829366  0.65423     H
C     0.116613   0.2933   0.3524     C
O       0.1172   0.7393   0.2333     O
C       0.1173 0.794913   0.8874     C
O       0.1262   0.2413   0.9743     O
H     0.132666 0.897592 0.319968     H
H     0.152174 0.999154 0.448094     H
H     0.152761 0.096567 0.316012     H
C       0.1552 0.939113   0.2823     C
O     0.157513   0.6803   0.3836     O
H     0.157651 0.516187  0.77685     H
C       0.1582   0.9973   0.3444     C
O     0.158813   0.1943   0.8095     O
O     0.164311   0.3193   0.3915     O
C       0.1683 0.052613   0.2753     C
O     0.169111   0.8152   0.8484     O
H     0.170634 0.613979  0.90423     H
C       0.1734 0.514115   0.8774     C
H     0.174759 0.413489 0.876478     H
O       0.1803 0.842513   0.1336     O
O       0.1813 0.164311   0.1415     O
Al    0.181711  0.25441   0.1222    Al
C       0.1824  0.56811   0.9423     C
Al    0.182613 0.753013   0.1023    Al
C       0.1834 0.455013   0.9344     C
O       0.1852 0.669111   0.0984     O
C     0.185216 0.943511   0.1613     C
O       0.1943 0.341213   0.0595     O
C       0.1982 0.052011   0.1503     C
C     0.202916 0.887911   0.0803     C
C       0.2033  0.44851   0.0603     C
C     0.204818  0.38641   0.1293     C
C     0.205113   0.6173   0.1374     C
C       0.2072 0.992918   0.0913     C
C       0.2073 0.116613   0.1024     C
C       0.2073  0.55641   0.0673     C
C       0.2173   0.4983   0.1343     C
H     0.229974 0.987412 0.997914     H
O       0.2303   0.2452   0.9814     O
H     0.234032 0.494755 0.232351     H
O       0.2352   0.1102   0.9923     O
O       0.2393   0.8832   0.9833     O
O       0.2413   0.3742   0.2243     O
O       0.2452   0.2703   0.2314     O
O       0.2452   0.6123   0.2313     O
Al     0.24561 0.181711   0.8722    Al
O       0.2463   0.7503   0.2196     O
Al    0.247013 0.682613   0.3523    Al
O       0.2503   0.7453   0.4696     O
O       0.2503   0.7543   0.9696     O
Al    0.253013 0.817413   0.8523    Al
O       0.2543   0.7503   0.7196     O
Al     0.25441 0.318311   0.3722    Al
O       0.2552   0.2303   0.7314     O
O       0.2552   0.8883   0.7313     O
O       0.2593   0.1262   0.7243     O
O       0.2613   0.6172   0.4833     O
O       0.2652   0.3902   0.4923     O
H     0.265968 0.005245 0.732351     H
H     0.270026 0.512588 0.497914     H
O       0.2703   0.2552   0.4814     O
C       0.2833   0.0023   0.6343     C
C       0.2932 0.507118   0.5913     C
C       0.2933 0.383413   0.6024     C
C       0.2933  0.94361   0.5673     C
C     0.294913   0.8833   0.6374     C
C     0.295218  0.11361   0.6293     C
C     0.297116 0.612111   0.5803     C
C       0.2973  0.05151   0.5603     C
C       0.3022 0.448011   0.6503     C
O       0.3063 0.158813   0.5595     O
C     0.314816 0.556511   0.6613     C
O       0.3152 0.830911   0.5984     O
C       0.3174 0.045013   0.4344     C
Al    0.317413 0.747013   0.6023    Al
Al    0.318311  0.24561   0.6222    Al
C       0.3184  0.93191   0.4423     C
O       0.3193 0.335711   0.6415     O
O       0.3203 0.657513   0.6336     O
H     0.325241 0.086511 0.376478     H
C       0.3274 0.985915   0.3774     C
H     0.329366 0.886021  0.40423     H
O     0.330911   0.6852   0.3484     O
C       0.3323 0.447413   0.7753     C
O     0.335711   0.1813   0.8915     O
O     0.341213   0.3063   0.3095     O
C       0.3422   0.5033   0.8444     C
H     0.342349 0.983813  0.27685     H
O     0.342513   0.8203   0.8836     O
C       0.3452 0.560913   0.7823     C
H     0.347239 0.403433 0.816012     H
H     0.347826 0.500846 0.948094     H
H     0.367334 0.602408 0.819968     H
O       0.3742   0.2593   0.4743     O
O       0.3832   0.7613   0.7333     O
C       0.3833 0.705113   0.3874     C
C     0.383413   0.2073   0.8524     C
H     0.386021 0.670634  0.15423     H
C      0.38641 0.295218   0.3793     C
C     0.387911 0.797116   0.8303     C
O       0.3883   0.7452   0.4813     O
O       0.3902   0.2352   0.7423     O
H     0.397592 0.867334 0.069968     H
H     0.403433 0.152761 0.066012     H
H     0.413489 0.325241 0.126478     H
C      0.43191   0.6824   0.1923     C
C     0.439113   0.8452   0.0323     C
C     0.443511 0.814816   0.9113     C
C      0.44361   0.7073   0.3173     C
C     0.447413   0.1683   0.0253     C
C     0.448011   0.1982   0.9003     C
C      0.44851   0.2973   0.3103     C
C     0.455013   0.3174   0.1844     C
H     0.483813 0.657651  0.02685     H
C     0.485915   0.6734   0.1274     C
H     0.487412 0.770026 0.747914     H
C     0.492918   0.7932   0.8413     C
H     0.494755 0.265968 0.482351     H
C       0.4973   0.8422   0.0944     C
C       0.4983   0.2833   0.3843     C
H     0.499154 0.847826 0.198094     H
H     0.500846 0.152174 0.198094     H
C       0.5023   0.7173   0.3843     C
C       0.5033   0.1582   0.0944     C
H     0.505245 0.734032 0.482351     H
C     0.507118   0.2072   0.8413     C
H     0.512588 0.229974 0.747914     H
C     0.514115   0.3274   0.1274     C
H     0.516187 0.342349  0.02685     H
C     0.545013   0.6834   0.1844     C
C      0.55151   0.7033   0.3103     C
C     0.552011   0.8022   0.9003     C
C     0.552613   0.8323   0.0253     C
C      0.55641   0.2933   0.3173     C
C     0.556511 0.185216   0.9113     C
C     0.560913   0.1552   0.0323     C
C      0.56811   0.3184   0.1923     C
H     0.586511 0.674759 0.126478     H
H     0.596567 0.847239 0.066012     H
H     0.602408 0.132666 0.069968     H
O       0.6102   0.7652   0.7423     O
C     0.612111 0.202916   0.8303     C
O       0.6123   0.2552   0.4813     O
C      0.61361 0.704818   0.3793     C
H     0.613979 0.329366  0.15423     H
C     0.616613   0.7933   0.8524     C
O       0.6172   0.2393   0.7333     O
C       0.6173 0.294913   0.3874     C
O       0.6262   0.7413   0.4743     O
H     0.632666 0.397592 0.819968     H
H     0.652174 0.499154 0.948094     H
H     0.652761 0.596567 0.816012     H
C       0.6552 0.439113   0.7823     C
O     0.657513   0.1803   0.8836     O
H     0.657651 0.016187  0.27685     H
C       0.6582   0.4973   0.8444     C
O     0.658813   0.6943   0.3095     O
O     0.664311   0.8193   0.8915     O
C       0.6683 0.552613   0.7753     C
O     0.669111   0.3152   0.3484     O
H     0.670634 0.113979  0.40423     H
C       0.6734 0.014115   0.3774     C
H     0.674759 0.913489 0.376478     H
O       0.6803 0.342513   0.6336     O
O       0.6813 0.664311   0.6415     O
Al    0.681711  0.75441   0.6222    Al
C       0.6824  0.06811   0.4423     C
Al    0.682613 0.253013   0.6023    Al
C       0.6834 0.955013   0.4344     C
O       0.6852 0.169111   0.5984     O
C     0.685216 0.443511   0.6613     C
O       0.6943 0.841213   0.5595     O
C       0.6982 0.552011   0.6503     C
C     0.702916 0.387911   0.5803     C
C       0.7033  0.94851   0.5603     C
C     0.704818  0.88641   0.6293     C
C     0.705113   0.1173   0.6374     C
C       0.7072 0.492918   0.5913     C
C       0.7073  0.05641   0.5673     C
C       0.7073 0.616613   0.6024     C
C       0.7173   0.9983   0.6343     C
H     0.729974 0.487412 0.497914     H
O       0.7303   0.7452   0.4814     O
H     0.734032 0.994755 0.732351     H
O       0.7352   0.6102   0.4923     O
O       0.7393   0.3832   0.4833     O
O       0.7413   0.8742   0.7243     O
O       0.7452   0.1123   0.7313     O
O       0.7452   0.7703   0.7314     O
O       0.7453   0.2503   0.7196     O
Al     0.74561 0.681711   0.3722    Al
Al    0.747013 0.182613   0.8523    Al
O       0.7503   0.2463   0.9696     O
O       0.7503   0.2543   0.4696     O
Al    0.753013 0.317413   0.3523    Al
O       0.7543   0.2503   0.2196     O
Al     0.75441 0.818311   0.8722    Al
O       0.7552   0.3883   0.2313     O
O       0.7552   0.7303   0.2314     O
O       0.7593   0.6262   0.2243     O
O       0.7613   0.1172   0.9833     O
O       0.7652   0.8902   0.9923     O
H     0.765968 0.505245 0.232351     H
H     0.770026 0.012588 0.997914     H
O       0.7703   0.7552   0.9814     O
C       0.7833   0.5023   0.1343     C
C       0.7932 0.007118   0.0913     C
C       0.7933  0.44361   0.0673     C
C       0.7933 0.883413   0.1024     C
C     0.794913   0.3833   0.1374     C
C     0.795218  0.61361   0.1293     C
C     0.797116 0.112111   0.0803     C
C       0.7973  0.55151   0.0603     C
C       0.8022 0.948011   0.1503     C
O       0.8063 0.658813   0.0595     O
C     0.814816 0.056511   0.1613     C
O       0.8152 0.330911   0.0984     O
C       0.8174 0.545013   0.9344     C
Al    0.817413 0.247013   0.1023    Al
Al    0.818311  0.74561   0.1222    Al
C       0.8184  0.43191   0.9423     C
O       0.8193 0.835711   0.1415     O
O       0.8203 0.157513   0.1336     O
H     0.825241 0.586511 0.876478     H
C       0.8274 0.485915   0.8774     C
H     0.829366 0.386021  0.90423     H
O     0.830911   0.1852   0.8484     O
C       0.8323 0.947413   0.2753     C
O     0.835711   0.6813   0.3915     O
O     0.841213   0.8063   0.8095     O
C       0.8422   0.0033   0.3444     C
H     0.842349 0.483813  0.77685     H
O     0.842513   0.3203   0.3836     O
C       0.8452 0.060913   0.2823     C
H     0.847239 0.903433 0.316012     H
H     0.847826 0.000846 0.448094     H
H     0.867334 0.102408 0.319968     H
O       0.8742   0.7593   0.9743     O
O       0.8832   0.2613   0.2333     O
C       0.8833 0.205113   0.8874     C
C     0.883413   0.7073   0.3524     C
H     0.886021 0.170634  0.65423     H
C      0.88641 0.795218   0.8793     C
C     0.887911 0.297116   0.3303     C
O       0.8883   0.2452   0.9813     O
O       0.8902   0.7352   0.2423     O
H     0.897592 0.367334 0.569968     H
H     0.903433 0.652761 0.566012     H
H     0.913489 0.825241 0.626478     H
C      0.93191   0.1824   0.6923     C
C     0.939113   0.3452   0.5323     C
C     0.943511 0.314816   0.4113     C
C      0.94361   0.2073   0.8173     C
C     0.947413   0.6683   0.5253     C
C     0.948011   0.6982   0.4003     C
C      0.94851   0.7973   0.8103     C
C     0.955013   0.8174   0.6844     C
H     0.983813 0.157651  0.52685     H
C     0.985915   0.1734   0.6274     C
H     0.987412 0.270026 0.247914     H
C     0.992918   0.2932   0.3413     C
H     0.994755 0.765968 0.982351     H
C       0.9973   0.3422   0.5944     C
C       0.9983   0.7833   0.8843     C
H     0.999154 0.347826 0.698094     H
