data_I
_chemical_name_common  '/Users/gianmarcoterrones/Downloads/CAU-10-CH3'
_cell_length_a 21.49177
_cell_length_b 21.49177
_cell_length_c 10.18105
_cell_angle_alpha 90.00000
_cell_angle_beta  90.00000
_cell_angle_gamma 90.00000
_space_group_name_H-M_alt      'P 1'


loop_
_space_group_symop_operation_xyz
  'x, y, z' 

loop_
_atom_site_label
_atom_site_fract_x
_atom_site_fract_y
_atom_site_fract_z
_atom_site_type_symbol
H          0.0 0.010121 0.356493     H
C          0.0  0.03667 0.265313     C
C          0.0  0.08735  0.00699     C
C          0.0  0.11477  0.86868     C
C          0.0  0.38537  0.86868     C
C          0.0  0.41275  0.00699     C
C          0.0  0.46347 0.265313     C
H          0.0 0.489879 0.356493     H
H          0.0 0.510121 0.643507     H
C          0.0  0.53667 0.734713     C
C          0.0  0.58735  0.99319     C
C          0.0  0.61477  0.13148     C
C          0.0  0.88537  0.13148     C
C          0.0  0.91275  0.99319     C
C          0.0  0.96347 0.734713     C
H          0.0 0.989879 0.643507     H
H     0.019536 0.338523 0.871167     H
H     0.019536 0.661477 0.128833     H
H     0.019536 0.838523 0.128833     H
H     0.027987 0.414467 0.804153     H
H     0.027987 0.585533 0.195847     H
H     0.027987 0.914467 0.195847     H
H     0.047523 0.116753 0.831702     H
C      0.05444  0.05495  0.20201     C
C      0.05444  0.44515  0.20201     C
C      0.05444  0.55495  0.79801     C
C      0.05444  0.94515  0.79801     C
C      0.05604  0.07945  0.07879     C
C      0.05604  0.42065  0.07879     C
C      0.05604  0.57945  0.92139     C
C      0.05604  0.92065  0.92139     C
H     0.088523 0.269536 0.878833     H
H     0.088523 0.730464 0.121167     H
H     0.100249 0.092789 0.035094     H
H     0.100249 0.407211 0.035094     H
H     0.100249 0.592789 0.964906     H
H     0.100249 0.907211 0.964906     H
C      0.11304  0.04607 0.272813     C
C      0.11304  0.45407 0.272813     C
C      0.11304  0.54607 0.727213     C
C      0.11304  0.95407 0.727213     C
O      0.11854  0.01134  0.36818     O
O      0.11854  0.48874  0.36818     O
O      0.11854  0.51134  0.63198     O
O      0.11854  0.98873  0.63198     O
H     0.133247 0.202477 0.918298     H
H     0.133247 0.797523 0.081702     H
C      0.13537     0.25  0.88148     C
C      0.13537     0.75  0.11868     C
H     0.157211 0.149751 0.714906     H
H     0.157211 0.350249 0.714906     H
H     0.157211 0.649751 0.285094     H
H     0.157211 0.850249 0.285094     H
C      0.16275     0.25  0.74319     C
C      0.16275     0.75  0.25699     C
O      0.16344  0.06904  0.21587     O
O      0.16344  0.43104  0.21587     O
O      0.16344  0.56904  0.78427     O
O      0.16344  0.93104  0.78427     O
H     0.164467 0.277987 0.945847     H
H     0.164467 0.722013 0.054153     H
C      0.17065  0.19404  0.67139     C
C      0.17065  0.30604  0.67139     C
C      0.17065  0.69404  0.32879     C
C      0.17065  0.80604  0.32879     C
O      0.18104  0.08664  0.53427     O
O      0.18104  0.41344  0.53427     O
O      0.18104  0.58664  0.46587     O
O      0.18104  0.91344  0.46587     O
Al     0.18343      0.0      0.5    Al
Al     0.18344      0.5      0.5    Al
Al     0.18354      0.0      0.5    Al
Al     0.18354      0.5      0.5    Al
C      0.19515  0.19564  0.54801     C
C      0.19515  0.30444  0.54801     C
C      0.19515  0.69564  0.45201     C
C      0.19515  0.80444  0.45201     C
C      0.20407  0.13704 0.477213     C
C      0.20407  0.36304 0.477213     C
C      0.20407  0.63704 0.522813     C
C      0.20407  0.86304 0.522813     C
C      0.21347     0.25 0.484713     C
C      0.21347     0.75 0.515313     C
O      0.23874  0.13154  0.38198     O
O      0.23874  0.36854  0.38198     O
O      0.23874  0.63154  0.61818     O
O      0.23874  0.86854  0.61818     O
H     0.239879     0.25 0.393507     H
H     0.239879     0.75 0.606493     H
O      0.24004  0.01004    0.375     O
O      0.24004  0.49004    0.375     O
O      0.24004  0.51004    0.625     O
O      0.24004  0.99004    0.625     O
Al        0.25  0.06654     0.25    Al
Al        0.25  0.06664     0.25    Al
Al        0.25  0.43344     0.25    Al
Al        0.25  0.43354     0.25    Al
Al        0.25  0.56663     0.75    Al
Al        0.25  0.93343     0.75    Al
O      0.26004  0.01004    0.125     O
O      0.26004  0.49004    0.125     O
O      0.26004  0.51004    0.875     O
O      0.26004  0.99004    0.875     O
H     0.260121     0.25 0.106493     H
H     0.260121     0.75 0.893507     H
O      0.26133  0.63154  0.88198     O
O      0.26133  0.86854  0.88198     O
O      0.26134  0.13154  0.11818     O
O      0.26134  0.36854  0.11818     O
C      0.28667     0.25 0.015313     C
C      0.28667     0.75 0.984713     C
C      0.29607  0.13704 0.022813     C
C      0.29607  0.36304 0.022813     C
C      0.29607  0.63704 0.977213     C
C      0.29607  0.86304 0.977213     C
C      0.30495  0.19564  0.95201     C
C      0.30495  0.30444  0.95201     C
C      0.30495  0.69564  0.04801     C
C      0.30495  0.80444  0.04801     C
Al     0.31654      0.0      0.0    Al
Al     0.31654      0.5      0.0    Al
Al     0.31663      0.0      0.0    Al
Al     0.31663      0.5      0.0    Al
O      0.31904  0.08664  0.96587     O
O      0.31904  0.41344  0.96587     O
O      0.31904  0.58664  0.03427     O
O      0.31904  0.91344  0.03427     O
C      0.32945  0.19404  0.82879     C
C      0.32945  0.30604  0.82879     C
C      0.32945  0.69404  0.17139     C
C      0.32945  0.80604  0.17139     C
H     0.335533 0.277987 0.554153     H
H     0.335533 0.722013 0.445847     H
O      0.33664  0.06904  0.28427     O
O      0.33664  0.43104  0.28427     O
O      0.33664  0.56904  0.71587     O
O      0.33664  0.93104  0.71587     O
C      0.33735     0.25  0.75699     C
C      0.33735     0.75  0.24319     C
H     0.342789 0.149751 0.785094     H
H     0.342789 0.350249 0.785094     H
H     0.342789 0.649751 0.214906     H
H     0.342789 0.850249 0.214906     H
C      0.36477     0.25  0.61868     C
C      0.36477     0.75  0.38148     C
H     0.366753 0.202477 0.581702     H
H     0.366753 0.797523 0.418298     H
O      0.38154  0.01134  0.13198     O
O      0.38154  0.48874  0.13198     O
O      0.38154  0.51133  0.86818     O
O      0.38154  0.98873  0.86818     O
C      0.38704  0.04607 0.227213     C
C      0.38704  0.45407 0.227213     C
C      0.38704  0.54607 0.772813     C
C      0.38704  0.95407 0.772813     C
H     0.399751 0.092789 0.464906     H
H     0.399751 0.407211 0.464906     H
H     0.399751 0.592789 0.535094     H
H     0.399751 0.907211 0.535094     H
H     0.411477 0.269536 0.621167     H
H     0.411477 0.730464 0.378833     H
C      0.44404  0.07945  0.42139     C
C      0.44404  0.42065  0.42139     C
C      0.44404  0.57945  0.57879     C
C      0.44404  0.92065  0.57879     C
C      0.44564  0.05495  0.29801     C
C      0.44564  0.44515  0.29801     C
C      0.44564  0.55495  0.70201     C
C      0.44564  0.94515  0.70201     C
H     0.452477 0.116753 0.668298     H
H     0.472013 0.414467 0.695847     H
H     0.472013 0.585533 0.304153     H
H     0.472013 0.914467 0.304153     H
H     0.480464 0.338523 0.628833     H
H     0.480464 0.661477 0.371167     H
H     0.480464 0.838523 0.371167     H
H          0.5 0.010121 0.143507     H
C          0.5  0.03667 0.234713     C
C          0.5  0.08735  0.49319     C
C          0.5  0.11477  0.63148     C
C          0.5  0.38537  0.63148     C
C          0.5  0.41275  0.49319     C
C          0.5  0.46347 0.234713     C
H          0.5 0.489879 0.143507     H
H          0.5 0.510121 0.856493     H
C          0.5  0.53667 0.765313     C
C          0.5  0.58735  0.50699     C
C          0.5  0.61477  0.36868     C
C          0.5  0.88537  0.36868     C
C          0.5  0.91275  0.50699     C
C          0.5  0.96347 0.765313     C
H          0.5 0.989879 0.856493     H
H     0.519536 0.161477 0.628833     H
H     0.527987 0.085533 0.695847     H
H     0.547523 0.383247 0.668298     H
H     0.547523 0.616753 0.331702     H
H     0.547523 0.883247 0.331702     H
C      0.55444  0.05495  0.29801     C
C      0.55444  0.44515  0.29801     C
C      0.55444  0.55495  0.70201     C
C      0.55444  0.94515  0.70201     C
C      0.55604  0.07945  0.42139     C
C      0.55604  0.42065  0.42139     C
C      0.55604  0.57945  0.57879     C
C      0.55604  0.92065  0.57879     C
H     0.588523 0.269536 0.621167     H
H     0.588523 0.769536 0.378833     H
H     0.600249 0.092789 0.464906     H
H     0.600249 0.407211 0.464906     H
H     0.600249 0.592789 0.535094     H
H     0.600249 0.907211 0.535094     H
C      0.61304  0.04607 0.227213     C
C      0.61304  0.45407 0.227213     C
C      0.61304  0.54607 0.772813     C
C      0.61304  0.95407 0.772813     C
O      0.61854  0.01134  0.13198     O
O      0.61854  0.48874  0.13198     O
O      0.61854  0.51133  0.86818     O
O      0.61854  0.98873  0.86818     O
H     0.633247 0.202477 0.581702     H
H     0.633247 0.702477 0.418298     H
C      0.63537     0.25  0.61868     C
C      0.63537     0.75  0.38148     C
H     0.657211 0.149751 0.785094     H
H     0.657211 0.350249 0.785094     H
H     0.657211 0.649751 0.214906     H
H     0.657211 0.850249 0.214906     H
C      0.66275     0.25  0.75699     C
C      0.66275     0.75  0.24319     C
O      0.66344  0.06904  0.28427     O
O      0.66344  0.43104  0.28427     O
O      0.66344  0.56904  0.71587     O
O      0.66344  0.93104  0.71587     O
H     0.664467 0.277987 0.554153     H
H     0.664467 0.777987 0.445847     H
C      0.67065  0.19404  0.82879     C
C      0.67065  0.30604  0.82879     C
C      0.67065  0.69404  0.17139     C
C      0.67065  0.80604  0.17139     C
O      0.68104  0.08664  0.96587     O
O      0.68104  0.41344  0.96587     O
O      0.68104  0.58664  0.03427     O
O      0.68104  0.91344  0.03427     O
Al     0.68343      0.0      0.0    Al
Al     0.68343      0.5      0.0    Al
C      0.69515  0.19564  0.95201     C
C      0.69515  0.30444  0.95201     C
C      0.69515  0.69564  0.04801     C
C      0.69515  0.80444  0.04801     C
C      0.70407  0.13704 0.022813     C
C      0.70407  0.36304 0.022813     C
C      0.70407  0.63704 0.977213     C
C      0.70407  0.86304 0.977213     C
C      0.71347     0.25 0.015313     C
C      0.71347     0.75 0.984713     C
O      0.73873  0.63154  0.88198     O
O      0.73873  0.86854  0.88198     O
O      0.73874  0.13154  0.11818     O
O      0.73874  0.36854  0.11818     O
H     0.739879     0.25 0.106493     H
H     0.739879     0.75 0.893507     H
O      0.74004  0.01004    0.125     O
O      0.74004  0.49004    0.125     O
O      0.74004  0.51004    0.875     O
O      0.74004  0.99004    0.875     O
Al        0.75  0.06654     0.25    Al
Al        0.75  0.06663     0.25    Al
Al        0.75  0.43343     0.25    Al
Al        0.75  0.43354     0.25    Al
Al        0.75  0.56663     0.75    Al
Al        0.75  0.93343     0.75    Al
O      0.76004  0.01004    0.375     O
O      0.76004  0.49004    0.375     O
O      0.76004  0.51004    0.625     O
O      0.76004  0.99004    0.625     O
H     0.760121     0.25 0.393507     H
H     0.760121     0.75 0.606493     H
O      0.76134  0.13154  0.38198     O
O      0.76134  0.36854  0.38198     O
O      0.76134  0.63154  0.61818     O
O      0.76134  0.86854  0.61818     O
C      0.78667     0.25 0.484713     C
C      0.78667     0.75 0.515313     C
C      0.79607  0.13704 0.477213     C
C      0.79607  0.36304 0.477213     C
C      0.79607  0.63704 0.522813     C
C      0.79607  0.86304 0.522813     C
C      0.80495  0.19564  0.54801     C
C      0.80495  0.30444  0.54801     C
C      0.80495  0.69564  0.45201     C
C      0.80495  0.80444  0.45201     C
Al     0.81663      0.0      0.5    Al
Al     0.81663      0.5      0.5    Al
O      0.81904  0.08664  0.53427     O
O      0.81904  0.41344  0.53427     O
O      0.81904  0.58664  0.46587     O
O      0.81904  0.91344  0.46587     O
C      0.82945  0.19404  0.67139     C
C      0.82945  0.30604  0.67139     C
C      0.82945  0.69404  0.32879     C
C      0.82945  0.80604  0.32879     C
H     0.835533 0.277987 0.945847     H
H     0.835533 0.722013 0.054153     H
O      0.83664  0.06904  0.21587     O
O      0.83664  0.43104  0.21587     O
O      0.83664  0.56904  0.78427     O
O      0.83664  0.93104  0.78427     O
C      0.83735     0.25  0.74319     C
C      0.83735     0.75  0.25699     C
H     0.842789 0.149751 0.714906     H
H     0.842789 0.350249 0.714906     H
H     0.842789 0.649751 0.285094     H
H     0.842789 0.850249 0.285094     H
C      0.86477     0.25  0.88148     C
C      0.86477     0.75  0.11868     C
H     0.866753 0.202477 0.918298     H
H     0.866753 0.797523 0.081702     H
O      0.88154  0.01133  0.36818     O
O      0.88154  0.48873  0.36818     O
O      0.88154  0.51133  0.63198     O
O      0.88154  0.98873  0.63198     O
C      0.88704  0.04607 0.272813     C
C      0.88704  0.45407 0.272813     C
C      0.88704  0.54607 0.727213     C
C      0.88704  0.95407 0.727213     C
H     0.899751 0.092789 0.035094     H
H     0.899751 0.407211 0.035094     H
H     0.899751 0.592789 0.964906     H
H     0.899751 0.907211 0.964906     H
H     0.911477 0.269536 0.878833     H
H     0.911477 0.730464 0.121167     H
C      0.94404  0.07945  0.07879     C
C      0.94404  0.42065  0.07879     C
C      0.94404  0.57945  0.92139     C
C      0.94404  0.92065  0.92139     C
C      0.94564  0.05495  0.20201     C
C      0.94564  0.44515  0.20201     C
C      0.94564  0.55495  0.79801     C
C      0.94564  0.94515  0.79801     C
H     0.952477 0.383247 0.831702     H
H     0.952477 0.616753 0.168298     H
H     0.952477 0.883247 0.168298     H
H     0.972013 0.085533 0.804153     H
H     0.980464 0.161477 0.871167     H
