data_I
_chemical_name_common  '/Users/gianmarcoterrones/Downloads/Cd2(L2)2(Br)2(H2O)3'
_cell_length_a  9.46281
_cell_length_b 15.19020
_cell_length_c 10.03191
_cell_angle_alpha 90.00000
_cell_angle_beta  110.63020
_cell_angle_gamma 90.00000
_space_group_name_H-M_alt      'P 1'


loop_
_space_group_symop_operation_xyz
  'x, y, z' 

loop_
_atom_site_label
_atom_site_fract_x
_atom_site_fract_y
_atom_site_fract_z
_atom_site_type_symbol
N      0.00347  0.75175  0.04107     N
O      0.00447  0.82814  0.70247     O
C      0.01108  0.32095  0.06618     C
H       0.0116   0.2777   0.8833     H
C      0.02601  0.11015  0.61519     C
Cd    0.042396 0.808553 0.491455    Cd
C      0.04718  0.78495  0.81807     C
H       0.0472   0.9837   0.6762     H
H       0.0491   0.9236   0.0759     H
H       0.0561   0.1286   0.9494     H
H       0.0746   0.6141   0.3925     H
H       0.0805   0.9436   0.9352     H
C      0.08649  0.89867  0.00569     C
N      0.09167  0.18244  0.58587     N
C      0.09729  0.03165  0.65539     C
C      0.10209  0.18047  0.00421     C
H       0.1167   0.3393   0.1095     H
H       0.1174   0.1678   0.1032     H
O      0.13677  0.72194  0.84815     O
Br    0.1690418 0.420221 0.6588916    Br
O      0.17707  0.77104  0.34167     O
H       0.2268   0.6825   0.5478     H
Br    0.237901 0.538396 0.151961    Br
C      0.23929  0.17425  0.59798     C
O      0.24017  0.87194  0.07357     O
O      0.24387  0.70664  0.63615     O
H       0.2456   0.3223   0.9385     H
C      0.25298  0.02455  0.66448     C
Cd    0.256575 0.708673 0.115735    Cd
C      0.25828  0.19375  0.99117     C
H       0.2676    0.922   0.4886     H
N      0.27598  0.88374  0.56087     N
H       0.2871   0.2234   0.5784     H
C      0.30449  0.27187  0.94999     C
H       0.3087   0.9079   0.7698     H
C      0.31951  0.77435  0.39808     C
C      0.32101  0.09877  0.63649     C
H       0.3301   0.0704   0.0477     H
C      0.33079  0.93775  0.69398     C
C      0.35571  0.12387  0.01671     C
C      0.38048  0.81367  0.54847     C
C      0.39039  0.74027  0.65999     C
O      0.40887  0.74954  0.34207     O
H       0.4217   0.0973   0.6437     H
H       0.4323   0.7643   0.7554     H
H       0.4391    0.946   0.7236     H
C      0.44139  0.27427  0.92559     C
H       0.4442   0.5847    0.983     H
H        0.456   0.6933   0.6512     H
N      0.46747  0.70795  0.05167     N
H       0.4679   0.3261    0.891     H
H       0.4808   0.8386   0.5664     H
C      0.49029  0.13247  0.99679     C
C      0.50989  0.63247  0.00339     C
H       0.5192   0.3386   0.4336     H
H       0.5321   0.8261    0.109     H
N      0.53267  0.20795  0.94847     N
H        0.544   0.1933   0.3488     H
H       0.5558   0.0847    0.017     H
C      0.55879  0.77427  0.07459     C
H       0.5609    0.446   0.2764     H
H       0.5677   0.2643   0.2446     H
H       0.5783   0.5973   0.3563     H
O      0.59127  0.24954  0.65807     O
C      0.60979  0.24027  0.34019     C
C      0.61968  0.31367  0.45167     C
C      0.64431  0.62387  0.98331     C
C      0.66939  0.43775  0.30618     C
H       0.6699   0.5704   0.9523     H
C      0.67901  0.59877  0.36369     C
C      0.68051  0.27435  0.60208     C
H       0.6913   0.4079   0.2302     H
C      0.69569  0.77187  0.05019     C
H       0.7129   0.7234   0.4216     H
N      0.72418  0.38374  0.43927     N
H       0.7324    0.422   0.5114     H
C      0.74188  0.69375  0.00897     C
Cd    0.743435 0.208673 0.884275    Cd
C      0.74718  0.52455  0.33568     C
H       0.7544   0.8223   0.0615     H
O      0.75627  0.20664  0.36395     O
O      0.75997  0.37194  0.92657     O
C      0.76089  0.67425  0.40218     C
Br    0.762101 0.038396 0.848041    Br
H       0.7748   0.1825   0.4538     H
O      0.82307  0.27104  0.65847     O
Br    0.8309618 0.920221 0.3411116    Br
O      0.86337  0.22194  0.15195     O
H       0.8826   0.6678   0.8968     H
H       0.8833   0.8393   0.8905     H
C      0.89809  0.68047  0.99581     C
C      0.90289  0.53165  0.34479     C
N      0.90847  0.68244  0.41427     N
C      0.91369  0.39867  0.99449     C
H       0.9195   0.4436   0.0648     H
H       0.9254   0.1141   0.6075     H
H       0.9439   0.6286   0.0506     H
H       0.9509   0.4236   0.9241     H
H       0.9528   0.4837   0.3238     H
C      0.95298  0.28495  0.18207     C
Cd    0.957616 0.308553 0.508555    Cd
C      0.97401  0.61015  0.38499     C
H       0.9884   0.7777   0.1167     H
C      0.98908  0.82095  0.93398     C
O      0.99567  0.32814  0.29767     O
N      0.99667  0.25175  0.95907     N
