data_I
_chemical_name_common  '/Users/gianmarcoterrones/Downloads/Cd_L3_Cl_H2O_2_no_solvent'
_cell_length_a  7.90607
_cell_length_b 10.73381
_cell_length_c  8.96478
_cell_angle_alpha 90.00000
_cell_angle_beta  110.52801
_cell_angle_gamma 90.00000
_space_group_name_H-M_alt      'P 1'


loop_
_space_group_symop_operation_xyz
  'x, y, z' 

loop_
_atom_site_label
_atom_site_fract_x
_atom_site_fract_y
_atom_site_fract_z
_atom_site_type_symbol
C      0.01234  0.04204  0.56294     C
C      0.01904  0.94384  0.66404     C
H       0.0883   0.9903   0.8975     H
H       0.0974   0.1056   0.5944     H
H       0.1049   0.2788   0.3307     H
C      0.10824  0.34894  0.39284     C
C      0.12255  0.54524  0.58624     C
H       0.1251    0.612   0.6531     H
C      0.14364  0.94174  0.83564     C
H       0.1521   0.8564   0.8734     H
H       0.1906   0.5504   0.9795     H
C      0.23824  0.36024  0.54124     C
N      0.24924  0.45652  0.63854     N
H       0.2774   0.6129   0.2692     H
Cl    0.2783511 0.940198 0.2836011    Cl
O      0.29392  0.49214  0.01102     O
H       0.3092   0.4073   0.2113     H
H       0.3237   0.2971    0.576     H
H       0.3254   0.0682   0.8319     H
N      0.32944  0.98914  0.86962     N
H       0.3666   0.8943   0.6873     H
C      0.38174  0.46864  0.17914     C
C      0.39624  0.58484  0.27934     C
C      0.43474  0.90862  0.80064     C
H       0.4572    0.649   0.2431     H
H       0.4633   0.5661   0.3889     H
C      0.47514  0.78212  0.89074     C
O      0.48104  0.69032  0.80614     O
O      0.49294  0.28122  0.96212     O
Cd    0.496722 0.984523 0.14152218    Cd
Cd    0.503282 0.484523 0.85847818    Cd
O      0.50714  0.78122  0.03792     O
O      0.51904  0.19032  0.19394     O
C      0.52494  0.28212  0.10934     C
H       0.5367   0.0661   0.6111     H
H       0.5428    0.149   0.7569     H
C      0.56534  0.40862  0.19944     C
C      0.60384  0.08484  0.72074     C
C      0.61834  0.96864  0.82094     C
H       0.6334   0.3943   0.3127     H
N      0.67064  0.48914  0.13042     N
H       0.6746   0.5682   0.1681     H
H       0.6763   0.7971    0.424     H
H       0.6908   0.9073   0.7887     H
O      0.70612  0.99214  0.98902     O
Cl    0.7216511 0.440198 0.7164011    Cl
H       0.7226   0.1129   0.7308     H
N      0.75084  0.95652  0.36154     N
C      0.76184  0.86024  0.45884     C
H       0.8106   0.0504   0.0215     H
H       0.8479   0.3564   0.1266     H
C      0.85644  0.44174  0.16444     C
H       0.8749    0.112   0.3469     H
C      0.87755  0.04524  0.41384     C
C      0.89184  0.84894  0.60724     C
H       0.8951   0.7788   0.6693     H
H       0.9026   0.6056   0.4056     H
H       0.9117   0.4903   0.1025     H
C      0.98104  0.44384  0.33604     C
C      0.98774  0.54204  0.43714     C
