data_I
_chemical_name_common  '/Users/gianmarcoterrones/Downloads/Cd(L1)(Cl)(H2O)_no_solvent'
_cell_length_a  7.12330
_cell_length_b 13.89650
_cell_length_c 15.89360
_cell_angle_alpha 90.00000
_cell_angle_beta  90.00000
_cell_angle_gamma 90.00000
_space_group_name_H-M_alt      'P 1'


loop_
_space_group_symop_operation_xyz
  'x, y, z' 

loop_
_atom_site_label
_atom_site_fract_x
_atom_site_fract_y
_atom_site_fract_z
_atom_site_type_symbol
C      0.00188  0.03924  0.24824     C
C      0.01118  0.39374  0.17264     C
H       0.0118   0.1722   0.1931     H
C      0.05788  0.64074  0.48264     C
H       0.0624   0.1361    0.475     H
O      0.06297  0.10664  0.96804     O
H       0.0675   0.5172   0.4088     H
H       0.0699   0.5522   0.8744     H
H       0.0812   0.3512     0.14     H
H       0.0816   0.4323   0.9809     H
C      0.08659  0.63044  0.28454     C
C     0.089317  0.09439  0.52387     C
C      0.09718  0.47405  0.20474     C
C     0.099113  0.56927  0.93285     C
O      0.10135  0.72674  0.48014     O
Cl     0.10412 0.7502312 0.7134111    Cl
H       0.1117   0.0779   0.7503     H
H       0.1445    0.664   0.2382     H
H       0.1476    0.037   0.5014     H
H        0.148   0.3747   0.4028     H
H       0.1501   0.1426   0.5474     H
Cd    0.153865 0.233073 0.890142    Cd
C      0.15728  0.56714  0.42564     C
N      0.16947  0.87444  0.31354     N
H        0.176   0.4201   0.8292     H
C      0.18109  0.47944  0.97434     C
C      0.18709  0.01585  0.23147     C
H       0.1897   0.7014   0.8991     H
H        0.224   0.4843   0.1944     H
H       0.2253   0.4964     0.03     H
N      0.22817  0.61544  0.35084     N
H       0.2305    0.332   0.4863     H
C      0.23611  0.06417  0.76337     C
C       0.2402  0.64797  0.93007     C
H       0.2412   0.9438   0.6976     H
H       0.2588   0.0562   0.1976     H
C       0.2602  0.35217  0.43007     C
C      0.26391  0.93597  0.26337     C
H       0.2695    0.668   0.9863     H
N      0.27197  0.38464  0.85084     N
H       0.2747   0.5036     0.53     H
H        0.276   0.5157   0.6944     H
H       0.3103   0.2986   0.3991     H
C      0.31309  0.98425  0.73147     C
C      0.31909  0.52064  0.47434     C
H        0.324   0.5799   0.3292     H
N      0.33067  0.12564  0.81354     N
C      0.34288  0.43294  0.92564     C
Cd    0.346145 0.766933 0.390142    Cd
H       0.3499   0.8574   0.0474     H
H        0.352   0.6253   0.9028     H
H       0.3524    0.963   0.0014     H
H       0.3555    0.336   0.7382     H
H       0.3883   0.9221   0.2503     H
Cl     0.39592 0.2497712 0.2134111    Cl
O      0.39875  0.27334  0.98014     O
C     0.400913  0.43087  0.43285     C
C      0.40298  0.52605  0.70474     C
C     0.410717  0.90579  0.02387     C
C      0.41359  0.36964  0.78454     C
H       0.4184   0.5677   0.4809     H
H       0.4188   0.6488     0.64     H
H       0.4301   0.4478   0.3744     H
H       0.4325   0.4828   0.9088     H
O      0.43717  0.89344  0.46804     O
H       0.4376   0.8639    0.975     H
C      0.44228  0.35934  0.98264     C
H       0.4882   0.8278   0.6931     H
C      0.48898  0.60634  0.67264     C
C      0.49828  0.96084  0.74824     C
C      0.50188  0.46084  0.75184     C
C      0.51118  0.10634  0.82744     C
H       0.5118   0.3278   0.8069     H
C      0.55788  0.85934  0.51744     C
H       0.5624   0.3639    0.525     H
O      0.56297  0.39344  0.03204     O
H       0.5675   0.9828   0.5912     H
H       0.5699   0.9478   0.1256     H
H       0.5812   0.1488     0.86     H
H       0.5816   0.0677   0.0191     H
C      0.58659  0.86964  0.71554     C
C     0.589317  0.40579  0.47627     C
C      0.59718  0.02605  0.79534     C
C     0.599113  0.93087  0.06725     C
O      0.60135  0.77334  0.51994     O
Cl     0.60412 0.7497712 0.2865911    Cl
H       0.6117   0.4221   0.2497     H
H       0.6445    0.836   0.7618     H
H       0.6476    0.463   0.4986     H
H        0.648   0.1253   0.5972     H
H       0.6501   0.3574   0.4526     H
Cd    0.653865 0.266933 0.109862    Cd
C      0.65728  0.93294  0.57444     C
N      0.66947  0.62564  0.68654     N
H        0.676   0.0799   0.1708     H
C      0.68109  0.02064  0.02574     C
C      0.68709  0.48425  0.76867     C
H       0.6897   0.7986   0.1009     H
H        0.724   0.0157   0.8056     H
H       0.7253   0.0036     0.97     H
N      0.72817  0.88464  0.64924     N
H       0.7305    0.168   0.5137     H
C      0.73611  0.43597  0.23677     C
C       0.7402  0.85217  0.07007     C
H       0.7412   0.5562   0.3024     H
H       0.7588   0.4438   0.8024     H
C       0.7602  0.14797  0.57007     C
C      0.76391  0.56417  0.73677     C
H       0.7695    0.832   0.0137     H
N      0.77197  0.11544  0.14924     N
H       0.7747   0.9964     0.47     H
H        0.776   0.9843   0.3056     H
H       0.8103   0.2014   0.6009     H
C      0.81309  0.51585  0.26867     C
C      0.81909  0.97944  0.52574     C
H        0.824   0.9201   0.6708     H
N      0.83067  0.37444  0.18654     N
C      0.84288  0.06714  0.07444     C
Cd    0.846145 0.733073 0.609862    Cd
H       0.8499   0.6426   0.9526     H
H        0.852   0.8747   0.0972     H
H       0.8524    0.537   0.9986     H
H       0.8555    0.164   0.2618     H
H       0.8883   0.5779   0.7497     H
Cl     0.89592 0.2502312 0.7865911    Cl
O      0.89875  0.22674  0.01994     O
C     0.900913  0.06927  0.56725     C
C      0.90298  0.97405  0.29534     C
C     0.910717  0.59439  0.97627     C
C      0.91359  0.13044  0.21554     C
H       0.9184   0.9323   0.5191     H
H       0.9188   0.8512     0.36     H
H       0.9301   0.0522   0.6256     H
H       0.9325   0.0172   0.0912     H
O      0.93717  0.60664  0.53204     O
H       0.9376   0.6361    0.025     H
C      0.94228  0.14074  0.01744     C
H       0.9882   0.6722   0.3069     H
C      0.98898  0.89374  0.32744     C
C      0.99828  0.53924  0.25184     C
