data_I
_chemical_name_common  '/Users/gianmarcoterrones/Downloads/CdZrSr'
_cell_length_a  8.60840
_cell_length_b  9.03620
_cell_length_c  9.03619
_cell_angle_alpha 76.88603
_cell_angle_beta  61.55418
_cell_angle_gamma 61.55400
_space_group_name_H-M_alt      'P 1'


loop_
_space_group_symop_operation_xyz
  'x, y, z' 

loop_
_atom_site_label
_atom_site_fract_x
_atom_site_fract_y
_atom_site_fract_z
_atom_site_type_symbol
Cd         0.0      1.0      1.0    Cd
O       0.1211   1.1229   0.1229     O
O        0.141   0.7968   0.7968     O
C       0.3233   0.7233   0.7233     C
O       0.3669   0.8771  -0.1229     O
O       0.4254   0.6117   0.6117     O
C       0.4453   0.7687   0.7687     C
Sr         0.5      0.0      1.0    Sr
Sr         0.5      1.0      0.0    Sr
Sr         0.5      1.0      1.0    Sr
O       0.6295   0.6857   0.6857     O
O       0.6488   0.3883   0.3883     O
O       0.6848   0.3143   0.6857     O
O       0.6848   0.6857   0.3143     O
O       0.7346   0.2032   0.2032     O
Zr        0.75      0.5      0.5    Zr
O        0.756   0.1229   0.8771     O
O        0.756   0.8771   0.1229     O
C       0.7699   0.2767   0.2767     C
C        0.786   0.2313   0.7687     C
C        0.786   0.7687   0.2313     C
C       0.9534   0.2767   0.7233     C
C       0.9534   0.7233   0.2767     C
O       0.9629   0.3883   0.6117     O
O       0.9629   0.6117   0.3883     O
C       0.9827   0.2313   0.2313     C
Cd         1.0      0.0      0.0    Cd
Cd         1.0      0.0      1.0    Cd
Cd         1.0      1.0      0.0    Cd
O       1.0009   0.3143   0.3143     O
O       1.0622   0.2032   0.7968     O
O       1.0622   0.7968   0.2032     O
Sr         1.5      0.0      0.0    Sr
