data_I
_chemical_name_common  '/Users/gianmarcoterrones/Research/MOFs/MOF_structures/water_stability_work_extra_structs/cleaned_from_CCDC/CIKCOQ'
_cell_length_a  7.67200
_cell_length_b 10.17000
_cell_length_c 11.51329
_cell_angle_alpha 63.78993
_cell_angle_beta  83.75434
_cell_angle_gamma 75.74000
_space_group_name_H-M_alt      'P 1'


loop_
_space_group_symop_operation_xyz
  'x, y, z' 

loop_
_atom_site_label
_atom_site_fract_x
_atom_site_fract_y
_atom_site_fract_z
_atom_site_type_symbol
O       0.0772  0.82664  0.29172     O
H       0.1024   0.7465    0.482     H
H       0.1028   0.9341    0.101     H
H       0.1082   0.0323   0.1738     H
H       0.1104   0.9167   0.4072     H
C       0.1482  0.93247  0.17726     C
C       0.1487  0.81943  0.40514     C
H       0.1717   0.5792   0.2474     H
H       0.1792   0.4635   0.4684     H
O        0.204  0.22494  0.86746     O
C       0.2044  0.47486  0.29008     C
C       0.2076  0.40462  0.42316     C
H       0.2279   0.2818   0.0514     H
C       0.2307  0.35449  0.80262     C
C       0.2373  0.38148  0.00664     C
C       0.2386  0.44787  0.87186     C
O       0.2432  0.91076  0.68228     O
Cd        0.25 0.144615  0.71077    Cd
N         0.25  0.25479  0.49042     N
C         0.25  0.39051  0.21898     C
C         0.25  0.46234  0.07532     C
C         0.25  0.59732  0.80536     C
H         0.25   0.6423   0.7154     H
O       0.2568  0.40696  0.68228     O
C       0.2614  0.68027  0.87186     C
C       0.2627  0.61188  0.00664     C
C       0.2693  0.84289  0.80262     C
H       0.2721   0.6668   0.0514     H
C       0.2924  0.17222  0.42316     C
C       0.2956  0.23506  0.29008     C
O        0.296   0.9076  0.86746     O
H       0.3208   0.0681   0.4684     H
H       0.3283   0.1734   0.2474     H
C       0.3513  0.77543  0.40514     C
C       0.3518  0.89027  0.17726     C
H       0.3896   0.6761   0.4072     H
H       0.3918   0.7939   0.1738     H
H       0.3972   0.9649    0.101     H
H       0.3976   0.7715    0.482     H
O       0.4228  0.88164  0.29172     O
O       0.5772  0.11836  0.70828     O
H       0.6024   0.2285    0.518     H
H       0.6028   0.0351    0.899     H
H       0.6082   0.2061   0.8262     H
H       0.6104   0.3239   0.5928     H
C       0.6482  0.10973  0.82274     C
C       0.6487  0.22457  0.59486     C
H       0.6717   0.8266   0.7526     H
H       0.6792   0.9319   0.5316     H
O        0.704   0.0924  0.13254     O
C       0.7044  0.76494  0.70992     C
C       0.7076  0.82778  0.57684     C
H       0.7279   0.3332   0.9486     H
C       0.7307  0.15711  0.19738     C
C       0.7373  0.38812  0.99336     C
C       0.7386  0.31973  0.12814     C
O       0.7432  0.59304  0.31772     O
H         0.75   0.3577   0.2846     H
C         0.75  0.40268  0.19464     C
C         0.75  0.53766  0.92468     C
C         0.75  0.60949  0.78102     C
N         0.75  0.74521  0.50958     N
Cd        0.75 0.855385  0.28923    Cd
O       0.7568  0.08924  0.31772     O
C       0.7614  0.55213  0.12814     C
C       0.7627  0.61852  0.99336     C
C       0.7693  0.64551  0.19738     C
H       0.7721   0.7182   0.9486     H
C       0.7924  0.59538  0.57684     C
C       0.7956  0.52514  0.70992     C
O        0.796  0.77506  0.13254     O
H       0.8208   0.5365   0.5316     H
H       0.8283   0.4208   0.7526     H
C       0.8513  0.18057  0.59486     C
C       0.8518  0.06753  0.82274     C
H       0.8896   0.0833   0.5928     H
H       0.8918   0.9677   0.8262     H
H       0.8972   0.0659    0.899     H
H       0.8976   0.2535    0.518     H
O       0.9228  0.17336  0.70828     O
