data_I
_chemical_name_common  '/Users/gianmarcoterrones/Research/MOFs/MOF_structures/water_stability_work_extra_structs/cleaned_from_CCDC/CIYZOA'
_cell_length_a  5.03000
_cell_length_b 13.73100
_cell_length_c 20.22000
_cell_angle_alpha 90.00000
_cell_angle_beta  92.19000
_cell_angle_gamma 90.00000
_space_group_name_H-M_alt      'P 1'


loop_
_space_group_symop_operation_xyz
  'x, y, z' 

loop_
_atom_site_label
_atom_site_fract_x
_atom_site_fract_y
_atom_site_fract_z
_atom_site_type_symbol
Hg         0.0      0.0      0.0    Hg
Hg         0.0      0.5      0.5    Hg
C        0.055    0.244   0.6737     C
C        0.055    0.256   0.1737     C
I       0.0732  0.68465  0.52007     I
I       0.0732  0.81535  0.02007     I
C        0.077   0.5764   0.7655     C
C        0.077   0.9236   0.2655     C
H       0.0929   0.1972   0.1533     H
H       0.0929   0.3028   0.6533     H
C        0.104   0.0742   0.6866     C
C        0.104   0.4258   0.1866     C
C         0.12   0.7395   0.7756     C
C         0.12   0.7605   0.2756     C
H       0.1329    0.518   0.7474     H
H       0.1329    0.982   0.2474     H
C        0.173   0.1578   0.6541     C
C        0.173   0.3422   0.1541     C
H        0.176   0.0593   0.5443     H
H        0.176   0.4407   0.0443     H
N        0.176   0.6596   0.7434     N
N        0.176   0.8404   0.2434     N
H       0.1825   0.0154   0.6756     H
H       0.1825   0.4846   0.1756     H
H       0.2033   0.7032   0.2633     H
H       0.2033   0.7968   0.7633     H
O        0.227    0.565   0.9649     O
O        0.227    0.935   0.4649     O
N        0.334   0.0804   0.5538     N
N        0.334   0.4196   0.0538     N
H       0.3668     0.22   0.5778     H
H       0.3668     0.28   0.0778     H
I       0.3723  0.15352  0.34949     I
I       0.3723  0.34648  0.84949     I
C        0.375   0.1581    0.601     C
C        0.375   0.3419    0.101     C
H        0.448    0.652   0.8785     H
H        0.448    0.848   0.3785     H
C        0.453   0.5407   0.9755     C
C        0.453   0.9593   0.4755     C
I       0.4547  0.52406  0.37139     I
I       0.4547  0.97594  0.87139     I
Hg     0.47911  0.66407  0.65355    Hg
Hg     0.47911  0.83593  0.15355    Hg
Hg     0.52089  0.16407  0.84645    Hg
Hg     0.52089  0.33593  0.34645    Hg
I       0.5453  0.02406  0.12861     I
I       0.5453  0.47594  0.62861     I
C        0.547   0.0407   0.5245     C
C        0.547   0.4593   0.0245     C
H        0.552    0.152   0.6215     H
H        0.552    0.348   0.1215     H
C        0.625   0.6581    0.899     C
C        0.625   0.8419    0.399     C
I       0.6277  0.65352  0.15051     I
I       0.6277  0.84648  0.65051     I
H       0.6332     0.72   0.9222     H
H       0.6332     0.78   0.4222     H
N        0.666   0.5804   0.9462     N
N        0.666   0.9196   0.4462     N
O        0.773    0.065   0.5351     O
O        0.773    0.435   0.0351     O
H       0.7967   0.2032   0.2367     H
H       0.7967   0.2968   0.7367     H
H       0.8175   0.5154   0.8244     H
H       0.8175   0.9846   0.3244     H
N        0.824   0.1596   0.7566     N
N        0.824   0.3404   0.2566     N
H        0.824   0.5593   0.9557     H
H        0.824   0.9407   0.4557     H
C        0.827   0.6578   0.8459     C
C        0.827   0.8422   0.3459     C
H       0.8671    0.018   0.7526     H
H       0.8671    0.482   0.2526     H
C         0.88   0.2395   0.7244     C
C         0.88   0.2605   0.2244     C
C        0.896   0.5742   0.8134     C
C        0.896   0.9258   0.3134     C
H       0.9071   0.6972   0.3467     H
H       0.9071   0.8028   0.8467     H
C        0.923   0.0764   0.7345     C
C        0.923   0.4236   0.2345     C
I       0.9268  0.18465  0.97993     I
I       0.9268  0.31535  0.47993     I
C        0.945    0.744   0.8263     C
C        0.945    0.756   0.3263     C
