data_I
_chemical_name_common  '/Users/gianmarcoterrones/Downloads/Co-NIC'
_cell_length_a 10.53440
_cell_length_b 11.90732
_cell_length_c 14.04614
_cell_angle_alpha 106.64501
_cell_angle_beta  101.97701
_cell_angle_gamma 112.07801
_space_group_name_H-M_alt      'P 1'


loop_
_space_group_symop_operation_xyz
  'x, y, z' 

loop_
_atom_site_label
_atom_site_fract_x
_atom_site_fract_y
_atom_site_fract_z
_atom_site_type_symbol
H       0.0063   0.4816   0.8117     H
H       0.0067   0.2262   0.1384     H
H       0.0173   0.6875   0.1332     H
C      0.03547  0.71997  0.72434     C
N      0.03955  0.07145  0.84194     N
H       0.0473   0.1072   0.9898     H
H       0.0594   0.3074   0.3232     H
C      0.05988  0.60767  0.23565     C
C      0.06657  0.76907  0.83334     C
C      0.07407  0.70907  0.20405     C
H       0.0768   0.0438   0.7075     H
C      0.10547  0.10895  0.94634     C
H       0.1179   0.6746   0.6107     H
C      0.12187  0.07127  0.78184     C
H       0.1382   0.5696   0.3612     H
H       0.1388   0.2769   0.6849     H
C      0.14207  0.71097  0.68554     C
C      0.14397  0.63817  0.33785     C
H       0.1542   0.1494   0.5301     H
O      0.16104  0.86644  0.05984     O
N      0.16405  0.83765  0.26794     N
C     0.191111  0.31847  0.64687     C
Co    0.191498 0.991367 0.212805    Co
C      0.19969  0.24327  0.55567     C
C      0.20767  0.81085  0.89994     C
O      0.21524  0.11124  0.36024     O
O      0.21594  0.13584  0.15084     O
C      0.23717  0.77007  0.40614     C
C      0.24287  0.86557  0.36794     C
C      0.25267  0.14975  0.99444     C
H       0.2551    0.504   0.7464     H
C      0.25697  0.86935  0.01964     C
C      0.25898  0.45367  0.68205     C
C      0.26887  0.10887  0.82215     C
C      0.27587  0.30767  0.50194     C
N      0.27865  0.75114  0.74844     N
C      0.29967  0.23335  0.40614     C
H       0.3056   0.9557   0.4144     H
C      0.30927  0.18305  0.11184     C
C      0.30977  0.80225  0.85404     C
H       0.3232   0.1059   0.7761     H
N      0.32935  0.51774  0.63104     N
C      0.33317  0.80947  0.51874     C
O      0.33354  0.71574  0.54354     O
C      0.33627  0.44365  0.54164     C
C      0.33757  0.15137  0.93115     C
H       0.3858   0.4877   0.5036     H
O      0.39184  0.91955  0.06924     O
O      0.40124  0.30054  0.38184     O
O      0.40275  0.92954  0.57634     O
H       0.4071   0.8342   0.8996     H
O      0.42524  0.06024  0.25844     O
H       0.4369   0.0258   0.2107     H
H       0.4396   0.1806   0.9611     H
O      0.44664  0.25414  0.16234     O
Co    0.448718 0.729207 0.688375    Co
H       0.4769   0.0458   0.3117     H
H       0.5249   0.9558   0.6897     H
Co    0.551298 0.270807 0.311635    Co
O      0.55344  0.74594  0.83774     O
H       0.5604   0.8194   0.0389     H
H       0.5649   0.9758   0.7907     H
O      0.57484  0.93984  0.74164     O
H       0.5929   0.1658   0.1004     H
O      0.59735  0.07054  0.42374     O
O      0.59884  0.69954  0.61824     O
O      0.60824  0.08055  0.93084     O
H       0.6142   0.5123   0.4964     H
C      0.66257  0.84877  0.06895     C
C      0.66387  0.55645  0.45844     C
O      0.66654  0.28434  0.45654     O
C      0.66697  0.19067  0.48134     C
N      0.67075  0.48234  0.36904     N
H       0.6768   0.8941   0.2239     H
C      0.69037  0.19785  0.14604     C
C      0.69087  0.81705  0.88824     C
H       0.6944   0.0443   0.5856     H
C      0.70047  0.76675  0.59394     C
N      0.72145  0.24894  0.25164     N
C      0.72427  0.69247  0.49814     C
C      0.73127  0.89127  0.17795     C
C      0.74118  0.54647  0.31805     C
C      0.74317  0.13075  0.98044     C
H       0.7449    0.496   0.2536     H
C      0.74747  0.85035  0.00564     C
C      0.75727  0.13457  0.63214     C
C      0.76297  0.23007  0.59394     C
O      0.78414  0.86424  0.84924     O
O      0.78484  0.88884  0.63984     O
C      0.79247  0.18925  0.10014     C
C      0.80049  0.75687  0.44447     C
Co    0.808518 0.008647 0.787205    Co
C     0.808911  0.68167  0.35327     C
N      0.83605  0.16245  0.73214     N
O      0.83904  0.13364  0.94024     O
H       0.8458   0.8506   0.4699     H
C      0.85617  0.36197  0.66225     C
C      0.85807  0.28917  0.31454     C
H       0.8612   0.7231   0.3151     H
H       0.8618   0.4304   0.6388     H
C      0.87827  0.92887  0.21824     C
H       0.8821   0.3254   0.3893     H
C      0.89467  0.89115  0.05374     C
H       0.9232   0.9562   0.2925     H
C      0.92607  0.29107  0.79605     C
C      0.93357  0.23107  0.16674     C
C      0.94028  0.39247  0.76445     C
H       0.9406   0.6926   0.6768     H
H       0.9527   0.8928   0.0102     H
N      0.96055  0.92865  0.15814     N
C      0.96467  0.28017  0.27574     C
H       0.9827   0.3125   0.8668     H
H       0.9933   0.7738   0.8616     H
H       0.9937   0.5184   0.1883     H
