data_I
_chemical_name_common  '/Users/gianmarcoterrones/Research/MOFs/MOF_structures/water_stability_work_extra_structs/cleaned_from_CCDC/COWWOB'
_cell_length_a 10.44000
_cell_length_b 12.78600
_cell_length_c 20.15200
_cell_angle_alpha 108.32700
_cell_angle_beta  96.93000
_cell_angle_gamma 102.43900
_space_group_name_H-M_alt      'P 1'


loop_
_space_group_symop_operation_xyz
  'x, y, z' 

loop_
_atom_site_label
_atom_site_fract_x
_atom_site_fract_y
_atom_site_fract_z
_atom_site_type_symbol
H       0.0009   0.3519   0.0424     H
C        0.001   0.4117   0.0255     C
C       0.0054   0.8986  0.51077     C
H       0.0093   0.8309    0.518     H
C       0.0226   0.3005   0.8338     C
N       0.0341   0.6089   0.7007     N
H       0.0425   0.7346   0.6653     H
H       0.0426   0.2383   0.1882     H
H       0.0428   0.4658   0.7141     H
H        0.047   0.3323   0.8833     H
C       0.0497    0.791    0.313     C
C       0.0629   0.6648   0.6565     C
C       0.0634   0.5083   0.6851     C
C       0.0729   0.1733   0.1824     C
H        0.074   0.8205   0.3626     H
N       0.0767   0.1338    0.236     N
C       0.0826   0.2347   0.7197     C
C       0.1016   0.0995   0.5355     C
H       0.1048   0.1567   0.0829     H
C        0.108   0.9984   0.5468     C
C       0.1085   0.7262   0.1991     C
C       0.1106   0.1252   0.1186     C
C       0.1142   0.5858   0.0142     C
C       0.1166   0.4979   0.0401     C
C       0.1184   0.0412   0.2253     C
C       0.1202   0.2802   0.7933     C
C       0.1204   0.6273   0.5991     C
H        0.121   0.0109   0.2616     H
C       0.1219   0.4637   0.6292     C
H       0.1369   0.6703     0.57     H
H       0.1401   0.3932   0.6211     H
C        0.146   0.7733   0.2729     C
H       0.1467   0.2214   0.6922     H
C       0.1534   0.5251    0.585     C
C       0.1571   0.0293   0.1094     C
C       0.1587   0.9854    0.164     C
H        0.164   0.0291   0.8547     H
H       0.1701   0.1661   0.5594     H
H        0.173   0.7127   0.1718     H
H       0.1864   0.9195   0.1596     H
H        0.192   0.6442   0.0239     H
H       0.1996   0.0767   0.9889     H
C       0.2085   0.9749   0.0464     C
C       0.2196   0.4801   0.5259     C
N       0.2229   0.0181  0.99286     N
C       0.2266   0.9949   0.5954     C
H       0.2298   0.0594   0.7573     H
O       0.2316   0.9028  0.60264     O
H       0.2413   0.6006   0.4806     H
C       0.2432   0.4953   0.0822     C
C       0.2436   0.0146    0.843     C
O       0.2497   0.4071   0.0952     O
N       0.2509   0.8821  0.03576     N
H       0.2543   0.1701    0.457     H
N       0.2551   0.3845  0.51172     N
N       0.2554   0.5367  0.48036     N
H       0.2557   0.7208   0.8396     H
H       0.2564   0.3432   0.2991     H
C       0.2644   0.3117   0.8297     C
C       0.2822   0.9487   0.9467     C
C       0.2847   0.0338   0.7851     C
C       0.2905   0.8112   0.3088     C
C       0.2948   0.8638   0.9729     C
O       0.2959   0.3282  0.89373     O
C       0.3118   0.7009   0.8703     C
C       0.3133   0.4138   0.3051     C
C       0.3166    0.378   0.4545     C
O       0.3179    0.088  0.62768     O
C       0.3179   0.4711   0.4344     C
C       0.3211   0.9734   0.8843     C
H       0.3238   0.3765   0.2033     H
C       0.3245   0.1788   0.4331     C
O        0.326   0.8239  0.37248     O
H       0.3369   0.5662   0.7957     H
O       0.3401   0.5845  0.10321     O
H       0.3432   0.0218   0.4148     H
C       0.3463   0.7643   0.9431     C
O         0.35    0.323  0.79022     O
C       0.3528   0.4346   0.2478     C
C       0.3572   0.4968   0.3724     C
C       0.3618   0.6084   0.8443     C
C       0.3733   0.2818    0.425     C
O       0.3734   0.8378  0.27082     O
C       0.3771   0.0893   0.4068     C
N       0.3991   0.0182  0.76587     N
H       0.4027   0.8005   0.6601     H
C       0.4279   0.7288  0.98586     C
N       0.4316   0.5351  0.25233     N
C       0.4391   0.6006   0.3774     C
C       0.4399   0.9586   0.8653     C
H         0.44   0.0242   0.2016     H
N       0.4444   0.5756  0.88516     N
H        0.451   0.7674    0.035     H
Zn     0.45924  0.04742  0.67883    Zn
H       0.4681   0.3147   0.6779     H
H       0.4692   0.3863   0.0154     H
H       0.4697   0.6597   0.4213     H
C       0.4741   0.8071   0.6368     C
N       0.4747   0.0937   0.3701     N
C       0.4747   0.6156   0.3175     C
C        0.475   0.6357   0.9551     C
C       0.4771   0.9832   0.8085     C
C        0.478   0.2866    0.389     C
Zn     0.48357  0.56088  0.16261    Zn
H       0.4836   0.6458   0.6179     H
H       0.4953   0.9314   0.8917     H
H       0.5047   0.0686   0.1083     H
H       0.5164   0.3542   0.3821     H
Zn     0.51643  0.43912  0.83739    Zn
C        0.522   0.7134    0.611     C
C       0.5229   0.0168   0.1915     C
C        0.525   0.3643   0.0449     C
C       0.5253   0.3844   0.6825     C
N       0.5253   0.9063   0.6299     N
C       0.5259   0.1929   0.3632     C
H       0.5303   0.3403   0.5787     H
H       0.5308   0.6137   0.9846     H
H       0.5319   0.6853   0.3221     H
Zn     0.54076  0.95258  0.32117    Zn
H        0.549   0.2326    0.965     H
N       0.5556   0.4244  0.11484     N
H         0.56   0.9758   0.7984     H
C       0.5601   0.0414   0.1347     C
C       0.5609   0.3994   0.6226     C
N       0.5684   0.4649  0.74767     N
C       0.5721   0.2712  0.01414     C
H       0.5973   0.1995   0.3399     H
N       0.6009   0.9818  0.23413     N
C       0.6229   0.9107   0.5932     C
O       0.6266   0.1622  0.72918     O
C       0.6267   0.7182    0.575     C
C       0.6382   0.3916   0.1557     C
C       0.6428   0.5032   0.6276     C
C       0.6472   0.5654   0.7522     C
O         0.65    0.677  0.20978     O
C       0.6537   0.2357   0.0569     C
H       0.6568   0.9782   0.5852     H
O       0.6599   0.4155  0.89679     O
H       0.6631   0.4338   0.2043     H
O        0.674   0.1761  0.62752     O
C       0.6755   0.8212   0.5669     C
H       0.6762   0.6235   0.7967     H
C       0.6789   0.0266   0.1157     C
C       0.6821   0.5289   0.5656     C
O       0.6821    0.912  0.37232     O
C       0.6834    0.622   0.5455     C
C       0.6867   0.5862   0.6949     C
C       0.6882   0.2991   0.1297     C
O       0.7041   0.6718  0.10627     O
C       0.7052   0.1362   0.0271     C
C       0.7095   0.1888   0.6912     C
C       0.7153   0.9662   0.2149     C
C       0.7178   0.0513   0.0533     C
C       0.7356   0.6883   0.1703     C
H       0.7436   0.6568   0.7009     H
H       0.7443   0.2792   0.1604     H
N       0.7446   0.4633  0.51964     N
N       0.7449   0.6155  0.48828     N
H       0.7457   0.8299    0.543     H
N       0.7491   0.1179  0.96424     N
O       0.7503   0.5929   0.9048     O
C       0.7564   0.9854    0.157     C
C       0.7568   0.5047   0.9178     C
H       0.7587   0.3994   0.5194     H
O       0.7684   0.0972  0.39736     O
H       0.7702   0.9406   0.2427     H
C       0.7734   0.0051   0.4046     C
N       0.7771   0.9819  0.00714     N
C       0.7804   0.5199   0.4741     C
C       0.7915   0.0251   0.9536     C
H       0.8004   0.9233   0.0111     H
H        0.808   0.3558   0.9761     H
H       0.8136   0.0805   0.8404     H
H        0.827   0.2873   0.8282     H
H       0.8299   0.8339   0.4406     H
H        0.836   0.9709   0.1453     H
C       0.8413   0.0146    0.836     C
C       0.8429   0.9707   0.8906     C
C       0.8466   0.4749    0.415     C
H       0.8533   0.7786   0.3078     H
C        0.854   0.2267   0.7271     C
H       0.8599   0.6068   0.3789     H
H       0.8631   0.3297     0.43     H
C       0.8781   0.5363   0.3708     C
H        0.879   0.9891   0.7384     H
C       0.8796   0.3727   0.4009     C
C       0.8798   0.7198   0.2067     C
C       0.8816   0.9588   0.7747     C
C       0.8834   0.5021   0.9599     C
C       0.8858   0.4142   0.9858     C
C       0.8894   0.8748   0.8814     C
C       0.8915   0.2738   0.8009     C
C        0.892   0.0016   0.4532     C
H       0.8952   0.8433   0.9171     H
C       0.8984   0.9005   0.4645     C
C       0.9174   0.7653   0.2803     C
N       0.9233   0.8662    0.764     N
H        0.926   0.1795   0.6374     H
C       0.9271   0.8267   0.8176     C
C       0.9366   0.4917   0.3149     C
C       0.9371   0.3352   0.3435     C
C       0.9503    0.209    0.687     C
H        0.953   0.6677   0.1167     H
H       0.9572   0.5342   0.2859     H
H       0.9574   0.7617   0.8118     H
H       0.9575   0.2654   0.3347     H
N       0.9659   0.3911   0.2993     N
C       0.9774   0.6995   0.1662     C
H       0.9907   0.1691    0.482     H
C       0.9946   0.1014  0.48923     C
C        0.999   0.5883   0.9745     C
H       0.9991   0.6481   0.9576     H
