data_I
_chemical_name_common  '/Users/gianmarcoterrones/Research/MOFs/MOF_structures/water_stability_work_extra_structs/cleaned_from_CCDC/COWXIW'
_cell_length_a 13.05980
_cell_length_b 13.11420
_cell_length_c 15.00370
_cell_angle_alpha 94.80200
_cell_angle_beta  90.00000
_cell_angle_gamma 90.00000
_space_group_name_H-M_alt      'P 1'


loop_
_space_group_symop_operation_xyz
  'x, y, z' 

loop_
_atom_site_label
_atom_site_fract_x
_atom_site_fract_y
_atom_site_fract_z
_atom_site_type_symbol
H       0.0022   0.9984   0.1218     H
H       0.0049   0.6823    0.901     H
C       0.0062   0.2601   0.6473     C
H       0.0085   0.8098   0.6179     H
H       0.0278   0.1925   0.6381     H
C       0.0288   0.4362   0.6189     C
H       0.0293   0.9772   0.6747     H
N       0.0311   0.1401   0.8496     N
H       0.0338   0.7971   0.9263     H
C       0.0448   0.0543   0.8898     C
C       0.0552   0.7344   0.8939     C
C       0.0569    0.541   0.3271     C
C        0.059   0.3347   0.6049     C
H       0.0622   0.7449   0.8317     H
H        0.063   0.5076   0.8867     H
N       0.0702   0.6185   0.6067     N
C       0.0738   0.8379   0.6224     C
N       0.0746   0.7183   0.2993     N
H       0.0784   0.4734   0.3167     H
H       0.0837   0.5387   0.9883     H
C       0.0871    0.939   0.6576     C
C       0.0899   0.5212   0.5861     C
H       0.0953    0.273   0.8341     H
C       0.1032   0.2133   0.8629     C
C       0.1101   0.6172   0.2893     C
H        0.114   0.3166   0.5676     H
C       0.1145   0.5144   0.9324     C
C       0.1259   0.0385   0.9488     C
H       0.1294   0.9791   0.9785     H
Cd     0.13453  0.82522 0.198462    Cd
H       0.1361   0.5797   0.7809     H
O       0.1401    0.693  0.08948     O
H       0.1458    0.449   0.9382     H
C       0.1495   0.6696    0.568     C
O       0.1514   0.0019   0.2338     O
H       0.1517   0.1065   0.4541     H
C       0.1577   0.7011   0.9303     C
C       0.1583   0.7794    0.594     C
H        0.163   0.1756   0.2883     H
C       0.1654    0.744   0.0268     C
H       0.1697   0.6014    0.257     H
N       0.1738    0.506   0.5322     N
H       0.1759   0.4573   0.1477     H
H       0.1769   0.9923   0.4226     H
N       0.1813   0.9847   0.6682     N
C       0.1872   0.2049   0.9162     C
H       0.1898   0.2971   0.0781     H
C       0.1948   0.5895   0.9074     C
O       0.1993 0.83333333  0.04217     O
H       0.2008    0.822   0.8473     H
C        0.202   0.1152    0.962     C
C       0.2024   0.0535   0.4546     C
C       0.2043   0.5805   0.8083     C
H       0.2048   0.2856   0.4021     H
H       0.2062    0.449   0.5164     H
C       0.2121   0.6042   0.5219     C
H       0.2171   0.0403   0.5153     H
O       0.2306    0.401   0.7734     O
H       0.2348   0.2579   0.9225     H
C       0.2348   0.7628   0.8685     C
C       0.2348   0.9867   0.2714     C
C       0.2364   0.1863   0.2903     C
C       0.2409   0.4289   0.1404     C
H       0.2417   0.7107   0.7341     H
C       0.2484   0.3302   0.1007     C
C       0.2516   0.8302   0.6007     C
H       0.2583   0.2107   0.2341     H
C       0.2591   0.9289   0.6404     C
C       0.2636   0.6863   0.7903     C
C       0.2652   0.2628   0.3685     C
C       0.2652   0.4867   0.7714     C
H       0.2652   0.7579   0.4225     H
O       0.2694    0.901   0.2734     O
H       0.2829   0.5403   0.0153     H
C       0.2879   0.1042   0.0219     C
H       0.2938    0.949   0.0164     H
H       0.2952   0.7856   0.9021     H
C       0.2957   0.0805   0.3083     C
C       0.2976   0.5535   0.9546     C
C        0.298   0.6152    0.462     C
H       0.2992    0.322   0.3473     H
O       0.3007 0.33333333  0.54217     O
C       0.3052   0.0895   0.4074     C
H       0.3102   0.7971   0.5781     H
C       0.3128   0.7049   0.4162     C
N       0.3187   0.4847   0.1682     N
H       0.3231   0.4923   0.9226     H
H       0.3241   0.9573   0.6477     H
N       0.3262    0.006   0.0322     N
H       0.3303   0.1014    0.757     H
C       0.3346    0.244   0.5268     C
H        0.337   0.6756   0.7883     H
C       0.3417   0.2794    0.094     C
C       0.3423   0.2011   0.4303     C
H       0.3483   0.6065   0.9541     H
O       0.3486   0.5019   0.7338     O
C       0.3505   0.1696    0.068     C
H       0.3542    0.949   0.4382     H
O       0.3599    0.193  0.58948     O
H       0.3639   0.0797   0.2809     H
Cd     0.36547  0.32522 0.698462    Cd
H       0.3706   0.4791   0.4785     H
C       0.3741   0.5385   0.4488     C
C       0.3855   0.0144   0.4324     C
H        0.386   0.8166   0.0676     H
C       0.3899   0.1172   0.7893     C
C       0.3968   0.7133   0.3629     C
H       0.4047    0.773   0.3341     H
C       0.4101   0.0212   0.0861     C
C       0.4129    0.439   0.1576     C
H       0.4163   0.0387   0.4883     H
H       0.4216   0.9734   0.8167     H
N       0.4254   0.2183   0.7993     N
C       0.4262   0.3379   0.1224     C
N       0.4298   0.1185   0.1067     N
H        0.437   0.0076   0.3867     H
H       0.4378   0.2449   0.3317     H
C        0.441   0.8347   0.1049     C
C       0.4431    0.041   0.8271     C
C       0.4448   0.2344   0.3939     C
C       0.4552   0.5543   0.3898     C
H       0.4662   0.2971   0.4263     H
N       0.4689   0.6401   0.3496     N
H       0.4707   0.4772   0.1747     H
C       0.4712   0.9362   0.1189     C
H       0.4722   0.6925   0.1381     H
H       0.4915   0.3098   0.1179     H
C       0.4938   0.7601   0.1473     C
H       0.4951   0.1823    0.401     H
H       0.4978   0.4984   0.6218     H
H       0.5022   0.5016   0.3782     H
H       0.5049   0.8177    0.599     H
C       0.5062   0.2399   0.8527     C
H       0.5085   0.6902   0.8821     H
H       0.5278   0.3075   0.8619     H
C       0.5288   0.0638   0.8811     C
H       0.5293   0.5228   0.8253     H
N       0.5311   0.3599   0.6504     N
H       0.5338   0.7029   0.5737     H
C       0.5448   0.4457   0.6102     C
C       0.5552   0.7656   0.6061     C
C       0.5569    0.959   0.1729     C
C        0.559   0.1653   0.8951     C
H       0.5622   0.7551   0.6683     H
H        0.563   0.9924   0.6133     H
N       0.5702   0.8815   0.8933     N
C       0.5738   0.6621   0.8776     C
N       0.5746   0.7817   0.2007     N
H       0.5784   0.0266   0.1833     H
H       0.5837   0.9613   0.5117     H
C       0.5871    0.561   0.8424     C
C       0.5899   0.9788   0.9139     C
H       0.5953    0.227   0.6659     H
C       0.6032   0.2867   0.6371     C
C       0.6101   0.8828   0.2107     C
H        0.614   0.1834   0.9324     H
C       0.6145   0.9856   0.5676     C
C       0.6259   0.4615   0.5512     C
H       0.6294   0.5209   0.5215     H
Cd     0.63453  0.67478 0.301538    Cd
H       0.6361   0.9203   0.7191     H
O       0.6401    0.807  0.41052     O
H       0.6458    0.051   0.5618     H
C       0.6495   0.8304    0.932     C
O       0.6514   0.4981   0.2662     O
H       0.6517   0.3935   0.0459     H
C       0.6577   0.7989   0.5697     C
C       0.6583   0.7206    0.906     C
H        0.663   0.3244   0.2117     H
C       0.6654    0.756   0.4732     C
H       0.6697   0.8986    0.243     H
N       0.6738    0.994   0.9678     N
H       0.6759   0.0427   0.3523     H
H       0.6769   0.5077   0.0774     H
N       0.6813   0.5153   0.8318     N
C       0.6872   0.2951   0.5838     C
H       0.6898   0.2029   0.4219     H
C       0.6948   0.9105   0.5926     C
O       0.6993 0.66666667  0.45783     O
H       0.7008    0.678   0.6527     H
C        0.702   0.3848    0.538     C
C       0.7024   0.4465   0.0454     C
C       0.7043   0.9195   0.6917     C
H       0.7048   0.2144   0.0979     H
H       0.7062    0.051   0.9836     H
C       0.7121   0.8958   0.9781     C
H       0.7171   0.4597   0.9847     H
O       0.7306    0.099   0.7266     O
H       0.7348   0.2421   0.5775     H
C       0.7348   0.5133   0.2286     C
C       0.7348   0.7372   0.6315     C
C       0.7364   0.3137   0.2097     C
C       0.7409   0.0711   0.3596     C
H       0.7417   0.7893   0.7659     H
C       0.7484   0.1698   0.3993     C
C       0.7516   0.6698   0.8993     C
H       0.7583   0.2893   0.2659     H
C       0.7591   0.5711   0.8596     C
C       0.7636   0.8137   0.7097     C
C       0.7652   0.0133   0.7286     C
C       0.7652   0.2372   0.1315     C
H       0.7652   0.7421   0.0775     H
O       0.7694    0.599   0.2266     O
H       0.7829   0.9597   0.4847     H
C       0.7879   0.3958   0.4781     C
H       0.7938    0.551   0.4836     H
H       0.7952   0.7144   0.5979     H
C       0.7957   0.4195   0.1917     C
C       0.7976   0.9465   0.5454     C
C        0.798   0.8848    0.038     C
H       0.7992    0.178   0.1527     H
O       0.8007 0.16666667  0.95783     O
C       0.8052   0.4105   0.0926     C
H       0.8102   0.7029   0.9219     H
C       0.8128   0.7951   0.0838     C
N       0.8187   0.0153   0.3318     N
H       0.8231   0.0077   0.5774     H
H       0.8241   0.5427   0.8523     H
N       0.8262    0.494   0.4678     N
H       0.8303   0.3986    0.743     H
C       0.8346    0.256   0.9732     C
H        0.837   0.8244   0.7117     H
C       0.8417   0.2206    0.406     C
C       0.8423   0.2989   0.0697     C
H       0.8483   0.8935   0.5459     H
O       0.8486   0.9981   0.7662     O
C       0.8505   0.3304    0.432     C
H       0.8542    0.551   0.0618     H
O       0.8599    0.307  0.91052     O
H       0.8639   0.4203   0.2191     H
Cd     0.86547  0.17478 0.801538    Cd
H       0.8706   0.0209   0.0215     H
C       0.8741   0.9615   0.0512     C
C       0.8855   0.4856   0.0676     C
H        0.886   0.6834   0.4324     H
C       0.8899   0.3828   0.7107     C
C       0.8968   0.7867   0.1371     C
H       0.9047    0.727   0.1659     H
C       0.9101   0.4788   0.4139     C
C       0.9129    0.061   0.3424     C
H       0.9163   0.4613   0.0117     H
H       0.9216   0.5266   0.6833     H
N       0.9254   0.2817   0.7007     N
C       0.9262   0.1621   0.3776     C
N       0.9298   0.3815   0.3933     N
H        0.937   0.4924   0.1133     H
H       0.9378   0.2551   0.1683     H
C        0.941   0.6653   0.3951     C
C       0.9431    0.459   0.6729     C
C       0.9448   0.2656   0.1061     C
C       0.9552   0.9457   0.1102     C
H       0.9662   0.2029   0.0737     H
N       0.9689   0.8599   0.1504     N
H       0.9707   0.0228   0.3253     H
C       0.9712   0.5638   0.3811     C
H       0.9722   0.8075   0.3619     H
H       0.9915   0.1902   0.3821     H
C       0.9938   0.7399   0.3527     C
H       0.9951   0.3177    0.099     H
H       0.9978   0.0016   0.8782     H
