data_I
_chemical_name_common  '/Users/gianmarcoterrones/Research/MOFs/MOF_structures/water_stability_work_extra_structs/cleaned_from_CCDC/COWXES'
_cell_length_a 10.70600
_cell_length_b 12.22700
_cell_length_c 19.15400
_cell_angle_alpha 90.00000
_cell_angle_beta  96.94600
_cell_angle_gamma 90.00000
_space_group_name_H-M_alt      'P 1'


loop_
_space_group_symop_operation_xyz
  'x, y, z' 

loop_
_atom_site_label
_atom_site_fract_x
_atom_site_fract_y
_atom_site_fract_z
_atom_site_type_symbol
C       0.0067   0.3755   0.6801     C
C       0.0082   0.5501   0.8912     C
H       0.0191   0.6408   0.9786     H
C       0.0207   0.7384   0.4291     C
H       0.0218   0.8277    0.516     H
C       0.0243   0.4337    0.786     C
H       0.0243   0.8128   0.8404     H
N       0.0248   0.1184    0.075     N
C       0.0281   0.2195   0.5135     C
O       0.0336   0.0624  0.38658     O
C       0.0426   0.9522   0.2848     C
C        0.044   0.1581   0.1402     C
C       0.0523   0.3319   0.6162     C
C       0.0615   0.1599   0.8345     C
C       0.0637   0.5905   0.9549     C
C       0.0691   0.8414   0.1844     C
H       0.0718    0.427   0.1274     H
C       0.0741   0.4745   0.8549     C
C       0.0874   0.0499   0.7331     C
N       0.0928   0.4011  0.73728     N
H       0.0966   0.1976   0.8742     H
C       0.0989   0.0178   0.3477     C
N       0.1003   0.5683  0.23724     N
H       0.1018   0.7567   0.4206     H
O       0.1034   0.7266  0.08885     O
H       0.1124   0.0507   0.0031     H
C       0.1136   0.6054   0.3058     C
C       0.1198   0.8971   0.2442     C
C       0.1233   0.0767   0.0491     C
C       0.1376   0.1037   0.7929     C
H       0.1398    0.015   0.7048     H
N       0.1433   0.2427  0.49763     N
C       0.1515   0.7809   0.1409     C
C       0.1609   0.1582   0.1809     C
H        0.162   0.5552   0.2121     H
C       0.1706   0.3581   0.5987     C
H        0.171   0.1887   0.2258     H
N       0.1778   0.5609  0.98411     N
H       0.1806   0.9638   0.5295     H
H       0.1928   0.5368   0.4334     H
C       0.1933    0.443   0.8856     C
H       0.2064   0.8974   0.2569     H
H       0.2066   0.8306   0.9699     H
C       0.2132   0.3125   0.5404     C
O       0.2154   0.0311  0.35551     O
H       0.2214   0.4067   0.6266     H
H       0.2242   0.1026   0.8057     H
O       0.2314   0.2802  0.34115     O
Zn     0.23417  0.15004  0.43051    Zn
C       0.2382   0.6116   0.3472     C
H       0.2404   0.3931   0.8631     H
C       0.2406   0.4867   0.9499     C
C       0.2417   0.0698   0.0866     C
C       0.2583   0.5698   0.4134     C
C       0.2594   0.9867   0.5501     C
H       0.2596   0.8931   0.6369     H
C       0.2618   0.1116   0.1528     C
Zn     0.26583  0.65004  0.06949    Zn
O       0.2686   0.7802  0.15885     O
H       0.2758   0.6026   0.6943     H
H       0.2786   0.9067   0.8734     H
O       0.2846   0.5311  0.14449     O
C       0.2868   0.8125   0.9596     C
H       0.2934   0.3306   0.5301     H
H       0.2936   0.3974   0.2431     H
C       0.3067    0.943   0.6144     C
H       0.3072   0.0368   0.0666     H
H       0.3194   0.4638   0.9705     H
N       0.3222   0.0609  0.51589     N
H        0.329   0.6887   0.2742     H
C       0.3294   0.8581   0.9013     C
H        0.338   0.0552   0.2879     H
C       0.3391   0.6582   0.3191     C
C       0.3485   0.2809   0.3591     C
N       0.3567   0.7427  0.00237     N
H       0.3602    0.515   0.7952     H
C       0.3624   0.6037   0.7071     C
C       0.3767   0.5767   0.4509     C
C       0.3802   0.3971   0.2558     C
C       0.3864   0.1054   0.1942     C
H       0.3876   0.5507   0.4969     H
O       0.3966   0.2266  0.41115     O
H       0.3982   0.2567   0.0794     H
N       0.3997   0.0683  0.26276     N
C       0.4011   0.5178   0.1523     C
H       0.4034   0.6976   0.6258     H
N       0.4072   0.9011  0.76272     N
C       0.4126   0.5499   0.7669     C
C       0.4259   0.9745   0.6451     C
H       0.4282    0.927   0.3726     H
C       0.4309   0.3414   0.3156     C
C       0.4363   0.0905   0.5451     C
C       0.4385   0.6599   0.6655     C
C       0.4477   0.8319   0.8838     C
C        0.456   0.6581   0.3598     C
C       0.4574   0.4522   0.2152     C
O       0.4664   0.5624  0.11342     O
C       0.4719   0.7195   0.9865     C
N       0.4752   0.6184    0.425     N
H       0.4757   0.3128   0.6596     H
C       0.4757   0.9337    0.714     C
H       0.4782   0.3277    0.984     H
C       0.4793   0.2384   0.0709     C
H       0.4809   0.1408   0.5214     H
C       0.4918   0.0501   0.6088     C
C       0.4933   0.8755   0.8199     C
C       0.5067   0.1245   0.1801     C
C       0.5082   0.9499   0.3912     C
H       0.5191   0.8592   0.4786     H
C       0.5207   0.7616   0.9291     C
H       0.5218   0.6723    0.016     H
C       0.5243   0.0663    0.286     C
H       0.5243   0.6872   0.3404     H
N       0.5248   0.3816    0.575     N
C       0.5281   0.2805   0.0135     C
O       0.5336   0.4376  0.88658     O
C       0.5426   0.5478   0.7848     C
C        0.544   0.3419   0.6402     C
C       0.5523   0.1681   0.1162     C
C       0.5615   0.3401   0.3345     C
C       0.5637   0.9095   0.4549     C
C       0.5691   0.6586   0.6844     C
H       0.5718    0.073   0.6274     H
C       0.5741   0.0255   0.3549     C
C       0.5874   0.4501   0.2331     C
N       0.5928   0.0989  0.23728     N
H       0.5966   0.3024   0.3742     H
C       0.5989   0.4822   0.8477     C
N       0.6003   0.9317  0.73724     N
H       0.6018   0.7433   0.9206     H
O       0.6034   0.7734  0.58885     O
H       0.6124   0.4493   0.5031     H
C       0.6136   0.8946   0.8058     C
C       0.6198   0.6029   0.7442     C
C       0.6233   0.4233   0.5491     C
C       0.6376   0.3963   0.2929     C
H       0.6398    0.485   0.2048     H
N       0.6433   0.2573  0.99763     N
C       0.6515   0.7191   0.6409     C
C       0.6609   0.3418   0.6809     C
H        0.662   0.9448   0.7121     H
C       0.6706   0.1419   0.0987     C
H        0.671   0.3113   0.7258     H
N       0.6778   0.9391  0.48411     N
H       0.6806   0.5362   0.0295     H
H       0.6928   0.9632   0.9334     H
C       0.6933    0.057   0.3856     C
H       0.7064   0.6026   0.7569     H
H       0.7066   0.6694   0.4699     H
C       0.7132   0.1875   0.0404     C
O       0.7154   0.4689  0.85551     O
H       0.7214   0.0933   0.1266     H
H       0.7242   0.3974   0.3057     H
O       0.7314   0.2198  0.84115     O
Zn     0.73417  0.34996  0.93051    Zn
C       0.7382   0.8884   0.8472     C
H       0.7404   0.1069   0.3631     H
C       0.7406   0.0133   0.4499     C
C       0.7417   0.4302   0.5866     C
C       0.7583   0.9302   0.9134     C
C       0.7594   0.5133   0.0501     C
H       0.7596   0.6069   0.1369     H
C       0.7618   0.3884   0.6528     C
Zn     0.76583  0.84996  0.56949    Zn
O       0.7686   0.7198  0.65885     O
H       0.7758   0.8974   0.1943     H
H       0.7786   0.5933   0.3734     H
O       0.7846   0.9689  0.64449     O
C       0.7868   0.6875   0.4596     C
H       0.7934   0.1694   0.0301     H
H       0.7936   0.1026   0.7431     H
C       0.8067    0.557   0.1144     C
H       0.8072   0.4632   0.5666     H
H       0.8194   0.0362   0.4705     H
N       0.8222   0.4391  0.01589     N
H        0.829   0.8113   0.7742     H
C       0.8294   0.6419   0.4013     C
H        0.838   0.4448   0.7879     H
C       0.8391   0.8418   0.8191     C
C       0.8485   0.2191   0.8591     C
N       0.8567   0.7573  0.50237     N
H       0.8602    0.985   0.2952     H
C       0.8624   0.8963   0.2071     C
C       0.8767   0.9233   0.9509     C
C       0.8802   0.1029   0.7558     C
C       0.8864   0.3946   0.6942     C
H       0.8876   0.9493   0.9969     H
O       0.8966   0.2734  0.91115     O
H       0.8982   0.2433   0.5794     H
N       0.8997   0.4317  0.76276     N
C       0.9011   0.9822   0.6523     C
H       0.9034   0.8024   0.1258     H
N       0.9072   0.5989  0.26272     N
C       0.9126   0.9501   0.2669     C
C       0.9259   0.5255   0.1451     C
H       0.9282    0.573   0.8726     H
C       0.9309   0.1586   0.8156     C
C       0.9363   0.4095   0.0451     C
C       0.9385   0.8401   0.1655     C
C       0.9477   0.6681   0.3838     C
C        0.956   0.8419   0.8598     C
C       0.9574   0.0478   0.7152     C
O       0.9664   0.9376  0.61342     O
C       0.9719   0.7805   0.4865     C
N       0.9752   0.8816    0.925     N
H       0.9757   0.1872   0.1596     H
C       0.9757   0.5663    0.214     C
H       0.9782   0.1723    0.484     H
C       0.9793   0.2616   0.5709     C
H       0.9809   0.3592   0.0214     H
C       0.9918   0.4499   0.1088     C
C       0.9933   0.6245   0.3199     C
