data_I
_chemical_name_common  '/Users/gianmarcoterrones/Research/MOFs/MOF_structures/water_stability_work_extra_structs/cleaned_from_CCDC/COWXAO'
_cell_length_a  9.87950
_cell_length_b 12.68853
_cell_length_c 21.14200
_cell_angle_alpha 106.77386
_cell_angle_beta  90.00000
_cell_angle_gamma 112.91147
_space_group_name_H-M_alt      'P 1'


loop_
_space_group_symop_operation_xyz
  'x, y, z' 

loop_
_atom_site_label
_atom_site_fract_x
_atom_site_fract_y
_atom_site_fract_z
_atom_site_type_symbol
H       0.0058   0.8976   0.1873     H
O      0.00584  0.99188  0.60007     O
H       0.0113   0.7956   0.2603     H
O      0.01396  0.00812  0.89993     O
C      0.03077  0.39594   0.1637     C
C       0.0368    0.835   0.1739     C
C      0.03789  0.77298   0.2179     C
N      0.04673  0.78266  0.96009     N
H       0.0717   0.2222   0.5587     H
C      0.07387  0.49174  0.22888     C
N      0.07838  0.80916  0.11286     N
C      0.07869  0.67738   0.1983     C
H       0.0791    0.891   0.7961     H
C      0.08456  0.25572    0.076     C
C      0.08833  0.60966  0.24285     C
N      0.10244  0.47008  0.28582     N
O      0.10336  0.79172  0.67195     O
C      0.10519  0.64298   0.8732     C
H       0.1082   0.1024   0.3127     H
C      0.11311  0.71322   0.0941     C
C      0.11506  0.64652   0.1339     C
C      0.11661  0.98842   0.5731     C
O      0.11862  0.95064  0.51157     O
Zn      0.1198   0.9271  0.04971    Zn
N      0.12261  0.65922  0.31045     N
C      0.12664  0.34348   0.1382     C
C      0.12819  0.01158   0.9269     C
C      0.13125   0.5737   0.3343     C
H        0.136   0.7312   0.3335     H
H       0.1374    0.691   0.0512     H
H       0.1403    0.581   0.1183     H
C      0.14082  0.73244    0.934     C
H       0.1485   0.4188   0.3922     H
H       0.1487   0.3666   0.6623     H
H       0.1505   0.2222   0.0587     H
C      0.15888  0.58756   0.4048     C
C       0.1626   0.4918   0.4238     C
O      0.16798  0.04936  0.98843     O
C      0.17074  0.90048  0.81389     C
C      0.17116  0.25572    0.576     C
H       0.1718   0.6092   0.8573     H
H       0.1765   0.7598   0.4438     H
C      0.17806  0.69412   0.4545     C
H       0.1881    0.109   0.7039     H
C       0.1882   0.5092   0.4916     C
Zn      0.1927   0.0729  0.45029    Zn
H       0.1937   0.4466   0.5044     H
C      0.19789  0.77978   0.7021     C
C      0.19931  0.69902   0.5199     C
C       0.2018    0.165   0.3261     C
N        0.205   0.6104  0.53896     N
H       0.2105   0.7698   0.5529     H
H       0.2157   0.2044   0.2397     H
C      0.21684  0.34348   0.6382     C
H       0.2179   0.3666   0.1623     H
C      0.22295   0.9643   0.8808     C
O      0.23129  0.90398  0.36595     O
H       0.2332   0.7592    0.958     H
H       0.2529   0.4466   0.0044     H
C      0.25596  0.85112    0.774     C
C      0.25865   0.0357   0.6192     C
O       0.2616   0.7052  0.67584     O
N      0.26407  0.21734  0.53991     N
C      0.26491  0.22702   0.2821     C
N      0.26922  0.19084  0.38714     N
C      0.27026  0.09952  0.68611     C
H       0.2703   0.4188   0.8922     H
H       0.3091   0.7254   0.6388     H
O      0.31164  0.20828  0.82805     O
C        0.321   0.5092   0.9916     C
O      0.32731  0.09602  0.13405     O
C       0.3292   0.4918   0.9238     C
O      0.33271  0.94182  0.05609     O
C      0.36101  0.96682  0.39304     C
C      0.36473  0.98406  0.90655     C
C      0.36517  0.39594   0.6637     C
N      0.36764  0.47008  0.78582     N
H       0.3729   0.9728   0.5488     H
C      0.38067  0.01594  0.59345     C
H       0.3822    0.835   0.2727     H
O      0.39089  0.05818  0.44391     O
C      0.39419  0.03318  0.10696     C
C      0.39666  0.86932   0.7996     C
C      0.39989  0.28678   0.4059     C
H       0.4001   0.0272   0.9512     H
C      0.40131  0.32262   0.3017     C
H       0.4048   0.2688   0.1665     H
C      0.40484  0.14888    0.726     C
N       0.4054   0.6104  0.03896     N
C      0.40838  0.26756    0.566     C
H       0.4163   0.7254   0.1388     H
H       0.4167   0.2402   0.0562     H
C      0.41787  0.49174  0.72888     C
C      0.41811  0.22022   0.7979     C
C      0.42868  0.58756   0.9048     C
H       0.4374   0.6092   0.3573     H
H       0.4407   0.2302   0.9471     H
H       0.4407    0.581   0.6183     H
C      0.44245   0.5737   0.8343     C
O       0.4436   0.7052  0.17584     O
H       0.4464    0.309   0.4488     H
C      0.45207  0.93914  0.86531     C
H       0.4528    0.835   0.7727     H
C      0.46221  0.35702   0.6268     C
N      0.46339  0.34078  0.18955     N
C      0.46854  0.35348   0.3661     C
C      0.47266  0.86932   0.2996     C
H        0.474   0.2408    0.542     H
C      0.47867  0.39034  0.25715     C
C      0.48394  0.30588   0.0455     C
C      0.48707  0.93914  0.36531     C
C      0.49971  0.69902   0.0199     C
C      0.50029  0.30098   0.9801     C
C      0.51293  0.06086  0.63469     C
C      0.51606  0.69412   0.9545     C
C      0.52133  0.60966  0.74285     C
H        0.526   0.7592    0.458     H
C      0.52734  0.13068   0.7004     C
C      0.53146  0.64652   0.6339     C
N      0.53661  0.65922  0.81045     N
C      0.53779  0.64298   0.3732     C
H       0.5472    0.165   0.2273     H
C      0.54793  0.06086  0.13469     C
H       0.5536    0.691   0.5512     H
O       0.5564   0.2948  0.82416     O
C      0.55755   0.4263   0.1657     C
H       0.5593    0.419   0.3817     H
H       0.5593   0.7698   0.0529     H
H       0.5626   0.3908   0.6427     H
C      0.57132  0.41244   0.0952     C
C      0.58189  0.77978   0.2021     C
C      0.58213  0.50826  0.27112     C
H       0.5833   0.7598   0.9438     H
H       0.5837   0.2746   0.8612     H
C      0.59162  0.73244    0.434     C
N       0.5946   0.3896  0.96104     N
C      0.59516  0.85112    0.274     C
H       0.5952   0.7312   0.8335     H
C      0.59869  0.67738   0.6983     C
H       0.5999   0.9728   0.0488     H
C      0.60011  0.71322   0.5941     C
C      0.60334  0.13068   0.2004     C
C      0.60581  0.96682  0.89304     C
O      0.60911  0.94182  0.55609     O
H       0.6178    0.165   0.7273     H
C      0.61933  0.98406  0.40655     C
H       0.6271   0.0272   0.4512     H
N      0.63236  0.52992  0.21418     N
C      0.63483  0.60406   0.3363     C
C      0.63527  0.01594  0.09345     C
C      0.63899  0.03318  0.60696     C
O      0.66729  0.05818  0.94391     O
C       0.6708   0.5082   0.0762     C
O      0.67269  0.90398  0.86595     O
C        0.679   0.4908   0.0084     C
O      0.68836  0.79172  0.17195     O
H       0.6909   0.2746   0.3612     H
H       0.7297   0.5812   0.1078     H
C      0.72974  0.90048  0.31389     C
N      0.73078  0.80916  0.61286     N
C      0.73509  0.77298   0.7179     C
N      0.73593  0.78266  0.46009     N
O       0.7384   0.2948  0.32416     O
C      0.74135   0.9643   0.3808     C
C      0.74404  0.14888    0.226     C
H       0.7471   0.5534   0.9956     H
H       0.7668   0.2408    0.042     H
O      0.76871  0.09602  0.63405     O
C      0.77705   0.0357   0.1192     C
H       0.7821   0.6334   0.8377     H
C      0.78316  0.65652   0.3618     C
H       0.7843   0.7956   0.7603     H
H       0.7895   0.2302   0.4471     H
N        0.795   0.3896  0.46104     N
C       0.7982    0.835   0.6739     C
C      0.80069  0.30098   0.4801     C
C      0.80211  0.22022   0.2979     C
H       0.8063   0.5534   0.4956     H
Zn      0.8073   0.9271  0.54971    Zn
C       0.8118   0.4908   0.5084     C
H       0.8119    0.891   0.2961     H
C      0.82194  0.30588   0.5455     C
H       0.8235   0.2402   0.5562     H
H       0.8282   0.3908   0.1427     H
C      0.82884  0.74428    0.424     C
C      0.82926  0.09952  0.18611     C
O      0.83202  0.95064  0.01157     O
C       0.8374   0.5082   0.5762     C
C      0.84112  0.41244   0.5952     C
H       0.8495   0.7778   0.9413     H
H       0.8513   0.6334   0.3377     H
H       0.8515   0.5812   0.6078     H
C      0.85918  0.26756    0.066     C
H       0.8597    0.419   0.8817     H
H       0.8626    0.309   0.9488     H
H        0.864   0.2688   0.6665     H
C      0.86875   0.4263   0.6657     C
C      0.87181  0.98842   0.0731     C
C      0.87336  0.65652   0.8618     C
N      0.87739  0.34078  0.68955     N
Zn      0.8802   0.0729  0.95029    Zn
O      0.88138  0.04936  0.48843     O
C      0.88339  0.01158   0.4269     C
C      0.88494  0.35348   0.8661     C
C      0.88689  0.28678   0.9059     C
H       0.8918   0.8976   0.6873     H
C      0.89481  0.35702   0.1268     C
O      0.89664  0.20828  0.32805     O
N      0.89756  0.52992  0.71418     N
C      0.91167  0.39034  0.75715     C
C      0.91544  0.74428    0.924     C
H       0.9209    0.109   0.2039     H
C      0.92131  0.32262   0.8017     C
N      0.92162  0.19084  0.88714     N
C      0.92613  0.50826  0.77112     C
H       0.9283   0.7778   0.4413     H
N      0.95327  0.21734  0.03991     N
C      0.96211  0.22702   0.7821     C
C       0.9632    0.165   0.8261     C
C      0.96923  0.60406   0.8363     C
O      0.98604  0.99188  0.10007     O
H       0.9887   0.2044   0.7397     H
O      0.99416  0.00812  0.39993     O
H       0.9942   0.1024   0.8127     H
