data_I
_chemical_name_common  '/Users/gianmarcoterrones/Downloads/Cu-EBTC'
_cell_length_a 20.13112
_cell_length_b 20.13112
_cell_length_c 20.55592
_cell_angle_alpha 90.00000
_cell_angle_beta  90.00000
_cell_angle_gamma 90.00000
_space_group_name_H-M_alt      'P 1'


loop_
_space_group_symop_operation_xyz
  'x, y, z' 

loop_
_atom_site_label
_atom_site_fract_x
_atom_site_fract_y
_atom_site_fract_z
_atom_site_type_symbol
C          0.0 0.087716 0.414111     C
C          0.0 0.087716 0.585911     C
C          0.0 0.141113 0.360511     C
C          0.0 0.141113 0.639511     C
C          0.0 0.243216 0.267513     C
C          0.0 0.243216 0.732513     C
C          0.0 0.301013 0.213514     C
C          0.0 0.301013 0.786514     C
O          0.0 0.320414      0.0     O
C          0.0   0.3662   0.2485     C
C          0.0   0.3662   0.7525     C
Cu         0.0  0.43442      0.0    Cu
Cu         0.0  0.56562      0.0    Cu
C          0.0   0.6342   0.2485     C
C          0.0   0.6342   0.7525     C
O          0.0 0.679614      0.0     O
C          0.0 0.699013 0.213514     C
C          0.0 0.699013 0.786514     C
C          0.0 0.756816 0.267513     C
C          0.0 0.756816 0.732513     C
C          0.0 0.858913 0.360511     C
C          0.0 0.858913 0.639511     C
C          0.0 0.912316 0.414111     C
C          0.0 0.912316 0.585911     C
H       0.0399   0.2972   0.1856     H
H       0.0399   0.2972   0.8144     H
H       0.0399   0.7028   0.1856     H
H       0.0399   0.7028   0.8144     H
O      0.05488  0.06738  0.43167     O
O      0.05488  0.06738  0.56847     O
O      0.05488  0.93278  0.43167     O
O      0.05488  0.93278  0.56847     O
C      0.05929  0.21369  0.29331     C
C      0.05929  0.21369  0.70671     C
C      0.05929  0.78649  0.29331     C
C      0.05929  0.78649  0.70671     C
C      0.06007  0.17241  0.34189     C
C      0.06007  0.17241  0.65829     C
C      0.06007  0.82761  0.34189     C
C      0.06007  0.82761  0.65829     C
Cu     0.06602      0.0      0.5    Cu
O      0.06851  0.44207  0.06388     O
O      0.06851  0.44207  0.93628     O
O      0.06851  0.55807  0.06387     O
O      0.06851  0.55807  0.93627     O
C     0.087111      0.5 0.087315     C
C     0.087111      0.5 0.912715     C
H       0.1002   0.1634   0.3643     H
H       0.1002   0.1634   0.6357     H
H       0.1002   0.8366   0.3643     H
H       0.1002   0.8366   0.6357     H
C      0.12777  0.23978  0.26898     C
C      0.12777  0.23978  0.73118     C
C      0.12777  0.76038  0.26898     C
C      0.12777  0.76038  0.73118     C
O      0.14147  0.23477  0.21527     O
O      0.14147  0.23477  0.78487     O
O      0.14147  0.76537  0.21527     O
O      0.14147  0.76537  0.78487     O
C       0.1422      0.0   0.2842     C
C       0.1422      0.0   0.7162     C
C     0.143213      0.5 0.133715     C
C     0.143213      0.5 0.866315     C
H        0.148   0.3976   0.1442     H
H        0.148   0.3976   0.8558     H
H        0.148   0.6024   0.1442     H
H        0.148   0.6024   0.8558     H
C     0.166216  0.43847 0.159011     C
C     0.166216  0.43847 0.841011     C
C     0.166216  0.56167 0.159011     C
C     0.166216  0.56167 0.841011     C
O      0.16897  0.26055  0.31575     O
O      0.16897  0.26055  0.68435     O
O      0.16897  0.73955  0.31575     O
O      0.16897  0.73955  0.68435     O
O     0.173211      0.0      0.5     O
H       0.1961   0.0402   0.2032     H
H       0.1961   0.0402   0.7968     H
H       0.1961   0.9598   0.2032     H
H       0.1961   0.9598   0.7968     H
C     0.197713      0.0 0.230818     C
C     0.197713      0.0 0.769218     C
C     0.214911  0.43938  0.20518     C
C     0.214911  0.43938  0.79498     C
C     0.214911  0.56078  0.20518     C
C     0.214911  0.56078  0.79498     C
O      0.22191 0.210414  0.08728     O
O      0.22191 0.210414  0.91288     O
O      0.22191 0.789614  0.08728     O
O      0.22191 0.789614  0.91288     O
O      0.23487  0.32977  0.18295     O
O      0.23487  0.32977  0.81715     O
O      0.23487  0.67037  0.18295     O
O      0.23487  0.67037  0.81715     O
Cu    0.2364014 0.2339212 0.189249    Cu
Cu    0.2364014 0.2339212 0.810769    Cu
Cu    0.2364014 0.7660812 0.189249    Cu
Cu    0.2364014 0.7660812 0.810769    Cu
C      0.23649  0.37079  0.22179     C
C      0.23649  0.37079  0.77839     C
C      0.23649  0.62939  0.22179     C
C      0.23649  0.62939  0.77839     C
O      0.24578  0.13977  0.21878     O
O      0.24578  0.13977  0.78138     O
O      0.24578  0.86037  0.21878     O
O      0.24578  0.86037  0.78138     O
C     0.246111      0.5 0.226513     C
C     0.246111      0.5 0.773513     C
C     0.253911      0.0 0.273513     C
C     0.253911      0.0 0.726513     C
O      0.25438  0.36037  0.28138     O
O      0.25438  0.36037  0.71878     O
O      0.25438  0.63977  0.28138     O
O      0.25438  0.63977  0.71878     O
Cu    0.2636014 0.2660812 0.310769    Cu
Cu    0.2636014 0.2660812 0.689249    Cu
Cu    0.2636014 0.7339212 0.310769    Cu
Cu    0.2636014 0.7339212 0.689249    Cu
C      0.26369  0.12939  0.27839     C
C      0.26369  0.12939  0.72179     C
C      0.26369  0.87079  0.27839     C
C      0.26369  0.87079  0.72179     C
O      0.26527  0.17037  0.31715     O
O      0.26527  0.17037  0.68295     O
O      0.26527  0.82977  0.31715     O
O      0.26527  0.82977  0.68295     O
O      0.27811 0.289614  0.41288     O
O      0.27811 0.289614  0.58728     O
O      0.27811 0.710414  0.41288     O
O      0.27811 0.710414  0.58728     O
C     0.285111  0.06078  0.29498     C
C     0.285111  0.06078  0.70518     C
C     0.285111  0.93938  0.29498     C
C     0.285111  0.93938  0.70518     C
C     0.302313      0.5 0.269218     C
C     0.302313      0.5 0.730818     C
H       0.3039   0.4598   0.2968     H
H       0.3039   0.4598   0.7032     H
H       0.3039   0.5402   0.2968     H
H       0.3039   0.5402   0.7032     H
O     0.326811      0.5      0.0     O
O      0.33117  0.23955  0.18435     O
O      0.33117  0.23955  0.81575     O
O      0.33117  0.76055  0.18435     O
O      0.33117  0.76055  0.81575     O
C     0.333816  0.06167 0.341011     C
C     0.333816  0.06167 0.659011     C
C     0.333816  0.93847 0.341011     C
C     0.333816  0.93847 0.659011     C
H        0.352   0.1024   0.3558     H
H        0.352   0.1024   0.6442     H
H        0.352   0.8976   0.3558     H
H        0.352   0.8976   0.6442     H
C     0.356813      0.0 0.366315     C
C     0.356813      0.0 0.633715     C
C       0.3582      0.5   0.2162     C
C       0.3582      0.5   0.7842     C
O      0.35867  0.26537  0.28487     O
O      0.35867  0.26537  0.71527     O
O      0.35867  0.73477  0.28487     O
O      0.35867  0.73477  0.71527     O
C      0.37237  0.26038  0.23118     C
C      0.37237  0.26038  0.76898     C
C      0.37237  0.73978  0.23118     C
C      0.37237  0.73978  0.76898     C
H       0.3998   0.3366   0.1357     H
H       0.3998   0.3366   0.8643     H
H       0.3998   0.6634   0.1357     H
H       0.3998   0.6634   0.8643     H
C     0.412911      0.0 0.412715     C
C     0.412911      0.0 0.587315     C
O      0.43151  0.05807  0.43628     O
O      0.43151  0.05807  0.56388     O
O      0.43151  0.94207  0.43627     O
O      0.43151  0.94207  0.56387     O
Cu     0.43402      0.5      0.0    Cu
C      0.44007  0.32761  0.15829     C
C      0.44007  0.32761  0.84189     C
C      0.44007  0.67241  0.15829     C
C      0.44007  0.67241  0.84189     C
C      0.44089  0.28649  0.20671     C
C      0.44089  0.28649  0.79331     C
C      0.44089  0.71369  0.20671     C
C      0.44089  0.71369  0.79331     C
O      0.44528  0.43278  0.06847     O
O      0.44528  0.43278  0.93167     O
O      0.44528  0.56738  0.06847     O
O      0.44528  0.56738  0.93167     O
H       0.4601   0.2028   0.3144     H
H       0.4601   0.2028   0.6856     H
H       0.4601   0.7972   0.3144     H
H       0.4601   0.7972   0.6856     H
Cu         0.5  0.06562      0.5    Cu
C          0.5   0.1342   0.2525     C
C          0.5   0.1342   0.7485     C
O          0.5 0.179614      0.5     O
C          0.5 0.199013 0.286514     C
C          0.5 0.199013 0.713514     C
C          0.5 0.256816 0.232513     C
C          0.5 0.256816 0.767513     C
C          0.5 0.358913 0.139511     C
C          0.5 0.358913 0.860511     C
C          0.5 0.412316 0.085911     C
C          0.5 0.412316 0.914111     C
C          0.5 0.587716 0.085911     C
C          0.5 0.587716 0.914111     C
C          0.5 0.641113 0.139511     C
C          0.5 0.641113 0.860511     C
C          0.5 0.743216 0.232513     C
C          0.5 0.743216 0.767513     C
C          0.5 0.801013 0.286514     C
C          0.5 0.801013 0.713514     C
O          0.5 0.820414      0.5     O
C          0.5   0.8662   0.2525     C
C          0.5   0.8662   0.7485     C
Cu         0.5  0.93442      0.5    Cu
H       0.5399   0.2028   0.3144     H
H       0.5399   0.2028   0.6856     H
H       0.5399   0.7972   0.3144     H
H       0.5399   0.7972   0.6856     H
O      0.55488  0.43278  0.06847     O
O      0.55488  0.43278  0.93167     O
O      0.55488  0.56738  0.06847     O
O      0.55488  0.56738  0.93167     O
C      0.55929  0.28649  0.20671     C
C      0.55929  0.28649  0.79331     C
C      0.55929  0.71369  0.20671     C
C      0.55929  0.71369  0.79331     C
C      0.56007  0.32761  0.15829     C
C      0.56007  0.32761  0.84189     C
C      0.56007  0.67241  0.15829     C
C      0.56007  0.67241  0.84189     C
Cu     0.56602      0.5      0.0    Cu
O      0.56851  0.05807  0.43627     O
O      0.56851  0.05807  0.56387     O
O      0.56851  0.94207  0.43627     O
O      0.56851  0.94207  0.56387     O
C     0.587111      0.0 0.412715     C
C     0.587111      0.0 0.587315     C
H       0.6002   0.3366   0.1357     H
H       0.6002   0.3366   0.8643     H
H       0.6002   0.6634   0.1357     H
H       0.6002   0.6634   0.8643     H
C      0.62777  0.26038  0.23118     C
C      0.62777  0.26038  0.76898     C
C      0.62777  0.73978  0.23118     C
C      0.62777  0.73978  0.76898     C
O      0.64147  0.26537  0.28487     O
O      0.64147  0.26537  0.71527     O
O      0.64147  0.73477  0.28487     O
O      0.64147  0.73477  0.71527     O
C       0.6422      0.5   0.2162     C
C       0.6422      0.5   0.7842     C
C     0.643213      0.0 0.366315     C
C     0.643213      0.0 0.633715     C
H        0.648   0.1024   0.3558     H
H        0.648   0.1024   0.6442     H
H        0.648   0.8976   0.3558     H
H        0.648   0.8976   0.6442     H
C     0.666216  0.06167 0.341011     C
C     0.666216  0.06167 0.659011     C
C     0.666216  0.93847 0.341011     C
C     0.666216  0.93847 0.659011     C
O      0.66897  0.23955  0.18435     O
O      0.66897  0.23955  0.81575     O
O      0.66897  0.76055  0.18435     O
O      0.66897  0.76055  0.81575     O
O     0.673211      0.5      0.0     O
H       0.6961   0.4598   0.2968     H
H       0.6961   0.4598   0.7032     H
H       0.6961   0.5402   0.2968     H
H       0.6961   0.5402   0.7032     H
C     0.697713      0.5 0.269218     C
C     0.697713      0.5 0.730818     C
C     0.714911  0.06078  0.29498     C
C     0.714911  0.06078  0.70518     C
C     0.714911  0.93938  0.29498     C
C     0.714911  0.93938  0.70518     C
O      0.72191 0.289614  0.41288     O
O      0.72191 0.289614  0.58728     O
O      0.72191 0.710414  0.41288     O
O      0.72191 0.710414  0.58728     O
O      0.73487  0.17037  0.31715     O
O      0.73487  0.17037  0.68295     O
O      0.73487  0.82977  0.31715     O
O      0.73487  0.82977  0.68295     O
Cu    0.7364014 0.2660812 0.310769    Cu
Cu    0.7364014 0.2660812 0.689249    Cu
Cu    0.7364014 0.7339212 0.310769    Cu
Cu    0.7364014 0.7339212 0.689249    Cu
C      0.73649  0.12939  0.27839     C
C      0.73649  0.12939  0.72179     C
C      0.73649  0.87079  0.27839     C
C      0.73649  0.87079  0.72179     C
O      0.74578  0.36037  0.28138     O
O      0.74578  0.36037  0.71878     O
O      0.74578  0.63977  0.28138     O
O      0.74578  0.63977  0.71878     O
C     0.746111      0.0 0.273513     C
C     0.746111      0.0 0.726513     C
C     0.753911      0.5 0.226513     C
C     0.753911      0.5 0.773513     C
O      0.75438  0.13977  0.21878     O
O      0.75438  0.13977  0.78138     O
O      0.75438  0.86037  0.21878     O
O      0.75438  0.86037  0.78138     O
Cu    0.7636014 0.2339212 0.189249    Cu
Cu    0.7636014 0.2339212 0.810769    Cu
Cu    0.7636014 0.7660812 0.189249    Cu
Cu    0.7636014 0.7660812 0.810769    Cu
C      0.76369  0.37079  0.22179     C
C      0.76369  0.37079  0.77839     C
C      0.76369  0.62939  0.22179     C
C      0.76369  0.62939  0.77839     C
O      0.76527  0.32977  0.18295     O
O      0.76527  0.32977  0.81715     O
O      0.76527  0.67037  0.18295     O
O      0.76527  0.67037  0.81715     O
O      0.77811 0.210414  0.08728     O
O      0.77811 0.210414  0.91288     O
O      0.77811 0.789614  0.08728     O
O      0.77811 0.789614  0.91288     O
C     0.785111  0.43938  0.20518     C
C     0.785111  0.43938  0.79498     C
C     0.785111  0.56078  0.20518     C
C     0.785111  0.56078  0.79498     C
C     0.802313      0.0 0.230818     C
C     0.802313      0.0 0.769218     C
H       0.8039   0.0402   0.2032     H
H       0.8039   0.0402   0.7968     H
H       0.8039   0.9598   0.2032     H
H       0.8039   0.9598   0.7968     H
O     0.826811      0.0      0.5     O
O      0.83117  0.26055  0.31575     O
O      0.83117  0.26055  0.68435     O
O      0.83117  0.73955  0.31575     O
O      0.83117  0.73955  0.68435     O
C     0.833816  0.43847 0.159011     C
C     0.833816  0.43847 0.841011     C
C     0.833816  0.56167 0.159011     C
C     0.833816  0.56167 0.841011     C
H        0.852   0.3976   0.1442     H
H        0.852   0.3976   0.8558     H
H        0.852   0.6024   0.1442     H
H        0.852   0.6024   0.8558     H
C     0.856813      0.5 0.133715     C
C     0.856813      0.5 0.866315     C
C       0.8582      0.0   0.2842     C
C       0.8582      0.0   0.7162     C
O      0.85867  0.23477  0.21527     O
O      0.85867  0.23477  0.78487     O
O      0.85867  0.76537  0.21527     O
O      0.85867  0.76537  0.78487     O
C      0.87237  0.23978  0.26898     C
C      0.87237  0.23978  0.73118     C
C      0.87237  0.76038  0.26898     C
C      0.87237  0.76038  0.73118     C
H       0.8998   0.1634   0.3643     H
H       0.8998   0.1634   0.6357     H
H       0.8998   0.8366   0.3643     H
H       0.8998   0.8366   0.6357     H
C     0.912911      0.5 0.087315     C
C     0.912911      0.5 0.912715     C
O      0.93151  0.44207  0.06387     O
O      0.93151  0.44207  0.93627     O
O      0.93151  0.55807  0.06387     O
O      0.93151  0.55807  0.93627     O
Cu     0.93402      0.0      0.5    Cu
C      0.94007  0.17241  0.34189     C
C      0.94007  0.17241  0.65829     C
C      0.94007  0.82761  0.34189     C
C      0.94007  0.82761  0.65829     C
C      0.94089  0.21369  0.29331     C
C      0.94089  0.21369  0.70671     C
C      0.94089  0.78649  0.29331     C
C      0.94089  0.78649  0.70671     C
O      0.94528  0.06738  0.43167     O
O      0.94528  0.06738  0.56847     O
O      0.94528  0.93278  0.43167     O
O      0.94528  0.93278  0.56847     O
H       0.9601   0.2972   0.1856     H
H       0.9601   0.2972   0.8144     H
H       0.9601   0.7028   0.1856     H
H       0.9601   0.7028   0.8144     H
