data_I
_chemical_name_common  '/Users/gianmarcoterrones/Downloads/Cu-MBTC_no_solvent'
_cell_length_a 22.59591
_cell_length_b 19.81665
_cell_length_c 19.81700
_cell_angle_alpha 90.00000
_cell_angle_beta  90.00000
_cell_angle_gamma 90.00000
_space_group_name_H-M_alt      'P 1'


loop_
_space_group_symop_operation_xyz
  'x, y, z' 

loop_
_atom_site_label
_atom_site_fract_x
_atom_site_fract_y
_atom_site_fract_z
_atom_site_type_symbol
O     -0.06046  0.44193 -0.06636     O
O     -0.06046  0.44193  0.06644     O
O     -0.06046  0.55813 -0.06636     O
O     -0.06046  0.55813  0.06644     O
O     -0.05976  0.43214  0.44253     O
O     -0.05976  0.43214  0.55753     O
O     -0.05976  0.56794  0.44253     O
O     -0.05976  0.56794  0.55753     O
H     -0.0298519 0.308267 -0.0327611     H
H     -0.0298519 0.691873 -0.0327611     H
H     -0.0293774 0.533315 0.308067     H
H     -0.0293774 0.533315 0.692073     H
H     -0.010614 0.454333 0.308067     H
H     -0.00995677 0.308267 0.0458583     H
O          0.0  0.32497      0.0     O
Cu         0.0 0.433151      0.0    Cu
Cu         0.0 0.433151      1.0    Cu
O          0.0      0.5  0.32477     O
Cu         0.0      0.5 0.4339112    Cu
Cu         0.0      0.5 0.5660912    Cu
O          0.0      0.5  0.67537     O
Cu         0.0 0.566851      0.0    Cu
Cu         0.0 0.566851      1.0    Cu
O          0.0  0.67517      0.0     O
H     0.0398087 0.691873 -0.0130972     H
H     0.0399914 0.512352 0.692073     H
O      0.05984  0.43214  0.44253     O
O      0.05984  0.43214  0.55753     O
O      0.05984  0.56794  0.44253     O
O      0.05984  0.56794  0.55753     O
O      0.06054  0.44193 -0.06636     O
O      0.06054  0.44193  0.06644     O
O      0.06054  0.55813 -0.06636     O
O      0.06054  0.55813  0.06644     O
H     0.0770504 0.751826  0.76821     H
H     0.0771047 0.248357 0.231929     H
C      0.08017  0.41388      0.5     C
C      0.08017  0.58628      0.5     C
C      0.08318      0.5  0.08611     C
C      0.08318      0.5  0.91391     C
H     0.0893499  0.16883 0.754965     H
H     0.0894245  0.83134 0.245174     H
H     0.0943935 0.199307  0.16947     H
H     0.0943971 0.800814 0.169466     H
H     0.0944418 0.199313  0.83068     H
H     0.0944456 0.800809 0.830684     H
O      0.10115  0.20877  0.21807     O
O      0.10115  0.20877  0.78207     O
O      0.10115  0.79137  0.21807     O
O      0.10115  0.79137  0.78207     O
H     0.126559 0.644427 0.606377     H
H     0.126565 0.355718  0.60638     H
H     0.127002 0.646903 0.392578     H
H     0.127007  0.35324 0.392575     H
C      0.12707      0.5  0.13277     C
C      0.12707      0.5  0.86737     C
H     0.139638 0.607742 0.863719     H
H     0.139655 0.392327 0.863708     H
H     0.139662 0.607735  0.13634     H
H     0.139679 0.392334 0.136351     H
C      0.14109  0.35818   0.4912     C
C      0.14109  0.64198   0.4912     C
C      0.15155  0.33957  0.43785     C
C      0.15155  0.33957  0.56225     C
C      0.15155  0.66057  0.43785     C
C      0.15155  0.66057  0.56225     C
C      0.15535  0.44034  0.15625     C
C      0.15535  0.44034  0.84385     C
C      0.15535  0.55974  0.15625     C
C      0.15535  0.55974  0.84385     C
H     0.181097 0.754203 0.022297     H
H     0.181113 0.245761 0.0222463     H
O      0.18584  0.24404  0.32763     O
O      0.18584  0.24404  0.67243     O
O      0.18584  0.75604  0.32764     O
O      0.18584  0.75604  0.67244     O
H     0.187132 0.0266155 0.754675     H
H     0.187138 0.026621 0.245511     H
O      0.18863  0.32783  0.22044     O
O      0.18863  0.32783  0.77964     O
O      0.18864  0.67224  0.22044     O
O      0.18864  0.67224  0.77964     O
Cu    0.195496 -0.230504 0.234946    Cu
Cu    0.195496 -0.230504 0.765066    Cu
Cu    0.195496 0.230516 -0.234934    Cu
Cu    0.195496 0.230516 0.234946    Cu
Cu    0.195496 0.230516 0.765066    Cu
Cu    0.195496 0.769496 -0.234934    Cu
Cu    0.195496 0.769496 0.234946    Cu
Cu    0.195496 0.769496 0.765066    Cu
C      0.20287  0.43855  0.20407     C
C      0.20287  0.43855  0.79607     C
C      0.20287  0.56155  0.20407     C
C      0.20287  0.56155  0.79607     C
C      0.20424  0.29345  0.43974     C
C      0.20424  0.29345  0.56034     C
C      0.20424  0.70665  0.43974     C
C      0.20424  0.70665  0.56034     C
H     0.206422 0.712358 -0.0516496     H
H     0.206437 0.287704 -0.0516452     H
H     0.212506 -0.0518043 0.212864     H
H     0.212512 -0.0518044 0.787324     H
C     0.217615 0.273915      0.0     C
C     0.217615 0.726115      0.0     C
C      0.22065  0.27345  0.37115     C
C      0.22065  0.27345  0.62895     C
C      0.22065  0.72665  0.37115     C
C      0.22065  0.72665  0.62895     C
C      0.22338  0.27267      0.5     C
C      0.22338  0.72747      0.5     C
C      0.22365  0.36925  0.22015     C
C      0.22365  0.36925  0.77995     C
C      0.22365  0.63085  0.22015     C
C      0.22365  0.63085  0.77995     C
C     0.225013      0.0  0.22439     C
C     0.225013      0.0  0.77579     C
O      0.22504 -0.13876  0.26244     O
O      0.22504 -0.13876  0.73764     O
O      0.22504  0.13884  0.26244     O
O      0.22504  0.13884  0.73764     O
H     0.225599 0.319442 0.0293989     H
H     0.225659 0.680572 0.0293527     H
C      0.22691      0.5  0.22718     C
C      0.22691      0.5  0.77298     C
O      0.22795  0.21694 -0.14366     O
O      0.22795  0.21694  0.14374     O
O      0.22795  0.78314 -0.14366     O
O      0.22795  0.78314  0.14374     O
H     0.239323 0.0251833 0.178353     H
H     0.239329 0.0251889 0.821822     H
H     0.260721 0.474744 0.321794     H
H     0.260728 0.474749  0.67838     H
O      0.27215  0.28314  0.35634     O
O      0.27215  0.28314  0.64374     O
O      0.27215  0.71694  0.35634     O
O      0.27215  0.71694  0.64374     O
C      0.27311      0.0  0.27298     C
C      0.27311      0.0  0.72718     C
H     0.274311 0.180551 0.470701     H
H     0.274371 0.819463 0.470655     H
C     0.275013      0.5  0.27579     C
C     0.275013      0.5  0.72439     C
O      0.27504  0.36124  0.23764     O
O      0.27504  0.36124  0.76244     O
O      0.27504  0.63884  0.23764     O
O      0.27504  0.63884  0.76244     O
C      0.27645 -0.13075  0.27995     C
C      0.27645 -0.13075  0.72015     C
C      0.27645  0.13085  0.27995     C
C      0.27645  0.13085  0.72015     C
C      0.27678  0.22747      0.0     C
C      0.27678  0.77267      0.0     C
C      0.27945  0.22665 -0.12885     C
C      0.27945  0.22665  0.12895     C
C      0.27945  0.77345 -0.12885     C
C      0.27945  0.77345  0.12895     C
C     0.282415 0.226115      0.5     C
C     0.282415 0.773915      0.5     C
H      0.28747 0.551806 0.287381     H
H     0.287476 0.551805 0.712807     H
H     0.293613 0.787664  0.55165     H
H     0.293628 0.212398 0.551655     H
C      0.29584  0.20665 -0.06026     C
C      0.29584  0.20665  0.06034     C
C      0.29584  0.79345 -0.06026     C
C      0.29584  0.79345  0.06034     C
C      0.29727 -0.06145  0.29607     C
C      0.29727 -0.06145  0.70407     C
C      0.29727  0.06155  0.29607     C
C      0.29727  0.06155  0.70407     C
Cu    0.304516 -0.269484 0.265066    Cu
Cu    0.304516 -0.269484 0.734946    Cu
Cu    0.304516 0.269496 -0.265054    Cu
Cu    0.304516 0.269496 0.265066    Cu
Cu    0.304516 0.269496 0.734946    Cu
Cu    0.304516 0.730516 -0.265054    Cu
Cu    0.304516 0.730516 0.265066    Cu
Cu    0.304516 0.730516 0.734946    Cu
O      0.31143  0.17223  0.27964     O
O      0.31143  0.17223  0.72044     O
O      0.31144 -0.17216  0.27964     O
O      0.31144 -0.17216  0.72044     O
H      0.31291 0.473445 0.745543     H
H     0.312916 0.473451 0.254643     H
O      0.31424  0.25604 -0.17237     O
O      0.31424  0.25604  0.17243     O
O      0.31424  0.74404 -0.17236     O
O      0.31424  0.74404  0.17244     O
H     0.318929 0.745827 0.477695     H
H     0.318944 0.254137 0.477644     H
C      0.34475 -0.05966  0.34385     C
C      0.34475 -0.05966  0.65625     C
C      0.34475  0.05974  0.34385     C
C      0.34475  0.05974  0.65625     C
C      0.34855  0.16057 -0.06215     C
C      0.34855  0.16057  0.06225     C
C      0.34855  0.83957 -0.06215     C
C      0.34855  0.83957  0.06225     C
C      0.35909  0.14198   0.0092     C
C      0.35909  0.85818   0.0092     C
H     0.360386 -0.107669  0.63632     H
H     0.360402 0.107737 0.636308     H
H      0.36041 -0.107676 0.363739     H
H     0.360426 0.107744  0.36375     H
H     0.373041 0.853191 0.107576     H
H     0.373046 0.146952 0.107573     H
C      0.37307      0.0  0.36737     C
C      0.37307      0.0  0.63277     C
H     0.373518 0.855758 -0.106278     H
H     0.373524 0.144388 -0.106275     H
O      0.39895  0.29137  0.28207     O
O      0.39895  0.29137  0.71807     O
O      0.39895  0.70877  0.28207     O
O      0.39895  0.70877  0.71807     O
H     0.402813 0.331026 0.312384     H
H     0.402842 0.330825   0.6875     H
H     0.402852 0.668967 0.312184     H
H     0.402881 0.669166 0.687699     H
C      0.41698      0.0  0.41391     C
C      0.41698      0.0  0.58611     C
H     0.418134 0.748444 0.303482     H
H     0.418307 0.251512 0.697212     H
H     0.418327 0.698776  0.76192     H
H     0.418375 0.301313 0.238236     H
C      0.41997  0.08628      0.0     C
C      0.41997  0.91388      0.0     C
O      0.43954 -0.05807  0.43364     O
O      0.43954 -0.05807  0.56644     O
O      0.43954  0.05813  0.43364     O
O      0.43954  0.05813  0.56644     O
O      0.44024 -0.06786 -0.05747     O
O      0.44024 -0.06786  0.05753     O
O      0.44024  0.06794 -0.05747     O
O      0.44024  0.06794  0.05753     O
H     0.459995 -0.012295 0.192073     H
H     0.460191 0.191873 0.513095     H
O          0.5 -0.17503      0.5     O
Cu         0.5 -0.066849      0.5    Cu
O          0.5      0.0 -0.17523     O
Cu         0.5      0.0 -0.0660888    Cu
Cu         0.5      0.0 0.0660912    Cu
O          0.5      0.0  0.17537     O
Cu         0.5 0.066851      0.5    Cu
O          0.5  0.17517      0.5     O
Cu         0.5      1.0 -0.0660888    Cu
Cu         0.5      1.0 0.0660912    Cu
H     0.509959 -0.191733 0.454142     H
H     0.510664 0.0456518 -0.191933     H
H     0.529341 -0.0333568 -0.191933     H
H     0.529341 -0.0333568 0.192073     H
H      0.52985 -0.191733 0.532763     H
H      0.52985 0.191873 0.532763     H
O      0.55984 -0.06786 -0.05747     O
O      0.55984 -0.06786  0.05753     O
O      0.55984  0.06794 -0.05747     O
O      0.55984  0.06794  0.05753     O
O      0.56054 -0.05807  0.43364     O
O      0.56054 -0.05807  0.56644     O
O      0.56054  0.05813  0.43364     O
O      0.56054  0.05813  0.56644     O
H     0.576953  0.26635 0.751591     H
H      0.57705 0.251826  0.26821     H
C      0.58017  0.08628      0.0     C
C      0.58017  0.91388      0.0     C
H     0.580552 0.750692 0.703861     H
C      0.58318      0.0  0.41391     C
C      0.58318      0.0  0.58611     C
H     0.583209 0.691733 0.760521     H
H      0.58935  0.66883 0.254965     H
H     0.594093 0.340563 0.723195     H
H     0.594442 0.699313  0.33068     H
H     0.594446 0.300809 0.330684     H
O      0.60115  0.29137  0.28207     O
O      0.60115  0.29137  0.71807     O
O      0.60115  0.70877  0.28207     O
O      0.60115  0.70877  0.71807     O
H     0.626548 0.144393 -0.106257     H
H     0.626555 0.855753 -0.10626     H
H     0.627016 0.146962  0.10755     H
H     0.627021 0.853181 0.107552     H
C      0.62707      0.0  0.36737     C
C      0.62707      0.0  0.63277     C
H     0.639638 0.107742 0.363719     H
H     0.639655 -0.107673 0.363708     H
H     0.639662 0.107735  0.63634     H
H     0.639679 -0.107666 0.636351     H
C      0.64109  0.14198   0.0092     C
C      0.64109  0.85818   0.0092     C
C      0.65155  0.16057 -0.06215     C
C      0.65155  0.16057  0.06225     C
C      0.65155  0.83957 -0.06215     C
C      0.65155  0.83957  0.06225     C
C      0.65535 -0.05966  0.34385     C
C      0.65535 -0.05966  0.65625     C
C      0.65535  0.05974  0.34385     C
C      0.65535  0.05974  0.65625     C
H     0.681096 0.254205 0.477708     H
H     0.681111 0.745759 0.477759     H
O      0.68584  0.25604 -0.17236     O
O      0.68584  0.25604  0.17244     O
O      0.68584  0.74404 -0.17236     O
O      0.68584  0.74404  0.17244     O
H     0.687132 0.473383 0.254676     H
H     0.687138 0.473378  0.74551     H
O      0.68863  0.17223  0.27964     O
O      0.68863  0.17223  0.72044     O
O      0.68864 -0.17216  0.27964     O
O      0.68864 -0.17216  0.72044     O
Cu    0.695496 -0.269484 0.265066    Cu
Cu    0.695496 -0.269484 0.734946    Cu
Cu    0.695496 0.269496 -0.265054    Cu
Cu    0.695496 0.269496 0.265066    Cu
Cu    0.695496 0.269496 0.734946    Cu
Cu    0.695496 0.730516 -0.265054    Cu
Cu    0.695496 0.730516 0.265066    Cu
Cu    0.695496 0.730516 0.734946    Cu
C      0.70287 -0.06145  0.29607     C
C      0.70287 -0.06145  0.70407     C
C      0.70287  0.06155  0.29607     C
C      0.70287  0.06155  0.70407     C
C      0.70424  0.20665 -0.06026     C
C      0.70424  0.20665  0.06034     C
C      0.70424  0.79345 -0.06026     C
C      0.70424  0.79345  0.06034     C
H     0.706425 0.212354 0.551649     H
H     0.706439 0.787708 0.551645     H
H     0.712505 0.551804 0.712865     H
H     0.712511 0.551804 0.287323     H
C     0.717615 0.226115      0.5     C
C     0.717615 0.773915      0.5     C
C      0.72065  0.22665 -0.12885     C
C      0.72065  0.22665  0.12895     C
C      0.72065  0.77345 -0.12885     C
C      0.72065  0.77345  0.12895     C
C      0.72338  0.22747      0.0     C
C      0.72338  0.77267      0.0     C
C      0.72365 -0.13075  0.27995     C
C      0.72365 -0.13075  0.72015     C
C      0.72365  0.13085  0.27995     C
C      0.72365  0.13085  0.72015     C
C     0.725013      0.5  0.27579     C
C     0.725013      0.5  0.72439     C
O      0.72504  0.36124  0.23764     O
O      0.72504  0.36124  0.76244     O
O      0.72504  0.63884  0.23764     O
O      0.72504  0.63884  0.76244     O
H     0.725598 0.819439 0.470597     H
H     0.725658 0.180574 0.470643     H
C      0.72691      0.0  0.27298     C
C      0.72691      0.0  0.72718     C
O      0.72795  0.28314  0.35634     O
O      0.72795  0.28314  0.64374     O
O      0.72795  0.71694  0.35634     O
O      0.72795  0.71694  0.64374     O
H     0.739323 0.474818 0.678352     H
H     0.739329 0.474812 0.321822     H
H     0.760722 0.0252572 0.821794     H
H     0.760728 0.0252516  0.17838     H
O      0.77215  0.21694 -0.14366     O
O      0.77215  0.21694  0.14374     O
O      0.77215  0.78314 -0.14366     O
O      0.77215  0.78314  0.14374     O
C      0.77311      0.5  0.22718     C
C      0.77311      0.5  0.77298     C
H      0.77431 0.680549 0.0292947     H
H      0.77437 0.319465 0.029341     H
C     0.775013      0.0  0.22439     C
C     0.775013      0.0  0.77579     C
O      0.77504 -0.13876  0.26244     O
O      0.77504 -0.13876  0.73764     O
O      0.77504  0.13884  0.26244     O
O      0.77504  0.13884  0.73764     O
C      0.77645  0.36925  0.22015     C
C      0.77645  0.36925  0.77995     C
C      0.77645  0.63085  0.22015     C
C      0.77645  0.63085  0.77995     C
C      0.77678  0.27267      0.5     C
C      0.77678  0.72747      0.5     C
C      0.77945  0.27345  0.37115     C
C      0.77945  0.27345  0.62895     C
C      0.77945  0.72665  0.37115     C
C      0.77945  0.72665  0.62895     C
C     0.782415 0.273915      0.0     C
C     0.782415 0.726115      0.0     C
H     0.787469 -0.0518056 0.787382     H
H     0.787475 -0.0518055 0.212806     H
H     0.793616 0.287659 -0.0516507     H
H     0.793631 0.712403 -0.0516551     H
C      0.79584  0.29345  0.43974     C
C      0.79584  0.29345  0.56034     C
C      0.79584  0.70665  0.43974     C
C      0.79584  0.70665  0.56034     C
C      0.79727  0.43855  0.20407     C
C      0.79727  0.43855  0.79607     C
C      0.79727  0.56155  0.20407     C
C      0.79727  0.56155  0.79607     C
Cu    0.804516 -0.230504 0.234946    Cu
Cu    0.804516 -0.230504 0.765066    Cu
Cu    0.804516 0.230516 -0.234934    Cu
Cu    0.804516 0.230516 0.234946    Cu
Cu    0.804516 0.230516 0.765066    Cu
Cu    0.804516 0.769496 -0.234934    Cu
Cu    0.804516 0.769496 0.234946    Cu
Cu    0.804516 0.769496 0.765066    Cu
O      0.81143  0.32783  0.22044     O
O      0.81143  0.32783  0.77964     O
O      0.81144  0.67224  0.22044     O
O      0.81144  0.67224  0.77964     O
H      0.81291 0.0265539 0.245544     H
H     0.812916 0.0265483 0.754643     H
O      0.81424  0.24404  0.32764     O
O      0.81424  0.24404  0.67244     O
O      0.81424  0.75604  0.32764     O
O      0.81424  0.75604  0.67244     O
H     0.818928 0.245829 0.0223097     H
H     0.818943 0.754135 0.0223604     H
C      0.84475  0.44034  0.15625     C
C      0.84475  0.44034  0.84385     C
C      0.84475  0.55974  0.15625     C
C      0.84475  0.55974  0.84385     C
C      0.84855  0.33957  0.43785     C
C      0.84855  0.33957  0.56225     C
C      0.84855  0.66057  0.43785     C
C      0.84855  0.66057  0.56225     C
C      0.85909  0.35818   0.4912     C
C      0.85909  0.64198   0.4912     C
H     0.860386 0.392331  0.13632     H
H     0.860402 0.607737 0.136308     H
H      0.86041 0.392324 0.863739     H
H     0.860426 0.607744  0.86375     H
H     0.873055  0.35325 0.392551     H
H      0.87306 0.646894 0.392554     H
C      0.87307      0.5  0.13277     C
C      0.87307      0.5  0.86737     C
H     0.873507 0.355724 0.606398     H
H     0.873514 0.644422 0.606396     H
O      0.89895  0.20877  0.21807     O
O      0.89895  0.20877  0.78207     O
O      0.89895  0.79137  0.21807     O
O      0.89895  0.79137  0.78207     O
H     0.902813 0.831026 0.812384     H
H     0.902842 0.830825   0.1875     H
H     0.902852 0.168967 0.812184     H
H     0.902881 0.169166 0.187699     H
C      0.91698      0.5  0.08611     C
C      0.91698      0.5  0.91391     C
H     0.918134 0.248444 0.803482     H
H     0.918307 0.751512 0.197212     H
H     0.918327 0.198776  0.26192     H
H     0.918375 0.801313 0.738236     H
C      0.91997  0.41388      0.5     C
C      0.91997  0.58628      0.5     C
Cu         1.0 0.433151      0.0    Cu
Cu         1.0 0.433151      1.0    Cu
Cu         1.0      0.5 0.4339112    Cu
Cu         1.0      0.5 0.5660912    Cu
Cu         1.0 0.566851      0.0    Cu
Cu         1.0 0.566851      1.0    Cu
