data_I
_chemical_name_common  '/Users/gianmarcoterrones/Downloads/Cu2(TCMBT)(BPP)(Î¼3-OH)'
_cell_length_a 11.57520
_cell_length_b 12.63430
_cell_length_c 14.33520
_cell_angle_alpha 101.36901
_cell_angle_beta  102.93530
_cell_angle_gamma 96.45720
_space_group_name_H-M_alt      'P 1'


loop_
_space_group_symop_operation_xyz
  'x, y, z' 

loop_
_atom_site_label
_atom_site_fract_x
_atom_site_fract_y
_atom_site_fract_z
_atom_site_type_symbol
O      0.03352  0.81652  0.25672     O
O      0.04852  0.90322  0.66472     O
H       0.0526   0.2867   0.3438     H
H       0.0533   0.2881   0.4536     H
C      0.06294  0.13664  0.37564     C
H       0.0678   0.6158    0.251     H
O      0.06832  0.07232 0.5768218     O
C      0.08904  0.26014  0.40074     C
C      0.09474  0.77684  0.31954     C
Cu    0.099654 0.062984 0.714423    Cu
Cu    0.106154 0.950024 0.483563    Cu
O      0.12502  0.81222  0.40902     O
N      0.12884  0.04674  0.85282     N
H       0.1347   0.1992   0.9103     H
C      0.13714  0.67244  0.28294     C
H       0.1373     0.89   0.8278     H
C      0.13974  0.95084  0.87724     C
C      0.14004  0.13124  0.92524     C
H       0.1417   0.9507   0.1562     H
O      0.14262  0.08102  0.39692     O
C      0.15424  0.93804  0.97164     C
H       0.1555   0.8687   0.9843     H
H       0.1565   0.0789   0.1893     H
C      0.15924  0.12554  0.02134     C
C      0.16674  0.02704  0.04744     C
H       0.1672   0.1888   0.0697     H
H       0.1782   0.6034   0.3955     H
H       0.1806   0.6829   0.2341     H
C      0.18544  0.01914  0.15234     C
H       0.2009   0.9624   0.5325     H
N      0.21314  0.63644  0.35962     N
N      0.21764  0.30114  0.43034     N
O      0.21902  0.25862  0.62482     O
O      0.23082  0.19262  0.75822     O
O      0.23182  0.30312  0.27762     O
O      0.23952  0.52192  0.69322     O
H       0.2531   0.3161    0.492     H
H       0.2548   0.8322   0.6081     H
H       0.2561   0.5656   0.5232     H
C      0.25664  0.26424  0.71344     C
N      0.27514  0.96694  0.56252     N
C      0.28224  0.31634  0.36844     C
H       0.3015   0.4057   0.8206     H
C      0.31114  0.89164  0.60964     C
H       0.3139   0.9291   0.2912     H
H       0.3196   0.0534    0.338     H
C      0.32794  0.02544  0.19704     C
C      0.33114  0.64874  0.38074     C
H       0.3364   0.1062   0.5298     H
C      0.33794  0.50784  0.68454     C
C      0.33944  0.58444  0.54024     C
C      0.34344  0.36364  0.77874     C
C      0.35314  0.00264  0.29554     C
H       0.3581   0.9726   0.1535     H
C      0.36024  0.05304  0.56314     C
H       0.3695   0.0977   0.2005     H
O      0.38942  0.67502  0.32342     O
N      0.39644  0.43574  0.72452     N
C      0.39704  0.63054  0.47824     C
C      0.40764  0.56684  0.62774     C
H       0.4077   0.3392    0.821     H
C      0.41254  0.35034  0.40364     C
C      0.42644  0.89724  0.66004     C
H       0.4277   0.4088   0.2862     H
H       0.4384    0.305   0.5307     H
H       0.4486   0.8442    0.694     H
H        0.468   0.4311   0.7184     H
C      0.47194  0.39914  0.34574     C
H       0.4724   0.8788   0.3929     H
C      0.47324  0.06204  0.60914     C
C      0.47774  0.33684  0.49074     C
C      0.48674  0.01244  0.34064     C
C      0.51334  0.98764  0.65944     C
C      0.52234  0.66324  0.50934     C
C      0.52684  0.93804  0.39094     C
H       0.5276   0.1212   0.6071     H
C      0.52814  0.60094  0.65434     C
H        0.532   0.5689   0.2816     H
H       0.5514   0.1558    0.306     H
H       0.5616    0.695   0.4693     H
H       0.5723   0.5912   0.7138     H
C      0.57364  0.10284  0.34004     C
C      0.58754  0.64974  0.59644     C
H       0.5923   0.6608    0.179     H
C      0.59244  0.43324  0.37234     C
C      0.60304  0.36954  0.52184     C
N      0.60364  0.56434  0.27552     N
O      0.61062  0.32502  0.67662     O
H       0.6305   0.9023   0.7995     H
C      0.63984  0.94704  0.43694     C
H       0.6419   0.0274   0.8465     H
C      0.64694  0.99744  0.70454     C
C      0.65664  0.63644  0.22134     C
C      0.66064  0.41564  0.45984     C
C      0.66214  0.49224  0.31554     C
H       0.6636   0.8938   0.4702     H
C      0.66894  0.35134  0.61934     C
C      0.67214  0.97464  0.80304     C
H       0.6804   0.9466    0.662     H
H       0.6861   0.0709   0.7088     H
C      0.68894  0.10844  0.39044     C
H       0.6985   0.5943   0.1794     H
C      0.71784  0.68374  0.63164     C
N      0.72494  0.03314  0.43752     N
C      0.74344  0.73584  0.28664     C
H       0.7439   0.4344   0.4768     H
H       0.7452   0.1678   0.3919     H
H       0.7469   0.6839    0.508     H
O      0.76052  0.47812  0.30682     O
O      0.76822  0.69692  0.72242     O
O      0.76922  0.80742  0.24182     O
O      0.78102  0.74142  0.37522     O
N      0.78244  0.69894  0.56974     N
N      0.78694  0.36364  0.64042     N
H       0.7991   0.0376   0.4675     H
C      0.81464  0.98094  0.84774     C
H       0.8194   0.3171   0.7659     H
H       0.8218   0.3966   0.6045     H
H       0.8328   0.8112   0.9303     H
C      0.83334  0.97304  0.95264     C
C      0.84084  0.87454  0.97874     C
H       0.8435   0.9211   0.8107     H
H       0.8445   0.1313   0.0157     H
C      0.84584  0.06204  0.02844     C
O      0.85742  0.91902  0.60312     O
H       0.8583   0.0493   0.8438     H
C      0.86004  0.86884  0.07484     C
C      0.86034  0.04924  0.12284     C
H       0.8627     0.11   0.1722     H
C      0.86294  0.32764  0.71714     C
H       0.8653   0.8008   0.0897     H
N      0.87124  0.95334  0.14722     N
O      0.87502  0.18782  0.59102     O
Cu    0.893854 0.049984 0.516443    Cu
Cu    0.900354 0.937024 0.285583    Cu
C      0.90534  0.22324  0.68054     C
C      0.91104  0.73994  0.59934     C
O      0.93172  0.92772 0.4231818     O
H       0.9322   0.3842    0.749     H
C      0.93714  0.86344  0.62444     C
H       0.9467   0.7119   0.5464     H
H       0.9474   0.7133   0.6562     H
O      0.95152  0.09682  0.33532     O
O      0.96652  0.18352  0.74332     O
