data_I
_chemical_name_common  '/Users/gianmarcoterrones/Research/MOFs/MOF_structures/water_stability_work_extra_structs/cleaned_from_CCDC/CUCFOX'
_cell_length_a 18.02082
_cell_length_b 18.02082
_cell_length_c 18.36843
_cell_angle_alpha 110.48022
_cell_angle_beta  117.97139
_cell_angle_gamma 99.51403
_space_group_name_H-M_alt      'P 1'


loop_
_space_group_symop_operation_xyz
  'x, y, z' 

loop_
_atom_site_label
_atom_site_fract_x
_atom_site_fract_y
_atom_site_fract_z
_atom_site_type_symbol
H        0.005    0.979   0.3576     H
H       0.0208   0.0861   0.1883     H
C       0.0273   0.9528   0.7507     C
C       0.0325   0.9332   0.8151     C
C        0.066   0.0698   0.3326     C
C       0.0663   0.0182   0.3879     C
H       0.0905   0.0583   0.4522     H
H       0.0989   0.7166   0.1127     H
H       0.1039   0.9862   0.3873     H
H       0.1061   0.6383   0.0478     H
C        0.109   0.9806    0.756     C
H       0.1102   0.9967   0.7135     H
C       0.1134   0.9401   0.8881     C
H        0.114   0.9296   0.9344     H
H       0.1214   0.6474   0.1424     H
N       0.1284   0.1205   0.3469     N
C       0.1303   0.6784   0.1121     C
C       0.1872   0.9828   0.8282     C
N       0.1903   0.9617   0.8922     N
H       0.1957    0.559   0.5425     H
H       0.2121   0.6597   0.7338     H
H       0.2132   0.5731   0.6393     H
H       0.2141   0.7633    0.847     H
H       0.2168   0.6033   0.2135     H
N       0.2197   0.7946   0.0743     N
N       0.2203   0.1454   0.4257     N
O       0.2209   0.8565   0.9872     O
C       0.2372   0.7334   0.1674     C
H       0.2413   0.0001   0.8322     H
C       0.2416   0.5761   0.6069     C
C       0.2517   0.7168   0.7635     C
C       0.2541   0.7788   0.8313     C
N       0.2604   0.2479   0.3897     N
C       0.2638   0.8412   0.0508     C
H       0.2733   0.5382   0.6081     H
N       0.2736   0.7815   0.1531     N
C       0.2754    0.647    0.256     C
C       0.2904    0.213   0.4492     C
C       0.2979   0.7234   0.2507     C
Zn     0.30793  0.94995  0.98808    Zn
C       0.3082   0.7388   0.7384     C
C       0.3097   0.6686   0.6559     C
N       0.3105   0.8619   0.8786     N
N       0.3243   0.0549   0.1124     N
N       0.3311   0.3154   0.4077     N
H       0.3321   0.5909   0.3322     H
C       0.3454    0.641   0.3282     C
N       0.3582   0.8707   0.1103     N
C       0.3605   0.8209   0.7796     C
C       0.3622   0.8819   0.8527     C
O       0.3693   0.2337   0.5128     O
N       0.3741   0.1314   0.1303     N
N        0.376   0.6987   0.6515     N
N       0.3794   0.6355   0.5831     N
C       0.3819   0.7826   0.3151     C
H       0.3959   0.8379   0.7598     H
H       0.3978   0.8325   0.3117     H
O       0.3981    0.059   0.0155     O
H       0.4022   0.9392    0.884     H
C       0.4056    0.128   0.0734     C
N       0.4077   0.9234   0.0923     N
H       0.4163   0.3671    0.653     H
H       0.4219   0.3639   0.2598     H
H       0.4259   0.4783   0.7662     H
H       0.4301   0.6652   0.8919     H
N       0.4305   0.7019   0.3922     N
H       0.4338   0.5739   0.8607     H
N       0.4425   0.2119   0.3876     N
H       0.4448   0.4818    0.384     H
C       0.4454   0.6678   0.5734     C
C       0.4475   0.4228   0.6687     C
N       0.4476   0.2037   0.0831     N
C        0.448   0.7747   0.3881     C
N       0.4528   0.2755   0.1515     N
C       0.4533   0.4882   0.7365     C
O       0.4565   0.6174   0.5155     O
C       0.4587   0.4191   0.2796     C
Zn     0.46187  0.31985  0.51192    Zn
C       0.4692   0.6347   0.8931     C
C       0.4708   0.4905   0.3527     C
N       0.4833   0.4319   0.6214     N
H       0.4835   0.3468   0.0425     H
C       0.4873   0.3462   0.1559     C
H       0.4952   0.1796   0.5656     H
N       0.4989   0.7562   0.6303     N
C       0.4996   0.4302   0.2384     C
C       0.5004   0.5698   0.7616     C
N       0.5011   0.2438   0.3697     N
H       0.5048   0.8204   0.4344     H
C       0.5127   0.6538   0.8441     C
H       0.5165   0.6532   0.9575     H
N       0.5167   0.5681   0.3786     N
C       0.5292   0.5095   0.6473     C
C       0.5308   0.3653   0.1069     C
Zn     0.53813  0.68015  0.48808    Zn
C       0.5413   0.5809   0.7204     C
O       0.5435   0.3826   0.4845     O
C       0.5467   0.5118   0.2635     C
N       0.5472   0.7245   0.8485     N
C        0.552   0.2253   0.6119     C
N       0.5524   0.7963   0.9169     N
C       0.5525   0.5772   0.3313     C
C       0.5546   0.3322   0.4266     C
H       0.5552   0.5182    0.616     H
N       0.5575   0.7881   0.6124     N
H       0.5662   0.4261   0.1393     H
N       0.5695   0.2981   0.6078     N
H       0.5699   0.3348   0.1081     H
H       0.5741   0.5217   0.2338     H
H       0.5781   0.6361   0.7402     H
H       0.5837   0.6329    0.347     H
N       0.5923   0.0766   0.9077     N
C       0.5944    0.872   0.9266     C
H       0.5978   0.0608    0.116     H
O       0.6019    0.941   0.9845     O
H       0.6022   0.1675   0.6883     H
H       0.6041   0.1621   0.2402     H
C       0.6181   0.2174   0.6849     C
N       0.6206   0.3645   0.4169     N
N        0.624   0.3013   0.3485     N
N       0.6259   0.8686   0.8697     N
O       0.6307   0.7663   0.4872     O
C       0.6378   0.1181   0.1473     C
C       0.6395   0.1791   0.2204     C
N       0.6418   0.1293   0.8897     N
C       0.6546    0.359   0.6718     C
H       0.6679   0.4091   0.6678     H
N       0.6689   0.6846   0.5923     N
N       0.6757   0.9451   0.8876     N
N       0.6895   0.1381   0.1214     N
C       0.6903   0.3314   0.3441     C
C       0.6918   0.2612   0.2616     C
Zn     0.69207  0.05005  0.01192    Zn
C       0.7021   0.2766   0.7493     C
C       0.7096    0.787   0.5508     C
C       0.7246    0.353    0.744     C
N       0.7264   0.2185   0.8469     N
H       0.7267   0.4618   0.3919     H
C       0.7362   0.1588   0.9492     C
N       0.7396   0.7521   0.6103     N
C       0.7459   0.2212   0.1687     C
C       0.7483   0.2832   0.2365     C
C       0.7584   0.4239   0.3931     C
H       0.7587   0.9999   0.1678     H
C       0.7628   0.2666   0.8326     C
O       0.7791   0.1435   0.0128     O
N       0.7797   0.8546   0.5743     N
N       0.7803   0.2054   0.9257     N
H       0.7832   0.3967   0.7865     H
H       0.7859   0.2367    0.153     H
H       0.7868   0.4269   0.3607     H
H       0.7879   0.3403   0.2662     H
H       0.8043    0.441   0.4575     H
N       0.8097   0.0383   0.1078     N
C       0.8128   0.0172   0.1718     C
C       0.8697   0.3216   0.8879     C
N       0.8716   0.8795   0.6531     N
H       0.8786   0.3526   0.8576     H
H        0.886   0.0704   0.0656     H
C       0.8866   0.0599   0.1119     C
H       0.8898   0.0033   0.2865     H
C        0.891   0.0194    0.244     C
H       0.8939   0.3617   0.9522     H
H       0.8961   0.0138   0.6127     H
H       0.9011   0.2834   0.8873     H
H       0.9095   0.9417   0.5478     H
C       0.9337   0.9818   0.6121     C
C        0.934   0.9302   0.6674     C
C       0.9675   0.0668   0.1849     C
C       0.9727   0.0472   0.2493     C
H       0.9792   0.9139   0.8117     H
H        0.995    0.021   0.6424     H
