data_I
_chemical_name_common  '/Users/gianmarcoterrones/Research/MOFs/MOF_structures/water_stability_work_extra_structs/cleaned_from_CCDC/CUKXAI'
_cell_length_a  9.85200
_cell_length_b 13.54800
_cell_length_c 26.37800
_cell_angle_alpha 90.00000
_cell_angle_beta  90.00000
_cell_angle_gamma 90.00000
_space_group_name_H-M_alt      'P 1'


loop_
_space_group_symop_operation_xyz
  'x, y, z' 

loop_
_atom_site_label
_atom_site_fract_x
_atom_site_fract_y
_atom_site_fract_z
_atom_site_type_symbol
Cd         0.0      0.0      0.0    Cd
Cd         0.0      0.0      0.5    Cd
Cd         0.0      0.5      0.0    Cd
Cd         0.0      0.5      0.5    Cd
C        0.003     0.25     0.49     C
C        0.003     0.75     0.01     C
Cl       0.006     0.25  0.68847    Cl
Cl       0.006     0.75  0.81153    Cl
N        0.027   0.1689   0.5163     N
N        0.027   0.3311   0.5163     N
N        0.027   0.6689   0.9837     N
N        0.027   0.8311   0.9837     N
N       0.0415      0.0     0.25     N
N       0.0415      0.5     0.25     N
N        0.048     0.25   0.9419     N
N        0.048     0.75   0.5581     N
N       0.0731   0.2021   0.5622     N
N       0.0731   0.2979   0.5622     N
N       0.0731   0.7021   0.9378     N
N       0.0731   0.7979   0.9378     N
N       0.0863   0.0362   0.1163     N
N       0.0863   0.4638   0.1163     N
N       0.0863   0.5362   0.3837     N
N       0.0863   0.9638   0.3837     N
C       0.0975      0.0     0.75     C
C       0.0975      0.5     0.75     C
N       0.1078   0.0301   0.4201     N
N       0.1078   0.4699   0.4201     N
N       0.1078   0.5301   0.0799     N
N       0.1078   0.9699   0.0799     N
Cd     0.12164  0.10968  0.63854    Cd
Cd     0.12164  0.39032  0.63854    Cd
Cd     0.12164  0.60968  0.86146    Cd
Cd     0.12164  0.89032  0.86146    Cd
N       0.1731   0.0255   0.7106     N
N       0.1731   0.4745   0.7106     N
N       0.1731   0.5255   0.7894     N
N       0.1731   0.9745   0.7894     N
N       0.1943   0.0464   0.1443     N
N       0.1943   0.4536   0.1443     N
N       0.1943   0.5464   0.3557     N
N       0.1943   0.9536   0.3557     N
N       0.2074    0.031    0.962     N
N       0.2074    0.469    0.962     N
N       0.2074    0.531    0.538     N
N       0.2074    0.969    0.538     N
C       0.2359   0.0594   0.4124     C
C       0.2359   0.4406   0.4124     C
C       0.2359   0.5594   0.0876     C
C       0.2359   0.9406   0.0876     C
N       0.2434   0.0083   0.5836     N
N       0.2434   0.4917   0.5836     N
N       0.2434   0.5083   0.9164     N
N       0.2434   0.9917   0.9164     N
H       0.2557   0.1314   0.0419     H
H       0.2557   0.3686   0.0419     H
H       0.2557   0.6314   0.4581     H
H       0.2557   0.8686   0.4581     H
H       0.2595   0.1591   0.4648     H
H       0.2595   0.3409   0.4648     H
H       0.2595   0.6591   0.0352     H
H       0.2595   0.8409   0.0352     H
H       0.2872    0.195   0.3092     H
H       0.2872    0.305   0.3092     H
H       0.2872    0.695   0.1908     H
H       0.2872    0.805   0.1908     H
N       0.2928   0.0132   0.3731     N
N       0.2928   0.4868   0.3731     N
N       0.2928   0.5132   0.1269     N
N       0.2928   0.9868   0.1269     N
N       0.3003   0.1313   0.4397     N
N       0.3003   0.3687   0.4397     N
N       0.3003   0.6313   0.0603     N
N       0.3003   0.8687   0.0603     N
N       0.3027   0.0157    0.727     N
N       0.3027   0.4843    0.727     N
N       0.3027   0.5157    0.773     N
N       0.3027   0.9843    0.773     N
C       0.3179   0.0815   0.9782     C
C       0.3179   0.4185   0.9782     C
C       0.3179   0.5815   0.5218     C
C       0.3179   0.9185   0.5218     C
N       0.3241   0.1312   0.0217     N
N       0.3241   0.3688   0.0217     N
N       0.3241   0.6312   0.4783     N
N       0.3241   0.8688   0.4783     N
N       0.3268     0.25   0.1741     N
N       0.3268     0.75   0.3259     N
N       0.3298   0.2019   0.8353     N
N       0.3298   0.2981   0.8353     N
N       0.3298   0.7019   0.6647     N
N       0.3298   0.7981   0.6647     N
N         0.33     0.25   0.3118     N
N         0.33     0.75   0.1882     N
N       0.3351   0.2021   0.6486     N
N       0.3351   0.2979   0.6486     N
N       0.3351   0.7021   0.8514     N
N       0.3351   0.7979   0.8514     N
Cl      0.3573      0.0     0.25    Cl
Cl      0.3573      0.5     0.25    Cl
N       0.3645   0.0192   0.9062     N
N       0.3645   0.4808   0.9062     N
N       0.3645   0.5192   0.5938     N
N       0.3645   0.9808   0.5938     N
H       0.3815   0.1488   0.4319     H
H       0.3815   0.3512   0.4319     H
H       0.3815   0.6488   0.0681     H
H       0.3815   0.8512   0.0681     H
H       0.3965   0.1632   0.0295     H
H       0.3965   0.3368   0.0295     H
H       0.3965   0.6632   0.4705     H
H       0.3965   0.8368   0.4705     H
N       0.4155   0.0752   0.9438     N
N       0.4155   0.4248   0.9438     N
N       0.4155   0.5752   0.5562     N
N       0.4155   0.9248   0.5562     N
N       0.4573   0.1702   0.8256     N
N       0.4573   0.3298   0.8256     N
N       0.4573   0.6702   0.6744     N
N       0.4573   0.8298   0.6744     N
N       0.4617   0.1675   0.6574     N
N       0.4617   0.3325   0.6574     N
N       0.4617   0.6675   0.8426     N
N       0.4617   0.8325   0.8426     N
C        0.462     0.25    0.162     C
C        0.462     0.75    0.338     C
C        0.468     0.25   0.3206     C
C        0.468     0.75   0.1794     C
Cd     0.49529  0.00336  0.83009    Cd
Cd     0.49529  0.49664  0.83009    Cd
Cd     0.49529  0.50336  0.66991    Cd
Cd     0.49529  0.99664  0.66991    Cd
Cd     0.50471  0.00336  0.33009    Cd
Cd     0.50471  0.49664  0.33009    Cd
Cd     0.50471  0.50336  0.16991    Cd
Cd     0.50471  0.99664  0.16991    Cd
C        0.532     0.25   0.8206     C
C        0.532     0.75   0.6794     C
C        0.538     0.25    0.662     C
C        0.538     0.75    0.838     C
N       0.5383   0.1675   0.1574     N
N       0.5383   0.3325   0.1574     N
N       0.5383   0.6675   0.3426     N
N       0.5383   0.8325   0.3426     N
N       0.5427   0.1702   0.3256     N
N       0.5427   0.3298   0.3256     N
N       0.5427   0.6702   0.1744     N
N       0.5427   0.8298   0.1744     N
N       0.5845   0.0752   0.4438     N
N       0.5845   0.4248   0.4438     N
N       0.5845   0.5752   0.0562     N
N       0.5845   0.9248   0.0562     N
H       0.6035   0.1632   0.5295     H
H       0.6035   0.3368   0.5295     H
H       0.6035   0.6632   0.9705     H
H       0.6035   0.8368   0.9705     H
H       0.6185   0.1488   0.9319     H
H       0.6185   0.3512   0.9319     H
H       0.6185   0.6488   0.5681     H
H       0.6185   0.8512   0.5681     H
N       0.6355   0.0192   0.4062     N
N       0.6355   0.4808   0.4062     N
N       0.6355   0.5192   0.0938     N
N       0.6355   0.9808   0.0938     N
Cl      0.6427      0.0     0.75    Cl
Cl      0.6427      0.5     0.75    Cl
N       0.6649   0.2021   0.1486     N
N       0.6649   0.2979   0.1486     N
N       0.6649   0.7021   0.3514     N
N       0.6649   0.7979   0.3514     N
N         0.67     0.25   0.8118     N
N         0.67     0.75   0.6882     N
N       0.6702   0.2019   0.3353     N
N       0.6702   0.2981   0.3353     N
N       0.6702   0.7019   0.1647     N
N       0.6702   0.7981   0.1647     N
N       0.6732     0.25   0.6741     N
N       0.6732     0.75   0.8259     N
N       0.6759   0.1312   0.5217     N
N       0.6759   0.3688   0.5217     N
N       0.6759   0.6312   0.9783     N
N       0.6759   0.8688   0.9783     N
C       0.6821   0.0815   0.4782     C
C       0.6821   0.4185   0.4782     C
C       0.6821   0.5815   0.0218     C
C       0.6821   0.9185   0.0218     C
N       0.6973   0.0157    0.227     N
N       0.6973   0.4843    0.227     N
N       0.6973   0.5157    0.273     N
N       0.6973   0.9843    0.273     N
N       0.6997   0.1313   0.9397     N
N       0.6997   0.3687   0.9397     N
N       0.6997   0.6313   0.5603     N
N       0.6997   0.8687   0.5603     N
N       0.7072   0.0132   0.8731     N
N       0.7072   0.4868   0.8731     N
N       0.7072   0.5132   0.6269     N
N       0.7072   0.9868   0.6269     N
H       0.7126    0.195   0.8089     H
H       0.7126    0.305   0.8089     H
H       0.7126    0.695   0.6911     H
H       0.7126    0.805   0.6911     H
H       0.7405   0.1591   0.9648     H
H       0.7405   0.3409   0.9648     H
H       0.7405   0.6591   0.5352     H
H       0.7405   0.8409   0.5352     H
H       0.7443   0.1314   0.5419     H
H       0.7443   0.3686   0.5419     H
H       0.7443   0.6314   0.9581     H
H       0.7443   0.8686   0.9581     H
N       0.7566   0.0083   0.0836     N
N       0.7566   0.4917   0.0836     N
N       0.7566   0.5083   0.4164     N
N       0.7566   0.9917   0.4164     N
C       0.7641   0.0594   0.9124     C
C       0.7641   0.4406   0.9124     C
C       0.7641   0.5594   0.5876     C
C       0.7641   0.9406   0.5876     C
N       0.7926    0.031    0.462     N
N       0.7926    0.469    0.462     N
N       0.7926    0.531    0.038     N
N       0.7926    0.969    0.038     N
N       0.8057   0.0464   0.6443     N
N       0.8057   0.4536   0.6443     N
N       0.8057   0.5464   0.8557     N
N       0.8057   0.9536   0.8557     N
N       0.8269   0.0255   0.2106     N
N       0.8269   0.4745   0.2106     N
N       0.8269   0.5255   0.2894     N
N       0.8269   0.9745   0.2894     N
Cd     0.87836  0.10968  0.13854    Cd
Cd     0.87836  0.39032  0.13854    Cd
Cd     0.87836  0.60968  0.36146    Cd
Cd     0.87836  0.89032  0.36146    Cd
N       0.8922   0.0301   0.9201     N
N       0.8922   0.4699   0.9201     N
N       0.8922   0.5301   0.5799     N
N       0.8922   0.9699   0.5799     N
C       0.9025      0.0     0.25     C
C       0.9025      0.5     0.25     C
N       0.9137   0.0362   0.6163     N
N       0.9137   0.4638   0.6163     N
N       0.9137   0.5362   0.8837     N
N       0.9137   0.9638   0.8837     N
N       0.9269   0.2021   0.0622     N
N       0.9269   0.2979   0.0622     N
N       0.9269   0.7021   0.4378     N
N       0.9269   0.7979   0.4378     N
N        0.952     0.25   0.4419     N
N        0.952     0.75   0.0581     N
N       0.9585      0.0     0.75     N
N       0.9585      0.5     0.75     N
N        0.973   0.1689   0.0163     N
N        0.973   0.3311   0.0163     N
N        0.973   0.6689   0.4837     N
N        0.973   0.8311   0.4837     N
Cl       0.994     0.25  0.18847    Cl
Cl       0.994     0.75  0.31153    Cl
C        0.997     0.25     0.99     C
C        0.997     0.75     0.51     C
