data_I
_chemical_name_common  '/Users/gianmarcoterrones/Research/MOFs/MOF_structures/water_stability_work_extra_structs/cleaned_from_CCDC/CUNFIB'
_cell_length_a  4.16560
_cell_length_b 23.97307
_cell_length_c 26.58700
_cell_angle_alpha 90.00000
_cell_angle_beta  90.00000
_cell_angle_gamma 93.28043
_space_group_name_H-M_alt      'P 1'


loop_
_space_group_symop_operation_xyz
  'x, y, z' 

loop_
_atom_site_label
_atom_site_fract_x
_atom_site_fract_y
_atom_site_fract_z
_atom_site_type_symbol
H       0.0039   0.3605    0.602     H
N       0.0047   0.3247   0.6017     N
Cu     0.00955  0.48125  0.21499    Cu
I      0.01184  0.40257  0.28762     I
C       0.0136   0.7016   0.3506     C
C       0.0161   0.6791   0.0715     C
O       0.0173   0.2513   0.5474     O
N       0.0178   0.6538   0.0233     N
C       0.0216   0.3006   0.5559     C
O       0.0242   0.7672   0.2066     O
N       0.0257   0.4477   0.1447     N
C       0.0262   0.7342   0.1634     C
C       0.0291   0.7431   0.2535     C
Cu     0.03529  0.97389  0.20765    Cu
I      0.03827  0.04908  0.27733     I
C       0.0419   0.6239   0.9173     C
C       0.0451   0.3431    0.513     C
N       0.0667   0.4147   0.4297     N
Cu     0.07015  0.46575  0.36865    Cu
C       0.0721   0.6041   0.8668     C
C        0.088    0.409   0.0461     C
C       0.0888   0.5728   0.5279     C
C       0.0891   0.2251    0.708     C
C       0.0924   0.2464    0.659     C
I      0.09355  0.03304  0.12154     I
C       0.0967   0.6067   0.4854     C
H       0.1147   0.6604    0.925     H
C       0.1313   0.6703   0.3114     C
C        0.135    0.393   0.9923     C
H       0.1352   0.6713   0.0011     H
C        0.142    0.691   0.2625     C
C       0.1508   0.3148   0.8421     C
C        0.152    0.481   0.1076     C
C       0.1557   0.3437   0.8881     C
H         0.16   0.6277    0.842     H
H       0.1646     0.19   0.7146     H
H       0.1664    0.225   0.6327     H
H       0.1732   0.1438   0.9022     H
H       0.1734   0.7116   0.6273     H
O       0.1761   0.0791   0.4663     O
C       0.1866   0.4636   0.0594     C
H       0.1903    0.757   0.5507     H
C       0.1928   0.7278   0.0777     C
H       0.1935   0.2039   0.9672     H
H       0.1961   0.5953   0.4561     H
H       0.1963   0.5399    0.527     H
C       0.2013   0.7553   0.1236     C
H       0.2026    0.635   0.3179     H
C       0.2055   0.3295   0.4695     C
C       0.2127   0.3657   0.4306     C
H       0.2175   0.5177   0.1155     H
H       0.2245   0.0119   0.5354     H
H       0.2245   0.6703   0.2364     H
H       0.2272   0.1223   0.3915     H
H       0.2303   0.1706   0.3151     H
H       0.2697   0.3294   0.8151     H
H       0.2728   0.3777   0.8915     H
H       0.2755   0.4881   0.0354     H
H       0.2755   0.8297   0.7364     H
H       0.2825   0.9823   0.6155     H
C       0.2873   0.1343   0.9306     C
C       0.2945   0.1705   0.9695     C
H       0.2974    0.865   0.8179     H
C       0.2987   0.7447   0.6236     C
H       0.3037   0.9601    0.027     H
H       0.3039   0.9047   0.9561     H
H       0.3065   0.2961   0.4672     H
C       0.3072   0.7722   0.5777     C
H       0.3097    0.743   0.0507     H
C       0.3134   0.0364   0.5594     C
O       0.3239   0.4209   0.9663     O
H       0.3266   0.7884   0.1273     H
H       0.3268   0.3562   0.4022     H
H       0.3336    0.275   0.1327     H
H       0.3354     0.31   0.2146     H
H         0.34   0.8723    0.342     H
C       0.3443   0.1563   0.3881     C
C        0.348    0.019   0.6076     C
C       0.3492   0.1852   0.3421     C
C        0.358    0.809   0.7625     C
H       0.3648   0.8287   0.5011     H
C        0.365    0.107   0.4923     C
C       0.3687   0.8297   0.8114     C
H       0.3853   0.8396    0.425     H
C       0.4033   0.8933   0.9854     C
I      0.40645  0.46696  0.62154     I
C       0.4076   0.2536    0.159     C
C       0.4109   0.2749    0.208     C
C       0.4112   0.9272   0.0279     C
C        0.412    0.091   0.5461     C
C       0.4279   0.8959   0.3668     C
Cu     0.42985  0.03425  0.86865    Cu
N       0.4333   0.0853   0.9297     N
C       0.4549   0.1569    0.013     C
C       0.4581   0.8761   0.4173     C
I      0.46173  0.45092  0.77733     I
Cu     0.46471  0.52611  0.70765    Cu
C       0.4709   0.7569   0.7535     C
C       0.4738   0.7658   0.6634     C
N       0.4743   0.0523   0.6447     N
O       0.4758   0.7328   0.7066     O
C       0.4784   0.1994   0.0559     C
N       0.4822   0.8462   0.5233     N
O       0.4827   0.2487   0.0474     O
C       0.4839   0.8209   0.5715     C
C       0.4864   0.7984   0.8506     C
I      0.48816  0.09743  0.78762     I
Cu     0.49045  0.01875  0.71499    Cu
N       0.4953   0.1753   0.1017     N
H       0.4961   0.1395    0.102     H
H       0.5039   0.8605    0.898     H
N       0.5047   0.8247   0.8983     N
Cu     0.50955  0.98125  0.28501    Cu
I      0.51184  0.90257  0.21238     I
C       0.5136   0.2016   0.1494     C
C       0.5161   0.1791   0.4285     C
O       0.5173   0.7513   0.9526     O
N       0.5178   0.1538   0.4767     N
C       0.5216   0.8006   0.9441     C
O       0.5242   0.2672   0.2934     O
N       0.5257   0.9477   0.3553     N
C       0.5262   0.2342   0.3366     C
C       0.5291   0.2431   0.2465     C
Cu     0.53529  0.47389  0.29235    Cu
I      0.53827  0.54908  0.22267     I
C       0.5419   0.1239   0.5827     C
C       0.5451   0.8431    0.987     C
N       0.5667   0.9147   0.0703     N
Cu     0.57015  0.96575  0.13135    Cu
C       0.5721   0.1041   0.6332     C
C        0.588    0.909   0.4539     C
C       0.5888   0.0728   0.9721     C
C       0.5891   0.7251    0.792     C
C       0.5924   0.7464    0.841     C
I      0.59355  0.53304  0.37846     I
C       0.5967   0.1067   0.0146     C
H       0.6147   0.1604    0.575     H
C       0.6313   0.1703   0.1886     C
C        0.635    0.893   0.5077     C
H       0.6352   0.1713   0.4989     H
C        0.642    0.191   0.2375     C
C       0.6508   0.8148   0.6579     C
C        0.652    0.981   0.3924     C
C       0.6557   0.8437   0.6119     C
H         0.66   0.1277    0.658     H
H       0.6646     0.69   0.7854     H
H       0.6664    0.725   0.8673     H
H       0.6732   0.6438   0.5978     H
H       0.6734   0.2116   0.8727     H
O       0.6761   0.5791   0.0337     O
C       0.6866   0.9636   0.4406     C
H       0.6903    0.257   0.9493     H
C       0.6928   0.2278   0.4223     C
H       0.6935   0.7039   0.5328     H
H       0.6961   0.0953   0.0439     H
H       0.6963   0.0399    0.973     H
C       0.7013   0.2553   0.3764     C
H       0.7026    0.135   0.1821     H
C       0.7055   0.8295   0.0305     C
C       0.7127   0.8657   0.0694     C
H       0.7175   0.0177   0.3845     H
H       0.7245   0.1703   0.2636     H
H       0.7245   0.5119   0.9646     H
H       0.7272   0.6223   0.1085     H
H       0.7303   0.6706   0.1849     H
H       0.7697   0.8294   0.6849     H
H       0.7728   0.8777   0.6085     H
H       0.7755   0.3297   0.7636     H
H       0.7755   0.9881   0.4646     H
H       0.7825   0.4823   0.8845     H
C       0.7873   0.6343   0.5694     C
C       0.7945   0.6705   0.5305     C
H       0.7974    0.365   0.6821     H
C       0.7987   0.2447   0.8764     C
H       0.8037   0.4601    0.473     H
H       0.8039   0.4047   0.5439     H
H       0.8065   0.7961   0.0328     H
C       0.8072   0.2722   0.9223     C
H       0.8097    0.243   0.4493     H
C       0.8134   0.5364   0.9406     C
O       0.8239   0.9209   0.5337     O
H       0.8266   0.2884   0.3727     H
H       0.8268   0.8562   0.0978     H
H       0.8336    0.775   0.3673     H
H       0.8354     0.81   0.2854     H
H         0.84   0.3723    0.158     H
C       0.8443   0.6563   0.1119     C
C        0.848    0.519   0.8924     C
C       0.8492   0.6852   0.1579     C
C        0.858    0.309   0.7375     C
H       0.8648   0.3287   0.9989     H
C        0.865    0.607   0.0077     C
C       0.8687   0.3297   0.6886     C
H       0.8853   0.3396    0.075     H
C       0.9033   0.3933   0.5146     C
I      0.90645  0.96696  0.87846     I
C       0.9076   0.7536    0.341     C
C       0.9109   0.7749    0.292     C
C       0.9112   0.4272   0.4721     C
C        0.912    0.591   0.9539     C
C       0.9279   0.3959   0.1332     C
Cu     0.92985  0.53425  0.63135    Cu
N       0.9333   0.5853   0.5703     N
C       0.9549   0.6569    0.487     C
C       0.9581   0.3761   0.0827     C
I      0.96173  0.95092  0.72267     I
Cu     0.96471  0.02611  0.79235    Cu
C       0.9709   0.2569   0.7465     C
C       0.9738   0.2658   0.8366     C
N       0.9743   0.5523   0.8553     N
O       0.9758   0.2328   0.7934     O
C       0.9784   0.6994   0.4441     C
N       0.9822   0.3462   0.9767     N
O       0.9827   0.7487   0.4526     O
C       0.9839   0.3209   0.9285     C
C       0.9864   0.2984   0.6494     C
I      0.98816  0.59743  0.71238     I
Cu     0.99045  0.51875  0.78501    Cu
N       0.9953   0.6753   0.3983     N
H       0.9961   0.6395    0.398     H
