data_I
_chemical_name_common  '/Users/gianmarcoterrones/Research/MOFs/MOF_structures/water_stability_work_extra_structs/cleaned_from_CCDC/CUNGAU'
_cell_length_a  8.29770
_cell_length_b 13.20890
_cell_length_c 16.66080
_cell_angle_alpha 90.00000
_cell_angle_beta  90.00000
_cell_angle_gamma 90.00000
_space_group_name_H-M_alt      'P 1'


loop_
_space_group_symop_operation_xyz
  'x, y, z' 

loop_
_atom_site_label
_atom_site_fract_x
_atom_site_fract_y
_atom_site_fract_z
_atom_site_type_symbol
Cu         0.0      0.0      0.0    Cu
Cu         0.0      0.5      0.5    Cu
C       0.0075   0.5035    0.241     C
C       0.0075   0.9965    0.741     C
N       0.0242   0.0222  0.88533     N
N       0.0242   0.4778  0.38533     N
C       0.0276   0.0287  0.17416     C
C       0.0276   0.4713  0.67416     C
H       0.0655   0.5583   0.2166     H
H       0.0655   0.9417   0.7166     H
H        0.071    0.064    0.874     H
H        0.071    0.436    0.374     H
H       0.0715    0.057   0.7387     H
H       0.0715    0.443   0.2387     H
H       0.0919   0.5072   0.7873     H
H       0.0919   0.9928   0.2873     H
N       0.1225  0.11271  0.16315     N
N       0.1225  0.38729  0.66315     N
N        0.126  0.12006  0.02469     N
N        0.126  0.37994  0.52469     N
H        0.143    0.141      0.2     H
H        0.143    0.359      0.7     H
H       0.1553   0.7465   0.6337     H
H       0.1553   0.7535   0.1337     H
C       0.1627   0.1589  0.09258     C
C       0.1627   0.3411  0.59258     C
H        0.169    0.165    0.987     H
H        0.169    0.335    0.487     H
H       0.1831   0.1935   0.6231     H
H       0.1831   0.3065   0.1231     H
H       0.2133    0.722   0.0477     H
H       0.2133    0.778   0.5477     H
C       0.2477   0.7439   0.0999     C
C       0.2477   0.7561   0.5999     C
C       0.2523   0.2439   0.5999     C
C       0.2523   0.2561   0.0999     C
H       0.2867    0.222   0.5477     H
H       0.2867    0.278   0.0477     H
H       0.3169   0.6935   0.1231     H
H       0.3169   0.8065   0.6231     H
H        0.331    0.665    0.487     H
H        0.331    0.835    0.987     H
C       0.3373   0.6589  0.59258     C
C       0.3373   0.8411  0.09258     C
H       0.3447   0.2465   0.1337     H
H       0.3447   0.2535   0.6337     H
H        0.357    0.641      0.7     H
H        0.357    0.859      0.2     H
N        0.374  0.62006  0.52469     N
N        0.374  0.87994  0.02469     N
N       0.3775  0.61271  0.66315     N
N       0.3775  0.88729  0.16315     N
H       0.4081   0.0072   0.2873     H
H       0.4081   0.4928   0.7873     H
H       0.4285    0.557   0.2387     H
H       0.4285    0.943   0.7387     H
H        0.429    0.564    0.374     H
H        0.429    0.936    0.874     H
H       0.4345   0.0583   0.7166     H
H       0.4345   0.4417   0.2166     H
C       0.4724   0.5287  0.67416     C
C       0.4724   0.9713  0.17416     C
N       0.4758   0.5222  0.38533     N
N       0.4758   0.9778  0.88533     N
C       0.4925   0.0035    0.741     C
C       0.4925   0.4965    0.241     C
Cu         0.5      0.0      0.0    Cu
Cu         0.5      0.5      0.5    Cu
C       0.5075   0.5035    0.759     C
C       0.5075   0.9965    0.259     C
N       0.5242   0.0222  0.11467     N
N       0.5242   0.4778  0.61467     N
C       0.5276   0.0287  0.82584     C
C       0.5276   0.4713  0.32584     C
H       0.5655   0.5583   0.7834     H
H       0.5655   0.9417   0.2834     H
H        0.571    0.064    0.126     H
H        0.571    0.436    0.626     H
H       0.5715    0.057   0.2613     H
H       0.5715    0.443   0.7613     H
H       0.5919   0.5072   0.2127     H
H       0.5919   0.9928   0.7127     H
N       0.6225  0.11271  0.83685     N
N       0.6225  0.38729  0.33685     N
N        0.626  0.12006  0.97531     N
N        0.626  0.37994  0.47531     N
H        0.643    0.141      0.8     H
H        0.643    0.359      0.3     H
H       0.6553   0.7465   0.3663     H
H       0.6553   0.7535   0.8663     H
C       0.6627   0.1589  0.90742     C
C       0.6627   0.3411  0.40742     C
H        0.669    0.165    0.013     H
H        0.669    0.335    0.513     H
H       0.6831   0.1935   0.3769     H
H       0.6831   0.3065   0.8769     H
H       0.7133    0.722   0.9523     H
H       0.7133    0.778   0.4523     H
C       0.7477   0.7439   0.9001     C
C       0.7477   0.7561   0.4001     C
C       0.7523   0.2439   0.4001     C
C       0.7523   0.2561   0.9001     C
H       0.7867    0.222   0.4523     H
H       0.7867    0.278   0.9523     H
H       0.8169   0.6935   0.8769     H
H       0.8169   0.8065   0.3769     H
H        0.831    0.665    0.513     H
H        0.831    0.835    0.013     H
C       0.8373   0.6589  0.40742     C
C       0.8373   0.8411  0.90742     C
H       0.8447   0.2465   0.8663     H
H       0.8447   0.2535   0.3663     H
H        0.857    0.641      0.3     H
H        0.857    0.859      0.8     H
N        0.874  0.62006  0.47531     N
N        0.874  0.87994  0.97531     N
N       0.8775  0.61271  0.33685     N
N       0.8775  0.88729  0.83685     N
H       0.9081   0.0072   0.7127     H
H       0.9081   0.4928   0.2127     H
H       0.9285    0.557   0.7613     H
H       0.9285    0.943   0.2613     H
H        0.929    0.564    0.626     H
H        0.929    0.936    0.126     H
H       0.9345   0.0583   0.2834     H
H       0.9345   0.4417   0.7834     H
C       0.9724   0.5287  0.32584     C
C       0.9724   0.9713  0.82584     C
N       0.9758   0.5222  0.61467     N
N       0.9758   0.9778  0.11467     N
C       0.9925   0.0035    0.259     C
C       0.9925   0.4965    0.759     C
