data_I
_chemical_name_common  '/Users/gianmarcoterrones/Research/MOFs/MOF_structures/water_stability_work_extra_structs/cleaned_from_CoRE/CUSDIE_charged'
_cell_length_a 18.21880
_cell_length_b 18.21860
_cell_length_c 18.21860
_cell_angle_alpha 109.47100
_cell_angle_beta  109.47144
_cell_angle_gamma 109.47144
_space_group_name_H-M_alt      'P 1'


loop_
_space_group_symop_operation_xyz
  'x, y, z' 

loop_
_atom_site_label
_atom_site_fract_x
_atom_site_fract_y
_atom_site_fract_z
_atom_site_type_symbol
O          0.0   0.3524   0.7874     O
C          0.0   0.3928    0.748     C
O          0.0   0.4681   0.7741     O
Cu         0.0   0.5157  0.88676    Cu
O          0.0   0.5582      1.0     O
N          0.0   0.6312    0.273     N
C          0.0   0.6601   0.3597     C
C          0.0    0.748   0.3928     C
O          0.0   0.7741   0.4681     O
Cu         0.0  0.88676   0.5157    Cu
N        0.046   0.1775   0.6241     N
N        0.046   0.6241   0.1775     N
H       0.0538   0.4056   0.6668     H
H       0.0538   0.6668   0.4056     H
C         0.07   0.2623   0.6551     C
C         0.07   0.6551   0.2623     C
Cu     0.11324  0.11324  0.62894    Cu
Cu     0.11324  0.62894  0.11324    Cu
H       0.1306   0.3101   0.6903     H
H       0.1306   0.6903   0.3101     H
N       0.1315   0.5781    0.954     N
N       0.1315    0.954   0.5781     N
N       0.1775    0.046   0.6241     N
N       0.1775   0.6241    0.046     N
H       0.1795   0.5597   0.8694     H
H       0.1795   0.8694   0.5597     H
C       0.1923   0.5851     0.93     C
C       0.1923     0.93   0.5851     C
O       0.2126   0.2126    0.565     O
O       0.2126    0.565   0.2126     O
O       0.2259   0.2259    0.694     O
O       0.2259    0.694   0.2259     O
C        0.252    0.252   0.6448     C
C        0.252   0.6448    0.252     C
H       0.2612   0.5944   0.6482     H
H       0.2612   0.6482   0.5944     H
C       0.2623     0.07   0.6551     C
C       0.2623   0.6551     0.07     C
N        0.273      0.0   0.6312     N
N        0.273   0.6312      0.0     N
C       0.3004   0.6403   0.6403     C
O        0.306   0.5319   0.5319     O
H       0.3097   0.4403   0.6198     H
H       0.3097   0.6198   0.4403     H
H       0.3101   0.1306   0.6903     H
H       0.3101   0.6903   0.1306     H
H       0.3332    0.387   0.7388     H
H       0.3332   0.7388    0.387     H
C       0.3399   0.3399   0.6996     C
C       0.3399   0.6996   0.3399     C
C       0.3449   0.4149   0.6072     C
C       0.3449   0.6072   0.4149     C
H       0.3518    0.613   0.9462     H
H       0.3518   0.9462    0.613     H
O       0.3524      0.0   0.7874     O
O       0.3524   0.7874      1.0     O
C       0.3552   0.6072   0.6072     C
N       0.3582    0.727    0.727     N
C       0.3597      0.0   0.6601     C
C       0.3597   0.6601      0.0     C
N       0.3688   0.3688   0.6418     N
N       0.3688   0.6418   0.3688     N
Cu     0.37106   0.4843   0.4843    Cu
N       0.3759   0.4219   0.5534     N
N       0.3759   0.5534   0.4219     N
H       0.3802   0.6899   0.8205     H
H       0.3802   0.8205   0.6899     H
H        0.387   0.3332   0.7388     H
H        0.387   0.7388   0.3332     H
C       0.3928      0.0    0.748     C
C       0.3928   0.7377   0.8077     C
C       0.3928    0.748      0.0     C
C       0.3928   0.8077   0.7377     C
H       0.4056   0.0538   0.6668     H
H       0.4056   0.6668   0.0538     H
C       0.4149   0.3449   0.6072     C
C       0.4149   0.6072   0.3449     C
N       0.4219   0.3759   0.5534     N
N       0.4219   0.5534   0.3759     N
O        0.435   0.6476   0.6476     O
H       0.4403   0.3097   0.6198     H
H       0.4403   0.6198   0.3097     H
O       0.4418   0.4418   0.4418     O
N       0.4466   0.8225   0.8685     N
N       0.4466   0.8685   0.8225     N
O       0.4681      0.0   0.7741     O
O       0.4681   0.7741      0.0     O
Cu      0.4843  0.37106   0.4843    Cu
Cu      0.4843   0.4843  0.37106    Cu
Cu      0.5157      0.0  0.88676    Cu
Cu      0.5157  0.88676      1.0    Cu
O       0.5319    0.306   0.5319     O
O       0.5319   0.5319    0.306     O
N       0.5534   0.3759   0.4219     N
N       0.5534   0.4219   0.3759     N
O       0.5582      0.0      0.0     O
H       0.5597   0.1795   0.8694     H
H       0.5597   0.8694   0.1795     H
O        0.565   0.2126   0.2126     O
N       0.5781   0.1315    0.954     N
N       0.5781    0.954   0.1315     N
C       0.5851   0.1923     0.93     C
C       0.5851     0.93   0.1923     C
H       0.5944   0.2612   0.6482     H
H       0.5944   0.6482   0.2612     H
C       0.6072   0.3449   0.4149     C
C       0.6072   0.3552   0.6072     C
C       0.6072   0.4149   0.3449     C
C       0.6072   0.6072   0.3552     C
H        0.613   0.3518   0.9462     H
H        0.613   0.9462   0.3518     H
H       0.6198   0.3097   0.4403     H
H       0.6198   0.4403   0.3097     H
N       0.6241    0.046   0.1775     N
N       0.6241   0.1775    0.046     N
Cu     0.62894  0.11324  0.11324    Cu
N       0.6312      0.0    0.273     N
N       0.6312    0.273      0.0     N
C       0.6403   0.3004   0.6403     C
C       0.6403   0.6403   0.3004     C
N       0.6418   0.3688   0.3688     N
C       0.6448    0.252    0.252     C
O       0.6476    0.435   0.6476     O
O       0.6476   0.6476    0.435     O
H       0.6482   0.2612   0.5944     H
H       0.6482   0.5944   0.2612     H
C       0.6551     0.07   0.2623     C
C       0.6551   0.2623     0.07     C
C       0.6601      0.0   0.3597     C
C       0.6601   0.3597      0.0     C
H       0.6668   0.0538   0.4056     H
H       0.6668   0.4056   0.0538     H
H       0.6899   0.3802   0.8205     H
H       0.6899   0.8205   0.3802     H
H       0.6903   0.1306   0.3101     H
H       0.6903   0.3101   0.1306     H
O        0.694   0.2259   0.2259     O
C       0.6996   0.3399   0.3399     C
N        0.727   0.3582    0.727     N
N        0.727    0.727   0.3582     N
C       0.7377   0.3928   0.8077     C
C       0.7377   0.8077   0.3928     C
H       0.7388   0.3332    0.387     H
H       0.7388    0.387   0.3332     H
C        0.748      0.0   0.3928     C
C        0.748   0.3928      0.0     C
O       0.7741      0.0   0.4681     O
O       0.7741   0.4681      0.0     O
O       0.7874      0.0   0.3524     O
O       0.7874   0.3524      0.0     O
C       0.8077   0.3928   0.7377     C
C       0.8077   0.7377   0.3928     C
H       0.8205   0.3802   0.6899     H
H       0.8205   0.6899   0.3802     H
N       0.8225   0.4466   0.8685     N
N       0.8225   0.8685   0.4466     N
N       0.8685   0.4466   0.8225     N
N       0.8685   0.8225   0.4466     N
H       0.8694   0.1795   0.5597     H
H       0.8694   0.5597   0.1795     H
Cu     0.88676      0.0   0.5157    Cu
Cu     0.88676   0.5157      0.0    Cu
C         0.93   0.1923   0.5851     C
C         0.93   0.5851   0.1923     C
H       0.9462   0.3518    0.613     H
H       0.9462    0.613   0.3518     H
N        0.954   0.1315   0.5781     N
N        0.954   0.5781   0.1315     N
N          1.0    0.273   0.6312     N
C          1.0   0.3597   0.6601     C
O          1.0   0.7874   0.3524     O
O          1.0      1.0   0.5582     O
