data_I
_chemical_name_common  '/Users/gianmarcoterrones/Research/MOFs/MOF_structures/water_stability_work_extra_structs/cleaned_from_CCDC/CUTKIM'
_cell_length_a 11.03510
_cell_length_b 15.72760
_cell_length_c 23.45800
_cell_angle_alpha 90.00000
_cell_angle_beta  90.00000
_cell_angle_gamma 101.75900
_space_group_name_H-M_alt      'P 1'


loop_
_space_group_symop_operation_xyz
  'x, y, z' 

loop_
_atom_site_label
_atom_site_fract_x
_atom_site_fract_y
_atom_site_fract_z
_atom_site_type_symbol
H       0.0004   0.2972   0.0151     H
H       0.0004   0.7972   0.4849     H
H       0.0033   0.0028   0.3922     H
H       0.0033   0.5028   0.1078     H
N       0.0057    0.225  0.73045     N
N       0.0057    0.725  0.76955     N
C       0.0066   0.2204   0.2715     C
C       0.0066   0.7204   0.2285     C
C       0.0083   0.0477  0.10895     C
C       0.0083   0.5477  0.39105     C
H       0.0099    0.012   0.8971     H
H       0.0099    0.512   0.6029     H
C       0.0104   0.1907   0.0602     C
C       0.0104   0.6907   0.4398     C
C       0.0264   0.2628  0.51625     C
C       0.0264   0.7628  0.98375     C
C       0.0277   0.3991  0.56333     C
C       0.0277   0.8991  0.93667     C
N       0.0362   0.1066  0.65025     N
N       0.0362   0.6066  0.84975     N
C       0.0529   0.0499   0.6099     C
C       0.0529   0.5499   0.8901     C
H       0.0617   0.2199   0.0885     H
H       0.0617   0.7199   0.4115     H
C       0.0636   0.0741  0.15767     C
C       0.0636   0.5741  0.34233     C
H       0.0682    0.392   0.8102     H
H       0.0682    0.892   0.6898     H
O       0.0725   0.4331  0.30874     O
O       0.0725   0.9331  0.19126     O
H       0.0755   0.2332   0.2952     H
H       0.0755   0.7332   0.2048     H
C       0.0796   0.3552   0.7806     C
C       0.0796   0.8552   0.7194     C
H       0.0859   0.1334   0.1648     H
H       0.0859   0.6334   0.3352     H
C       0.0915   0.0123  0.20164     C
C       0.0915   0.5123  0.29836     C
C       0.1034   0.4406  0.51975     C
C       0.1034   0.9406  0.98025     C
C        0.104   0.3048  0.47296     C
C        0.104   0.8048  0.02704     C
C       0.1058   0.2443  0.69602     C
C       0.1058   0.7443  0.80398     C
H       0.1131   0.1375   0.4499     H
H       0.1131   0.6375   0.0501     H
C       0.1199    0.182  0.65321     C
C       0.1199    0.682  0.84679     C
H       0.1271   0.1612   0.8717     H
H       0.1271   0.6612   0.6283     H
H       0.1298   0.0007   0.9793     H
H       0.1298   0.5007   0.5207     H
O       0.1345  0.04349  0.24921     O
O       0.1345  0.54349  0.25079     O
Cd     0.13967  0.40445 0.213552    Cd
Cd     0.13967  0.90445 0.286448    Cd
C       0.1397   0.3941  0.47537     C
C       0.1397   0.8941  0.02463     C
C       0.1497   0.0656   0.5712     C
C       0.1497   0.5656   0.9288     C
C       0.1505   0.2582  0.42615     C
C       0.1505   0.7582  0.07385     C
C       0.1518    0.175  0.42178     C
C       0.1518    0.675  0.07822     C
H       0.1568   0.0247   0.5434     H
H       0.1568   0.5247   0.9566     H
H       0.1662   0.2805    0.927     H
H       0.1662   0.7805    0.573     H
C       0.1789   0.3759   0.7473     C
C       0.1789   0.8759   0.7527     C
H       0.1836   0.2923   0.3953     H
H       0.1836   0.7923   0.1047     H
H       0.1885   0.0758   0.7885     H
H       0.1885   0.5758   0.7115     H
H       0.1891   0.4233   0.4465     H
H       0.1891   0.9233   0.0535     H
C       0.1958   0.3197   0.7018     C
C       0.1958   0.8197   0.7982     C
C       0.1967   0.2043   0.8644     C
C       0.1967   0.7043   0.6356     C
C       0.2127   0.1386   0.3735     C
C       0.2127   0.6386   0.1265     C
O       0.2131   0.0594  0.37271     O
O       0.2131   0.5594  0.12729     O
C       0.2194   0.2755   0.8969     C
C       0.2194   0.7755   0.6031     C
C        0.222   0.2014   0.6155     C
C        0.222   0.7014   0.8845     C
C       0.2324   0.1399   0.5742     C
C       0.2324   0.6399   0.9258     C
O       0.2364  0.34258  0.14537     O
O       0.2364  0.84258  0.35463     O
H       0.2368   0.4269   0.7537     H
H       0.2368   0.9269   0.7463     H
C       0.2574   0.1201    0.783     C
C       0.2574   0.6201    0.717     C
O         0.26  0.19201  0.33524     O
O         0.26  0.69201  0.16476     O
O       0.2701  0.24788  0.21093     O
O       0.2701  0.74788  0.28907     O
C       0.2763   0.2758    0.161     C
C       0.2763   0.7758    0.339     C
C       0.2776    0.193   0.8183     C
C       0.2776    0.693   0.6817     C
C       0.2972   0.3367   0.6634     C
C       0.2972   0.8367   0.8366     C
H       0.2978   0.1508   0.5485     H
H       0.2978   0.6508   0.9515     H
H       0.2985   0.4265   0.9502     H
H       0.2985   0.9265   0.5498     H
C       0.3081   0.2817   0.6222     C
C       0.3081   0.7817   0.8778     C
H       0.3207   0.0857   0.0468     H
H       0.3207   0.5857   0.4532     H
C       0.3238   0.3443  0.88664     C
C       0.3238   0.8443  0.61336     C
H       0.3239   0.0668   0.7162     H
H       0.3239   0.5668   0.7838     H
C       0.3311   0.2268  0.11681     C
C       0.3311   0.7268  0.38319     C
O       0.3375  0.45206  0.24977     O
O       0.3375  0.95206  0.25023     O
C       0.3382   0.1142   0.7408     C
C       0.3382   0.6142   0.7592     C
Cd     0.34451 0.136876 0.262993    Cd
Cd     0.34451 0.636876 0.237007    Cd
H       0.3447   0.1722   0.1266     H
H       0.3447   0.6722   0.3734     H
C       0.3493   0.4198   0.9196     C
C       0.3493   0.9198   0.5804     C
H       0.3545    0.312   0.0557     H
H       0.3545    0.812   0.4443     H
H       0.3569   0.3875   0.6672     H
H       0.3569   0.8875   0.8328     H
C       0.3617   0.2556   0.0645     C
C       0.3617   0.7556   0.4355     C
C       0.3718   0.1144  0.01827     C
C       0.3718   0.6144  0.48173     C
H       0.3739   0.2956   0.5968     H
H       0.3739   0.7956   0.9032     H
C       0.3777   0.4822  0.29716     C
C       0.3777   0.9822  0.20284     C
H       0.3819   0.3604   0.3337     H
H       0.3819   0.8604   0.1663     H
C        0.384   0.2582  0.80811     C
C        0.384   0.7582  0.69189     C
H       0.3883   0.0069   0.9756     H
H       0.3883   0.5069   0.5244     H
O       0.3969  0.06147     0.19     O
O       0.3969  0.56147     0.31     O
C       0.4058    0.336  0.84163     C
C       0.4058    0.836  0.65837     C
C       0.4063   0.2046  0.01948     C
C       0.4063   0.7046  0.48052     C
C       0.4081   0.4197  0.34018     C
C       0.4081   0.9197  0.15982     C
H       0.4085   0.4844   0.1481     H
H       0.4085   0.9844   0.3519     H
C       0.4123   0.0671  0.97545     C
C       0.4123   0.5671  0.52455     C
H       0.4253   0.2734   0.4045     H
H       0.4253   0.7734   0.0955     H
C       0.4434   0.1797  0.73443     C
C       0.4434   0.6797  0.76557     C
C       0.4489   0.4837   0.9067     C
C       0.4489   0.9837   0.5933     C
H       0.4663   0.0346    0.572     H
H       0.4663   0.5346    0.928     H
N       0.4666   0.2503  0.76644     N
N       0.4666   0.7503  0.73356     N
C       0.4713    0.446  0.38723     C
C       0.4713    0.946  0.11277     C
C       0.4755   0.0286  0.36081     C
C       0.4755   0.5286  0.13919     C
C       0.4768   0.3021  0.43282     C
C       0.4768   0.8021  0.06718     C
C       0.4819    0.245  0.97558     C
C       0.4819    0.745  0.52442     C
C       0.4888    0.108  0.93168     C
C       0.4888    0.608  0.56832     C
H       0.4929   0.0057   0.1073     H
H       0.4929   0.5057   0.3927     H
N       0.4949   0.1002  0.32944     N
N       0.4949   0.6002  0.17056     N
H       0.4951   0.1947   0.4751     H
H       0.4951   0.6947   0.0249     H
H       0.4998   0.3266   0.2062     H
H       0.4998   0.8266   0.2938     H
H       0.5002   0.1734   0.7062     H
H       0.5002   0.6734   0.7938     H
H       0.5049   0.3053   0.9751     H
H       0.5049   0.8053   0.5249     H
N       0.5051   0.3998  0.82944     N
N       0.5051   0.8998  0.67056     N
H       0.5071   0.4943   0.6073     H
H       0.5071   0.9943   0.8927     H
C       0.5112    0.392  0.43168     C
C       0.5112    0.892  0.06832     C
C       0.5181    0.255  0.47558     C
C       0.5181    0.755  0.02442     C
C       0.5232   0.1979  0.93282     C
C       0.5232   0.6979  0.56718     C
C       0.5245   0.4714  0.86081     C
C       0.5245   0.9714  0.63919     C
C       0.5287    0.054  0.88723     C
C       0.5287    0.554  0.61277     C
N       0.5334   0.2497  0.26644     N
N       0.5334   0.7497  0.23356     N
H       0.5337   0.4654    0.072     H
H       0.5337   0.9654    0.428     H
C       0.5511   0.0163   0.4067     C
C       0.5511   0.5163   0.0933     C
C       0.5566   0.3203  0.23443     C
C       0.5566   0.8203  0.26557     C
H       0.5747   0.2266   0.9045     H
H       0.5747   0.7266   0.5955     H
C       0.5877   0.4329  0.47545     C
C       0.5877   0.9329  0.02455     C
H       0.5915   0.0156   0.6481     H
H       0.5915   0.5156   0.8519     H
C       0.5919   0.0803  0.84018     C
C       0.5919   0.5803  0.65982     C
C       0.5937   0.2954  0.51948     C
C       0.5937   0.7954  0.98052     C
C       0.5942    0.164  0.34163     C
C       0.5942    0.664  0.15837     C
O       0.6031  0.43853     0.69     O
O       0.6031  0.93853     0.81     O
H       0.6117   0.4931   0.4756     H
H       0.6117   0.9931   0.0244     H
C        0.616   0.2418  0.30811     C
C        0.616   0.7418  0.19189     C
H       0.6181   0.1396   0.8337     H
H       0.6181   0.6396   0.6663     H
C       0.6223   0.0178  0.79716     C
C       0.6223   0.5178  0.70284     C
H       0.6261   0.2044   0.0968     H
H       0.6261   0.7044   0.4032     H
C       0.6282   0.3856  0.51827     C
C       0.6282   0.8856  0.98173     C
C       0.6383   0.2444   0.5645     C
C       0.6383   0.7444   0.9355     C
H       0.6431   0.1125   0.1672     H
H       0.6431   0.6125   0.3328     H
H       0.6455    0.188   0.5557     H
H       0.6455    0.688   0.9443     H
C       0.6507   0.0802   0.4196     C
C       0.6507   0.5802   0.0804     C
H       0.6553   0.3278   0.6266     H
H       0.6553   0.8278   0.8734     H
Cd     0.65549 0.363124 0.762993    Cd
Cd     0.65549 0.863124 0.737007    Cd
C       0.6618   0.3858   0.2408     C
C       0.6618   0.8858   0.2592     C
O       0.6625  0.04794  0.74977     O
O       0.6625  0.54794  0.75023     O
C       0.6689   0.2732  0.61681     C
C       0.6689   0.7732  0.88319     C
H       0.6761   0.4332   0.2162     H
H       0.6761   0.9332   0.2838     H
C       0.6762   0.1557  0.38664     C
C       0.6762   0.6557  0.11336     C
H       0.6793   0.4143   0.5468     H
H       0.6793   0.9143   0.9532     H
C       0.6919   0.2183   0.1222     C
C       0.6919   0.7183   0.3778     C
H       0.7015   0.0735   0.4502     H
H       0.7015   0.5735   0.0498     H
H       0.7022   0.3492   0.0485     H
H       0.7022   0.8492   0.4515     H
C       0.7028   0.1633   0.1634     C
C       0.7028   0.6633   0.3366     C
C       0.7224    0.307   0.3183     C
C       0.7224    0.807   0.1817     C
C       0.7237   0.2242    0.661     C
C       0.7237   0.7242    0.839     C
O       0.7299  0.25212  0.71093     O
O       0.7299  0.75212  0.78907     O
O         0.74  0.30799  0.83524     O
O         0.74  0.80799  0.66476     O
C       0.7426   0.3799    0.283     C
C       0.7426   0.8799    0.217     C
H       0.7632   0.0731   0.2537     H
H       0.7632   0.5731   0.2463     H
O       0.7636  0.15742  0.64537     O
O       0.7636  0.65742  0.85463     O
C       0.7676   0.3601   0.0742     C
C       0.7676   0.8601   0.4258     C
C        0.778   0.2986   0.1155     C
C        0.778   0.7986   0.3845     C
C       0.7806   0.2245   0.3969     C
C       0.7806   0.7245   0.1031     C
O       0.7869   0.4406  0.87271     O
O       0.7869   0.9406  0.62729     O
C       0.7873   0.3614   0.8735     C
C       0.7873   0.8614   0.6265     C
C       0.8033   0.2957   0.3644     C
C       0.8033   0.7957   0.1356     C
C       0.8042   0.1803   0.2018     C
C       0.8042   0.6803   0.2982     C
H       0.8109   0.0767   0.9465     H
H       0.8109   0.5767   0.5535     H
H       0.8115   0.4242   0.2885     H
H       0.8115   0.9242   0.2115     H
H       0.8164   0.2077   0.8953     H
H       0.8164   0.7077   0.6047     H
C       0.8211   0.1241   0.2473     C
C       0.8211   0.6241   0.2527     C
H       0.8338   0.2195    0.427     H
H       0.8338   0.7195    0.073     H
H       0.8432   0.4753   0.0434     H
H       0.8432   0.9753   0.4566     H
C       0.8482    0.325  0.92178     C
C       0.8482    0.825  0.57822     C
C       0.8495   0.2418  0.92615     C
C       0.8495   0.7418  0.57385     C
C       0.8503   0.4344   0.0712     C
C       0.8503   0.9344   0.4288     C
C       0.8603   0.1059  0.97537     C
C       0.8603   0.6059  0.52463     C
Cd     0.86033  0.09555 0.713552    Cd
Cd     0.86033  0.59555 0.786448    Cd
O       0.8655  0.45651  0.74921     O
O       0.8655  0.95651  0.75079     O
H       0.8702   0.4993   0.4793     H
H       0.8702   0.9993   0.0207     H
H       0.8729   0.3388   0.3717     H
H       0.8729   0.8388   0.1283     H
C       0.8801    0.318  0.15321     C
C       0.8801    0.818  0.34679     C
H       0.8869   0.3625   0.9499     H
H       0.8869   0.8625   0.5501     H
C       0.8942   0.2557  0.19602     C
C       0.8942   0.7557  0.30398     C
C        0.896   0.1952  0.97296     C
C        0.896   0.6952  0.52704     C
C       0.8966   0.0594  0.01975     C
C       0.8966   0.5594  0.48025     C
C       0.9085   0.4877  0.70164     C
C       0.9085   0.9877  0.79836     C
H       0.9141   0.3666   0.6648     H
H       0.9141   0.8666   0.8352     H
C       0.9204   0.1448   0.2806     C
C       0.9204   0.6448   0.2194     C
H       0.9245   0.2668   0.7952     H
H       0.9245   0.7668   0.7048     H
O       0.9275   0.0669  0.80874     O
O       0.9275   0.5669  0.69126     O
H       0.9318    0.108   0.3102     H
H       0.9318    0.608   0.1898     H
C       0.9364   0.4259  0.65767     C
C       0.9364   0.9259  0.84233     C
H       0.9383   0.2801   0.5885     H
H       0.9383   0.7801   0.9115     H
C       0.9471   0.4501   0.1099     C
C       0.9471   0.9501   0.3901     C
N       0.9638   0.3934  0.15025     N
N       0.9638   0.8934  0.34975     N
C       0.9723   0.1009  0.06333     C
C       0.9723   0.6009  0.43667     C
C       0.9736   0.2372  0.01625     C
C       0.9736   0.7372  0.48375     C
C       0.9896   0.3093   0.5602     C
C       0.9896   0.8093   0.9398     C
H       0.9901    0.488   0.3971     H
H       0.9901    0.988   0.1029     H
C       0.9917   0.4523  0.60895     C
C       0.9917   0.9523  0.89105     C
C       0.9934   0.2796   0.7715     C
C       0.9934   0.7796   0.7285     C
N       0.9943    0.275  0.23045     N
N       0.9943    0.775  0.26955     N
H       0.9967   0.4972   0.8922     H
H       0.9967   0.9972   0.6078     H
H       0.9996   0.2028   0.5151     H
H       0.9996   0.7028   0.9849     H
