data_I
_chemical_name_common  '/Users/gianmarcoterrones/Research/MOFs/MOF_structures/water_stability_work_extra_structs/cleaned_from_CCDC/CUTKUY'
_cell_length_a  5.46720
_cell_length_b  7.99900
_cell_length_c 12.69774
_cell_angle_alpha 96.09019
_cell_angle_beta  102.43210
_cell_angle_gamma 90.00000
_space_group_name_H-M_alt      'P 1'


loop_
_space_group_symop_operation_xyz
  'x, y, z' 

loop_
_atom_site_label
_atom_site_fract_x
_atom_site_fract_y
_atom_site_fract_z
_atom_site_type_symbol
O      0.00104   0.7405  0.82908     O
C      0.01678   0.0291  0.39556     C
H         0.03    0.049   0.3262     H
H       0.1254   0.6364   0.4722     H
Pb      0.1422     0.25      0.0    Pb
H       0.1431   0.6813   0.6624     H
C       0.1551   0.6274   0.8536     C
O      0.17196   0.7595  0.17092     O
O      0.17851   0.5668  0.94402     O
C      0.19457   0.0533  0.58894     C
C      0.20624   0.0819  0.48328     C
O      0.23449   0.9332  0.05598     O
C      0.26907   0.6055  0.67774     C
C      0.27704   0.5819  0.48328     C
H       0.2962    0.549   0.3262     H
C       0.3015   0.8726   0.1464     C
C      0.31441   0.5623  0.77802     C
H       0.3468   0.1364   0.4722     H
H       0.3592   0.9899   0.8002     H
C      0.37878   0.5291  0.39556     C
C      0.39437   0.5533  0.58894     C
C      0.40867   0.1055  0.67774     C
H        0.441   0.4899   0.8002     H
C      0.46361   0.0623  0.77802     C
H       0.4807   0.8187   0.3376     H
H       0.5193   0.1813   0.6624     H
C      0.53639   0.9377  0.22198     C
H        0.559   0.5101   0.1998     H
C      0.59133   0.8945  0.32226     C
C      0.60563   0.4467  0.41106     C
C      0.62122   0.4709  0.60444     C
H       0.6408   0.0101   0.1998     H
H       0.6532   0.8636   0.5278     H
C      0.68559   0.4377  0.22198     C
C       0.6985   0.1274   0.8536     C
H       0.7038    0.451   0.6738     H
C      0.72296   0.4181  0.51672     C
C      0.73093   0.3945  0.32226     C
O      0.76551   0.0668  0.94402     O
C      0.79376   0.9181  0.51672     C
C      0.80543   0.9467  0.41106     C
O      0.82149   0.4332  0.05598     O
O      0.82804   0.2405  0.82908     O
C       0.8449   0.3726   0.1464     C
H       0.8569   0.3187   0.3376     H
Pb      0.8578     0.75      0.0    Pb
H       0.8746   0.3636   0.5278     H
H         0.97    0.951   0.6738     H
C      0.98322   0.9709  0.60444     C
O      0.99896   0.2595  0.17092     O
