data_I
_chemical_name_common  '/Users/gianmarcoterrones/Research/MOFs/MOF_structures/water_stability_work_extra_structs/cleaned_from_CCDC/DANVIY'
_cell_length_a 10.45600
_cell_length_b 11.85900
_cell_length_c 13.73100
_cell_angle_alpha 93.93900
_cell_angle_beta  110.80100
_cell_angle_gamma 111.04300
_space_group_name_H-M_alt      'P 1'


loop_
_space_group_symop_operation_xyz
  'x, y, z' 

loop_
_atom_site_label
_atom_site_fract_x
_atom_site_fract_y
_atom_site_fract_z
_atom_site_type_symbol
C       0.0012   0.0454   0.8076     C
C       0.0015   0.8562   0.5379     C
H       0.0033   0.1871   0.5233     H
O       0.0043   0.3062   0.9128     O
C       0.0075    0.978   0.7132     C
H       0.0152   0.7356   0.7725     H
C       0.0246   0.4931   0.8593     C
C       0.0348   0.4255   0.1832     C
H        0.038    0.263    0.716     H
H       0.0509   0.5813   0.3847     H
C        0.054   0.6798   0.8001     C
C       0.0647   0.6282   0.1214     C
H       0.0779   0.4081   0.4442     H
H        0.094    0.183    0.073     H
N       0.1202   0.0718   0.3733     N
O       0.1218   0.1128   0.8831     O
C       0.1244   0.1315   0.4612     C
O       0.1295   0.9742   0.1988     O
C       0.1338   0.9078   0.6275     C
H       0.1353    0.443   0.2003     H
C       0.1392   0.9722   0.7166     C
C       0.1418   0.5882   0.4358     C
O       0.1463   0.3078   0.7519     O
O        0.154   0.8177   0.3691     O
C       0.1582   0.4856   0.4711     C
N       0.1684   0.5157   0.8839     N
O       0.1786    0.237   0.0907     O
H         0.18    0.286    0.726     H
O       0.1998   0.6569   0.1415     O
C       0.2021   0.7038   0.8243     C
H       0.2189   0.8992   0.6278     H
H       0.2284   0.0109   0.7774     H
H         0.23    0.244     0.16     H
C       0.2545   0.6181   0.8653     C
C       0.2594   0.8175   0.4453     C
C       0.2645    0.701   0.4786     C
H       0.2651   0.7756   0.8135     H
La     0.26951   0.3431  0.95742    La
C       0.2727     0.18   0.5559     C
H        0.281    0.543    0.106     H
O       0.2829   0.2281   0.6423     O
C       0.2943   0.4996   0.5462     C
H       0.3075   0.4318   0.5711     H
O       0.3324   0.5139   0.1133     O
H        0.333    0.814    0.241     H
O       0.3392   0.2523   0.3032     O
La     0.36702  0.06387  0.36697    La
O       0.3752   0.9156   0.5004     O
O       0.3783   0.1639   0.5405     O
H         0.38    0.496    0.165     H
N       0.3961   0.7143   0.5515     N
O       0.4087   0.8773   0.2935     O
C       0.4106    0.615   0.5841     C
C        0.413   0.6313   0.8928     C
O       0.4171   0.4525   0.3022     O
O       0.4252   0.2764   0.8707     O
H        0.435    0.849    0.722     H
C       0.4358   0.3625    0.334     C
H        0.437    0.841    0.334     H
O       0.4406   0.5398   0.9206     O
H        0.441    0.236    0.898     H
H        0.475     0.06    0.199     H
O       0.4845   0.1034   0.2317     O
H        0.486    0.319     0.88     H
O        0.488   0.2717   0.1073     O
O        0.512   0.7283   0.8927     O
H        0.514    0.681     0.12     H
O       0.5155   0.8966   0.7683     O
H        0.525     0.94    0.801     H
H        0.559    0.764    0.102     H
O       0.5594   0.4602   0.0794     O
H        0.563    0.159    0.666     H
C       0.5642   0.6375    0.666     C
H        0.565    0.151    0.278     H
O       0.5748   0.7236   0.1293     O
O       0.5829   0.5475   0.6978     O
C        0.587   0.3687   0.1072     C
C       0.5894    0.385   0.4159     C
O       0.5913   0.1227   0.7065     O
N       0.6039   0.2857   0.4485     N
H         0.62    0.504    0.835     H
O       0.6217   0.8361   0.4595     O
O       0.6248   0.0844   0.4996     O
La     0.63298  0.93613  0.63303    La
O       0.6608   0.7477   0.6968     O
H        0.667    0.186    0.759     H
O       0.6676   0.4861   0.8867     O
H       0.6925   0.5682   0.4289     H
C       0.7057   0.5004   0.4538     C
O       0.7171   0.7719   0.3577     O
H        0.719    0.457    0.894     H
C       0.7273     0.82   0.4441     C
La     0.73049   0.6569  0.04258    La
H       0.7349   0.2244   0.1865     H
C       0.7355    0.299   0.5214     C
C       0.7406   0.1825   0.5547     C
C       0.7455   0.3819   0.1347     C
H         0.77    0.756     0.84     H
H       0.7716   0.9891   0.2226     H
H       0.7811   0.1008   0.3722     H
C       0.7979   0.2962   0.1757     C
O       0.8002   0.3431   0.8585     O
H         0.82    0.714    0.274     H
O       0.8214    0.763   0.9093     O
N       0.8316   0.4843   0.1161     N
C       0.8418   0.5144   0.5289     C
O        0.846   0.1823   0.6309     O
O       0.8537   0.6922   0.2481     O
C       0.8582   0.4118   0.5642     C
C       0.8608   0.0278   0.2834     C
H       0.8647    0.557   0.7997     H
C       0.8662   0.0922   0.3725     C
O       0.8705   0.0258   0.8012     O
C       0.8756   0.8685   0.5388     C
O       0.8782   0.8872   0.1169     O
N       0.8798   0.9282   0.6267     N
H        0.906    0.817    0.927     H
H       0.9221   0.5919   0.5558     H
C       0.9353   0.3718   0.8786     C
C        0.946   0.3202   0.1999     C
H       0.9491   0.4187   0.6153     H
H        0.962    0.737    0.284     H
C       0.9652   0.5745   0.8168     C
C       0.9754   0.5069   0.1407     C
H       0.9848   0.2644   0.2275     H
C       0.9925    0.022   0.2868     C
O       0.9957   0.6938   0.0872     O
H       0.9967   0.8129   0.4767     H
C       0.9985   0.1438   0.4621     C
C       0.9988   0.9546   0.1924     C
