data_I
_chemical_name_common  '/Users/gianmarcoterrones/Research/MOFs/MOF_structures/water_stability_work_extra_structs/cleaned_from_CCDC/DOFQOF'
_cell_length_a  6.07210
_cell_length_b 12.79610
_cell_length_c 13.36602
_cell_angle_alpha 116.91619
_cell_angle_beta  90.00000
_cell_angle_gamma 90.00000
_space_group_name_H-M_alt      'P 1'


loop_
_space_group_symop_operation_xyz
  'x, y, z' 

loop_
_atom_site_label
_atom_site_fract_x
_atom_site_fract_y
_atom_site_fract_z
_atom_site_type_symbol
Sb         0.0      0.0      0.0    Sb
Sb         0.0      0.0      0.5    Sb
F        0.011   0.1495   0.0276     F
F        0.011   0.8505   0.4724     F
Ag     0.02938      0.5     0.25    Ag
F        0.043   0.0423   0.1448     F
F        0.043   0.9577   0.3552     F
F       0.0998   0.0508   0.8989     F
F       0.0998   0.9492   0.6011     F
H       0.1469   0.2018   0.8131     H
H       0.1469   0.7982   0.6869     H
H       0.1594   0.3329   0.9971     H
H       0.1594   0.6671   0.5029     H
F       0.1763   0.0986   0.1143     F
F       0.1763   0.9014   0.3857     F
H       0.2028   0.3189   0.8013     H
H       0.2028   0.6811   0.6987     H
F       0.2166   0.1108   0.5463     F
F       0.2166   0.8892   0.9537     F
N        0.222   0.4019   0.6109     N
N        0.222   0.5981   0.8891     N
C       0.2563   0.2653    0.831     C
C       0.2563   0.7347    0.669     C
H        0.266   0.1739   0.3663     H
H        0.266   0.8261   0.1337     H
N       0.2689   0.3796   0.2789     N
N       0.2689   0.6204   0.2211     N
F       0.2894   0.0118   0.5225     F
F       0.2894   0.9882   0.9775     F
C       0.2955   0.3304   0.9553     C
C       0.2955   0.6696   0.5447     C
H       0.3436   0.4117   0.9768     H
H       0.3436   0.5883   0.5232     H
C       0.3524   0.3398   0.5542     C
C       0.3524   0.6602   0.9458     C
C       0.3794   0.3087   0.2795     C
C       0.3794   0.6913   0.2205     C
H       0.4105   0.2174   0.0183     H
H       0.4105   0.7826   0.4817     H
C        0.429    0.173   0.3657     C
C        0.429    0.827   0.1343     C
H       0.4649   0.1481   0.7057     H
H       0.4649   0.8519   0.7943     H
C       0.4783   0.2617   0.9807     C
C       0.4783   0.7383   0.5193     C
C       0.4802   0.2152   0.7824     C
C       0.4802   0.7848   0.7176     C
H       0.4804   0.0926    0.346     H
H       0.4804   0.9074    0.154     H
H       0.5196   0.0926    0.846     H
H       0.5196   0.9074    0.654     H
C       0.5198   0.2152   0.2824     C
C       0.5198   0.7848   0.2176     C
C       0.5217   0.2617   0.4807     C
C       0.5217   0.7383   0.0193     C
H       0.5351   0.1481   0.2057     H
H       0.5351   0.8519   0.2943     H
C        0.571    0.173   0.8657     C
C        0.571    0.827   0.6343     C
H       0.5895   0.2174   0.5183     H
H       0.5895   0.7826   0.9817     H
C       0.6206   0.3087   0.7795     C
C       0.6206   0.6913   0.7205     C
C       0.6476   0.3398   0.0542     C
C       0.6476   0.6602   0.4458     C
H       0.6564   0.4117   0.4768     H
H       0.6564   0.5883   0.0232     H
C       0.7045   0.3304   0.4553     C
C       0.7045   0.6696   0.0447     C
F       0.7106   0.0118   0.0225     F
F       0.7106   0.9882   0.4775     F
N       0.7311   0.3796   0.7789     N
N       0.7311   0.6204   0.7211     N
H        0.734   0.1739   0.8663     H
H        0.734   0.8261   0.6337     H
C       0.7437   0.2653    0.331     C
C       0.7437   0.7347    0.169     C
N        0.778   0.4019   0.1109     N
N        0.778   0.5981   0.3891     N
F       0.7834   0.1108   0.0463     F
F       0.7834   0.8892   0.4537     F
H       0.7972   0.3189   0.3013     H
H       0.7972   0.6811   0.1987     H
F       0.8237   0.0986   0.6143     F
F       0.8237   0.9014   0.8857     F
H       0.8406   0.3329   0.4971     H
H       0.8406   0.6671   0.0029     H
H       0.8531   0.2018   0.3131     H
H       0.8531   0.7982   0.1869     H
F       0.9002   0.0508   0.3989     F
F       0.9002   0.9492   0.1011     F
F        0.957   0.0423   0.6448     F
F        0.957   0.9577   0.8552     F
Ag     0.97062      0.5     0.75    Ag
F        0.989   0.1495   0.5276     F
F        0.989   0.8505   0.9724     F
