data_I
_chemical_name_common  '/Users/gianmarcoterrones/Research/MOFs/MOF_structures/water_stability_work_extra_structs/cleaned_from_CCDC/DOFQEV'
_cell_length_a  5.83530
_cell_length_b 11.31460
_cell_length_c 12.92360
_cell_angle_alpha 95.30430
_cell_angle_beta  90.00000
_cell_angle_gamma 90.00000
_space_group_name_H-M_alt      'P 1'


loop_
_space_group_symop_operation_xyz
  'x, y, z' 

loop_
_atom_site_label
_atom_site_fract_x
_atom_site_fract_y
_atom_site_fract_z
_atom_site_type_symbol
Ag     0.01876      0.5     0.25    Ag
H       0.1321   0.2999   0.4238     H
H       0.1321   0.7001   0.0762     H
H       0.1549   0.1665   0.5444     H
H       0.1549   0.8335   0.9556     H
H       0.2055   0.2862   0.6183     H
H       0.2055   0.7138   0.8817     H
N       0.2354  0.39521  0.83952     N
N       0.2354  0.60479  0.66048     N
H       0.2457   0.1592   0.9626     H
H       0.2457   0.8408   0.5374     H
N       0.2562  0.37297  0.15788     N
N       0.2562  0.62703  0.34212     N
C       0.2611  0.23445  0.55747     C
C       0.2611  0.76555  0.94253     C
C       0.2785   0.3033  0.46267     C
C       0.2785   0.6967  0.03733     C
H       0.3173   0.3874    0.483     H
H       0.3173   0.6126    0.017     H
C       0.3623  0.29433  0.12457     C
C       0.3623  0.70567  0.37543     C
C       0.3631  0.32716  0.86374     C
C       0.3631  0.67284  0.63626     C
H       0.4043   0.1963   0.3334     H
H       0.4043   0.8037   0.1666     H
C       0.4148  0.15371  0.96564     C
C       0.4148  0.84629  0.53436     C
H       0.4615   0.0711   0.9435     H
H       0.4615   0.9289   0.5565     H
C       0.4722   0.2415  0.39623     C
C       0.4722   0.7585  0.10377     C
H       0.4967   0.1244     0.62     H
H       0.4967   0.8756     0.88     H
C       0.4973  0.19237  0.57574     C
C       0.4973  0.80763  0.92426     C
C       0.5027  0.19237  0.07574     C
C       0.5027  0.80763  0.42426     C
H       0.5033   0.1244     0.12     H
H       0.5033   0.8756     0.38     H
C       0.5278   0.2415  0.89623     C
C       0.5278   0.7585  0.60377     C
H       0.5385   0.0711   0.4435     H
H       0.5385   0.9289   0.0565     H
C       0.5852  0.15371  0.46564     C
C       0.5852  0.84629  0.03436     C
H       0.5957   0.1963   0.8334     H
H       0.5957   0.8037   0.6666     H
C       0.6369  0.32716  0.36374     C
C       0.6369  0.67284  0.13626     C
C       0.6377  0.29433  0.62457     C
C       0.6377  0.70567  0.87543     C
H       0.6827   0.3874    0.983     H
H       0.6827   0.6126    0.517     H
C       0.7215   0.3033  0.96267     C
C       0.7215   0.6967  0.53733     C
C       0.7389  0.23445  0.05747     C
C       0.7389  0.76555  0.44253     C
N       0.7438  0.37297  0.65788     N
N       0.7438  0.62703  0.84212     N
H       0.7543   0.1592   0.4626     H
H       0.7543   0.8408   0.0374     H
N       0.7646  0.39521  0.33952     N
N       0.7646  0.60479  0.16048     N
H       0.7945   0.2862   0.1183     H
H       0.7945   0.7138   0.3817     H
H       0.8451   0.1665   0.0444     H
H       0.8451   0.8335   0.4556     H
H       0.8679   0.2999   0.9238     H
H       0.8679   0.7001   0.5762     H
Ag     0.98124      0.5     0.75    Ag
