data_I
_chemical_name_common  '/Users/gianmarcoterrones/Research/MOFs/MOF_structures/water_stability_work_extra_structs/cleaned_from_CCDC/DOFRAS'
_cell_length_a  6.25970
_cell_length_b  8.53880
_cell_length_c 11.00060
_cell_angle_alpha 99.74692
_cell_angle_beta  90.00000
_cell_angle_gamma 111.50267
_space_group_name_H-M_alt      'P 1'


loop_
_space_group_symop_operation_xyz
  'x, y, z' 

loop_
_atom_site_label
_atom_site_fract_x
_atom_site_fract_y
_atom_site_fract_z
_atom_site_type_symbol
H        0.013   0.1664   0.7748     H
H       0.0134   0.5508   0.3212     H
H       0.0183    0.564   0.8959     H
H       0.0237    0.252   0.9171     H
C       0.0364   0.5126   0.8107     C
C       0.0523   0.3698   0.8538     C
C       0.0541   0.7374   0.2856     C
C      0.06299  0.20558   0.2141     C
H       0.0636   0.8212   0.6429     H
H       0.0819   0.7938   0.6547     H
H       0.0944   0.3698   0.9406     H
C       0.1028   0.6286   0.7711     C
C       0.1106    0.808   0.1275     C
H       0.1145   0.4458   0.6184     H
C       0.1158    0.249   0.8442     C
H       0.1258   0.5058   0.5551     H
H       0.1401   0.7016   0.3437     H
H       0.1756    0.179   0.6663     H
C       0.2089   0.8186   0.1945     C
C        0.213   0.4282   0.8094     C
H       0.2137     0.31   0.6256     H
C        0.219   0.5222   0.6896     C
H       0.2219   0.3622   0.3739     H
H       0.2242   0.7224   0.8284     H
C       0.2407    0.559   0.6265     C
H       0.2424   0.1788   0.3571     H
C       0.2493   0.2726    0.313     C
H       0.2756    0.746   0.7818     H
H       0.2881   0.2062   0.3453     H
C        0.295   0.4242   0.6773     C
C       0.3026    0.192   0.8725     C
N       0.3077    0.867   0.1095     N
C       0.3167   0.2626   0.7144     C
H       0.3433    0.553   0.1911     H
H        0.346   0.5032    0.869     H
H       0.3625   0.5964   0.6588     H
H       0.3801   0.4376   0.0676     H
H       0.3815    0.641   0.5989     H
C       0.3903   0.1814   0.8055     C
H       0.4046   0.4964   0.8366     H
H       0.4385   0.2984   0.6563     H
N       0.4407    0.133   0.8905     N
C       0.4467    0.498   0.1519     C
H       0.4543    0.436   0.1041     H
H        0.455   0.5702   0.2267     H
H       0.4626   0.4492   0.6788     H
C       0.4742   0.3714   0.2289     C
H       0.5018   0.2776   0.1716     H
H       0.5296    0.254   0.2182     H
Ag      0.6079      0.0      0.0    Ag
H         0.62   0.4942   0.4449     H
H       0.6687   0.5542   0.3816     H
C       0.6817    0.441   0.3735     C
C       0.6825   0.6302   0.1462     C
H       0.6877   0.7458    0.183     H
C       0.6968   0.4778   0.3104     C
H       0.7246   0.6302   0.0594     H
H       0.7405    0.359   0.4011     H
H       0.7661   0.4036   0.3412     H
N      0.76658  0.85096   0.8592     N
H       0.7717    0.748   0.0829     H
C       0.7848   0.5718   0.1906     C
H       0.8428   0.4968    0.131     H
H       0.8466   0.8336   0.2252     H
C      0.85741  0.79442   0.7859     C
H       0.8582   0.6204   0.6374     H
C       0.8668    0.751   0.1558     C
C       0.8708   0.5758   0.3227     C
H       0.8848   0.4298   0.7733     H
H       0.9037     0.69   0.3744     H
H       0.9082   0.5036   0.1634     H
N      0.91562  0.14904   0.1408     N
H       0.9419   0.2542    0.817     H
H       0.9425   0.5624   0.9324     H
C       0.9729   0.7098    0.699     C
H       0.9966    0.821   0.3337     H
