data_I
_chemical_name_common  '/Users/gianmarcoterrones/Research/MOFs/MOF_structures/water_stability_work_extra_structs/cleaned_from_CCDC/DUKXUE'
_cell_length_a  7.09450
_cell_length_b  8.63896
_cell_length_c  8.63896
_cell_angle_alpha 112.70713
_cell_angle_beta  104.97178
_cell_angle_gamma 104.97178
_space_group_name_H-M_alt      'P 1'


loop_
_space_group_symop_operation_xyz
  'x, y, z' 

loop_
_atom_site_label
_atom_site_fract_x
_atom_site_fract_y
_atom_site_fract_z
_atom_site_type_symbol
C     0.0032014 0.31627957 0.12200383     C
N     0.015156 0.41433163 0.29354237     N
H     0.0987828 0.0457626 0.4023002     H
H     0.1019521 0.26667655 0.09249365     H
H      0.10342  0.75283  0.22483     H
N     0.1555999 0.53964305 0.72231635     N
C     0.1749429 0.6982946 0.9998716     C
C     0.2269125 0.0963439 0.3907501     C
Co        0.25  0.48014  0.51986    Co
C         0.25 0.7955117 0.2044883     C
C     0.2730875 0.6092499 0.9036561     C
C     0.3250571 0.0001284 0.3017054     C
N     0.3444001 0.27768365 0.46035695     N
H      0.39658  0.77517  0.24717     H
H     0.3980479 0.90750635 0.73332345     H
H     0.4012172 0.5976998 0.9542374     H
N     0.484844 0.70645763 0.58566837     N
C     0.4967986 0.87799617 0.68372043     C
C     0.5032014 0.12200383 0.31627957     C
N     0.515156 0.29354237 0.41433163     N
H     0.5987828 0.4023002 0.0457626     H
H     0.6019521 0.09249365 0.26667655     H
H      0.60342  0.22483  0.75283     H
N     0.6555999 0.72231635 0.53964305     N
C     0.6749429 0.9998716 0.6982946     C
C     0.7269125 0.3907501 0.0963439     C
C         0.75 0.2044883 0.7955117     C
Co        0.75  0.51986  0.48014    Co
C     0.7730875 0.9036561 0.6092499     C
C     0.8250571 0.3017054 0.0001284     C
N     0.8444001 0.46035695 0.27768365     N
H      0.89658  0.24717  0.77517     H
H     0.8980479 0.73332345 0.90750635     H
H     0.9012172 0.9542374 0.5976998     H
N     0.984844 0.58566837 0.70645763     N
C     0.9967986 0.68372043 0.87799617     C
