data_I
_chemical_name_common  '/Users/gianmarcoterrones/Research/MOFs/MOF_structures/water_stability_work_extra_structs/cleaned_from_CCDC/DUKXEO'
_cell_length_a  9.25232
_cell_length_b  9.25232
_cell_length_c 13.44870
_cell_angle_alpha 90.00000
_cell_angle_beta  90.00000
_cell_angle_gamma 90.00000
_space_group_name_H-M_alt      'P 1'


loop_
_space_group_symop_operation_xyz
  'x, y, z' 

loop_
_atom_site_label
_atom_site_fract_x
_atom_site_fract_y
_atom_site_fract_z
_atom_site_type_symbol
Co         0.0  0.08576      0.5    Co
Co         0.0  0.91424      0.0    Co
N     0.0103993 0.1854876 0.718198     N
N     0.0103993 0.8145124 0.781802     N
H     0.0308644 0.2067787 0.9176338     H
H     0.0308644 0.7932213 0.5823662     H
C     0.0444434 0.3122323 0.8810367     C
C     0.0444434 0.6877677 0.6189633     C
H     0.054036 0.3771175 0.1086135     H
H     0.054036 0.6228825 0.3913865     H
N     0.0613605 0.201909  0.62402     N
N     0.0613605 0.798091  0.87598     N
C     0.0700114 0.2906834 0.7757019     C
C     0.0700114 0.7093166 0.7242981     C
Co     0.08576      0.0     0.25    Co
H     0.137078 0.3691714 0.9141123     H
H     0.137078 0.6308286 0.5858877     H
C     0.1524684 0.3172538 0.6233185     C
C     0.1524684 0.6827462 0.8766815     C
H     0.1551864 0.4310877 0.4889109     H
H     0.1551864 0.5689123 0.0110891     H
C     0.1578149 0.3721194 0.7170631     C
C     0.1578149 0.6278806 0.7829369     C
N     0.1854876 0.0103993 0.031802     N
N     0.1854876 0.9896007 0.468198     N
N     0.201909 0.0613605  0.12598     N
N     0.201909 0.9386395  0.37402     N
H     0.2067787 0.0308644 0.8323662     H
H     0.2067787 0.9691356 0.6676338     H
C     0.2302491 0.372105 0.53766131     C
C     0.2302491 0.627895 0.96233869     C
C      0.24521      0.5     0.75     C
H     0.2782222 0.2813464 0.49640536     H
H     0.2782222 0.7186536 0.00359464     H
H     0.2813464 0.2782222 0.25359464     H
H     0.2813464 0.7217778 0.24640536     H
C     0.2906834 0.0700114 0.9742981     C
C     0.2906834 0.9299886 0.5257019     C
H     0.305458 0.4561757 0.8137416     H
H     0.305458 0.5438243 0.6862584     H
C     0.3122323 0.0444434 0.8689633     C
C     0.3122323 0.9555566 0.6310367     C
H     0.3164284 0.4455512 0.56259402     H
H     0.3164284 0.5544488 0.93740598     H
C     0.3172538 0.1524684 0.1266815     C
C     0.3172538 0.8475316 0.3733185     C
H     0.3691714 0.137078 0.8358877     H
H     0.3691714 0.862922 0.6641123     H
C     0.372105 0.2302491 0.21233869     C
C     0.372105 0.7697509 0.28766131     C
C     0.3721194 0.1578149 0.0329369     C
C     0.3721194 0.8421851 0.4670631     C
H     0.3771175 0.054036 0.6413865     H
H     0.3771175 0.945964 0.8586135     H
H     0.4310877 0.1551864 0.2610891     H
H     0.4310877 0.8448136 0.2389109     H
H     0.4455512 0.3164284 0.18740598     H
H     0.4455512 0.6835716 0.31259402     H
H     0.4561757 0.305458 0.9362584     H
H     0.4561757 0.694542 0.5637416     H
C          0.5  0.24521      0.0     C
C          0.5  0.75479      0.5     C
H     0.5438243 0.305458 0.0637416     H
H     0.5438243 0.694542 0.4362584     H
H     0.5544488 0.3164284 0.81259402     H
H     0.5544488 0.6835716 0.68740598     H
H     0.5689123 0.1551864 0.7389109     H
H     0.5689123 0.8448136 0.7610891     H
H     0.6228825 0.054036 0.3586135     H
H     0.6228825 0.945964 0.1413865     H
C     0.6278806 0.1578149 0.9670631     C
C     0.6278806 0.8421851 0.5329369     C
C     0.627895 0.2302491 0.78766131     C
C     0.627895 0.7697509 0.71233869     C
H     0.6308286 0.137078 0.1641123     H
H     0.6308286 0.862922 0.3358877     H
C     0.6827462 0.1524684 0.8733185     C
C     0.6827462 0.8475316 0.6266815     C
H     0.6835716 0.4455512 0.43740598     H
H     0.6835716 0.5544488 0.06259402     H
C     0.6877677 0.0444434 0.1310367     C
C     0.6877677 0.9555566 0.3689633     C
H     0.694542 0.4561757 0.1862584     H
H     0.694542 0.5438243 0.3137416     H
C     0.7093166 0.0700114 0.0257019     C
C     0.7093166 0.9299886 0.4742981     C
H     0.7186536 0.2782222 0.74640536     H
H     0.7186536 0.7217778 0.75359464     H
H     0.7217778 0.2813464 0.50359464     H
H     0.7217778 0.7186536 0.99640536     H
C      0.75479      0.5     0.25     C
C     0.7697509 0.372105 0.46233869     C
C     0.7697509 0.627895 0.03766131     C
H     0.7932213 0.0308644 0.1676338     H
H     0.7932213 0.9691356 0.3323662     H
N     0.798091 0.0613605  0.87402     N
N     0.798091 0.9386395  0.62598     N
N     0.8145124 0.0103993 0.968198     N
N     0.8145124 0.9896007 0.531802     N
C     0.8421851 0.3721194 0.2829369     C
C     0.8421851 0.6278806 0.2170631     C
H     0.8448136 0.4310877 0.5110891     H
H     0.8448136 0.5689123 0.9889109     H
C     0.8475316 0.3172538 0.3766815     C
C     0.8475316 0.6827462 0.1233185     C
H     0.862922 0.3691714 0.0858877     H
H     0.862922 0.6308286 0.4141123     H
Co     0.91424      0.0     0.75    Co
C     0.9299886 0.2906834 0.2242981     C
C     0.9299886 0.7093166 0.2757019     C
N     0.9386395 0.201909  0.37598     N
N     0.9386395 0.798091  0.12402     N
H     0.945964 0.3771175 0.8913865     H
H     0.945964 0.6228825 0.6086135     H
C     0.9555566 0.3122323 0.1189633     C
C     0.9555566 0.6877677 0.3810367     C
H     0.9691356 0.2067787 0.0823662     H
H     0.9691356 0.7932213 0.4176338     H
N     0.9896007 0.1854876 0.281802     N
N     0.9896007 0.8145124 0.218198     N
