data_I
_chemical_name_common  '/Users/gianmarcoterrones/Research/MOFs/MOF_structures/water_stability_work_extra_structs/cleaned_from_CCDC/DUKYAL'
_cell_length_a  7.28369
_cell_length_b  7.54297
_cell_length_c  7.54297
_cell_angle_alpha 107.74604
_cell_angle_beta  90.00000
_cell_angle_gamma 90.00000
_space_group_name_H-M_alt      'P 1'


loop_
_space_group_symop_operation_xyz
  'x, y, z' 

loop_
_atom_site_label
_atom_site_fract_x
_atom_site_fract_y
_atom_site_fract_z
_atom_site_type_symbol
Cu         0.0      0.5      0.5    Cu
H     0.02510326 0.3203815 0.0554185     H
H     0.02510326 0.9445815 0.6796185     H
C     0.09894152 0.0961368  0.33607     C
C     0.09894152  0.66393 0.9038632     C
H      0.10798  0.73951  0.26049     H
N     0.1566407 0.27554002 0.40519278     N
N     0.1566407 0.59480722 0.72445998     N
C         0.25 0.7066502 0.0147404     C
C         0.25 0.7841401 0.2158599     C
C         0.25 0.9852596 0.2933498     C
N     0.3433593 0.27554002 0.40519278     N
N     0.3433593 0.59480722 0.72445998     N
H      0.39202  0.73951  0.26049     H
C     0.40105848 0.0961368  0.33607     C
C     0.40105848  0.66393 0.9038632     C
H     0.47489674 0.3203815 0.0554185     H
H     0.47489674 0.9445815 0.6796185     H
Cu         0.5      0.5      0.5    Cu
H     0.52510326 0.0554185 0.3203815     H
H     0.52510326 0.6796185 0.9445815     H
C     0.59894152  0.33607 0.0961368     C
C     0.59894152 0.9038632  0.66393     C
H      0.60798  0.26049  0.73951     H
N     0.6566407 0.40519278 0.27554002     N
N     0.6566407 0.72445998 0.59480722     N
C         0.75 0.0147404 0.7066502     C
C         0.75 0.2158599 0.7841401     C
C         0.75 0.2933498 0.9852596     C
N     0.8433593 0.40519278 0.27554002     N
N     0.8433593 0.72445998 0.59480722     N
H      0.89202  0.26049  0.73951     H
C     0.90105848  0.33607 0.0961368     C
C     0.90105848 0.9038632  0.66393     C
H     0.97489674 0.0554185 0.3203815     H
H     0.97489674 0.6796185 0.9445815     H
