data_I
_chemical_name_common  '/Users/gianmarcoterrones/Research/MOFs/MOF_structures/water_stability_work_extra_structs/cleaned_from_CCDC/DUKYEP'
_cell_length_a  7.11071
_cell_length_b  8.71103
_cell_length_c  8.71103
_cell_angle_alpha 113.35714
_cell_angle_beta  105.07509
_cell_angle_gamma 105.07509
_space_group_name_H-M_alt      'P 1'


loop_
_space_group_symop_operation_xyz
  'x, y, z' 

loop_
_atom_site_label
_atom_site_fract_x
_atom_site_fract_y
_atom_site_fract_z
_atom_site_type_symbol
C     0.00394271 0.68964174 0.88867386     C
N     0.0063798 0.40288797 0.28308863     N
H     0.09332247 0.26018643 0.08044677     H
H     0.0993569 0.0402539 0.4048467     H
H      0.10342  0.73933  0.24133     H
N     0.1612528 0.54802006 0.73055134     N
C     0.1779549 0.6977362 0.0084688     C
C     0.2248221 0.0892563 0.3897909     C
Zn        0.25  0.47975  0.52025    Zn
C         0.25  0.78745  0.21255     C
C     0.2751779 0.6102091 0.9107437     C
C     0.3220451 0.9915312 0.3022638     C
N     0.3387472 0.26944866 0.45197994     N
H      0.39658  0.75867  0.26067     H
H     0.4006431 0.5951533 0.9597461     H
H     0.40667753 0.91955323 0.73981357     H
N     0.4936202 0.71691137 0.59711203     N
C     0.49605729 0.11132614 0.31035826     C
C     0.50394271 0.88867386 0.68964174     C
N     0.5063798 0.28308863 0.40288797     N
H     0.59332247 0.08044677 0.26018643     H
H     0.5993569 0.4048467 0.0402539     H
H      0.60342  0.24133  0.73933     H
N     0.6612528 0.73055134 0.54802006     N
C     0.6779549 0.0084688 0.6977362     C
C     0.7248221 0.3897909 0.0892563     C
C         0.75  0.21255  0.78745     C
Zn        0.75  0.52025  0.47975    Zn
C     0.7751779 0.9107437 0.6102091     C
C     0.8220451 0.3022638 0.9915312     C
N     0.8387472 0.45197994 0.26944866     N
H      0.89658  0.26067  0.75867     H
H     0.9006431 0.9597461 0.5951533     H
H     0.90667753 0.73981357 0.91955323     H
N     0.9936202 0.59711203 0.71691137     N
C     0.99605729 0.31035826 0.11132614     C
