data_I
_chemical_name_common  '/Users/gianmarcoterrones/Downloads/dut-69-zr'
_cell_length_a 13.57030
_cell_length_b 19.80040
_cell_length_c 28.39060
_cell_angle_alpha 90.00000
_cell_angle_beta  90.00000
_cell_angle_gamma 90.00000
_space_group_name_H-M_alt      'P 1'


loop_
_space_group_symop_operation_xyz
  'x, y, z' 

loop_
_atom_site_label
_atom_site_fract_x
_atom_site_fract_y
_atom_site_fract_z
_atom_site_type_symbol
O     0.010413  0.44508  0.19937     O
C     0.012117  0.37621  0.55399     C
C     0.012718  0.38201  0.19521     C
O     0.014214  0.04751  0.79851     O
C       0.0163 0.834316 0.751313     C
O     0.016713  0.44027  0.54477     O
C       0.0212 0.840811  0.49379     C
S      0.02167  0.75544  0.49344     S
S      0.02867  0.75094  0.75864     S
H       0.0401   0.5346   0.4181     H
H       0.0418    0.515   0.3334     H
S      0.04407  0.75614  0.26904     S
C       0.0472 0.381211  0.03859     C
C     0.048218 0.375411  0.71641     C
O     0.049314  0.44487  0.02857     O
C       0.0522 0.842013  0.27521     C
C       0.0552 0.839413  0.97761     C
S      0.06305  0.75214  0.97694     S
O     0.064711  0.34397  0.58307     O
O     0.066014  0.43378  0.72817     O
O     0.067413  0.34939  0.16537     O
C       0.0752 0.862213 0.720911     C
O      0.07831  0.46557  0.63385     O
H       0.0789   0.9084   0.7154     H
O     0.084811  0.35018  0.07057     O
O     0.088813  0.34298  0.68177     O
C       0.0913 0.867513 0.525314     C
C       0.0943   0.5212 0.400411     C
H        0.096   0.9132   0.5325     H
C       0.0992   0.5152 0.351311     C
O     0.102314  0.63507  0.54497     O
Zr     0.10934  0.52472  0.57092    Zr
C       0.1102 0.754811  0.53459     C
O     0.111511  0.63757  0.21147     O
Zr     0.11254  0.53002 0.1786914    Zr
C       0.1133 0.867614 0.240613     C
C       0.1172 0.867913 0.009914     C
C       0.1182 0.747711 0.714013     C
O      0.12019  0.47365  0.12037     O
H       0.1223   0.9135   0.2354     H
H        0.123    0.914   0.0156     H
O     0.130713  0.63097  0.71957     O
C       0.1332 0.754913 0.225011     C
C       0.1352 0.811113 0.696211     C
O     0.135716  0.51659  0.49318     O
O      0.13679  0.59797  0.11897     O
O     0.140914  0.52247  0.25707     O
Zr     0.14254 0.5226118 0.6961512    Zr
Zr     0.14634  0.52784  0.05592    Zr
C     0.146714  0.68519  0.55507     C
C       0.1482 0.753611  0.02261     C
C       0.1503 0.817413 0.544714     C
O     0.153111  0.63577  0.02637     O
C       0.1593 0.814916 0.213515     C
C     0.161615  0.69181  0.19837     C
O     0.165211  0.57357  0.63007     O
C     0.167515 0.684511  0.70067     C
C       0.1732 0.816911 0.033811     C
H       0.1791   0.8206   0.6719     H
C     0.183413  0.68581  0.04217     C
C       0.1883 0.502515 0.418011     C
C       0.1912 0.508313 0.329611     C
Zr    0.1937311 0.378076 0.626608    Zr
Zr    0.1961011 0.383106 0.123608    Zr
O     0.198315  0.51258  0.76737     O
O     0.203711  0.43627  0.19367     O
H       0.2049   0.8237   0.1898     H
O     0.205413  0.51878  0.98207     O
H       0.2078   0.8248   0.5617     H
C       0.2082 0.499413  0.46839     C
C       0.2152  0.50557  0.27989     C
O     0.217011  0.44667  0.57367     O
O     0.220913  0.69098  0.58087     O
H       0.2224   0.8269   0.0553     H
O     0.226413  0.69877  0.17137     O
S      0.22715  0.50864  0.87544     S
O     0.233611  0.43457  0.05577     O
O     0.234313  0.69278  0.67197     O
O     0.235613  0.44427  0.67807     O
O     0.248113  0.69248  0.07477     O
O     0.251913  0.30768  0.57477     O
O     0.264413  0.55587  0.17807     O
O     0.265713  0.30738  0.17197     O
O     0.266411  0.56557  0.55577     O
S      0.27295  0.49144  0.37544     S
O     0.273613  0.30137  0.67137     O
H       0.2776   0.1731   0.5553     H
O     0.279113  0.30918  0.08087     O
O     0.283011  0.55347  0.07367     O
C       0.2852  0.49457  0.77989     C
H       0.2922   0.1752   0.0617     H
C       0.2922 0.500613  0.96839     C
O     0.294613  0.48138  0.48207     O
H       0.2951   0.1763   0.6898     H
O     0.296311  0.56387  0.69367     O
O     0.301715  0.48758  0.26737     O
Zr    0.3039011 0.616906 0.623608    Zr
Zr    0.3062711 0.621936 0.126608    Zr
C       0.3092 0.491713 0.829611     C
C       0.3123 0.497515 0.918011     C
C     0.316613  0.31421  0.54217     C
H       0.3209   0.1794   0.1719     H
C       0.3272 0.183111 0.533811     C
C     0.332515 0.315511  0.20067     C
O     0.334811  0.42657  0.13007     O
C     0.338415  0.30821  0.69837     C
C       0.3413 0.185116 0.713515     C
O     0.346911  0.36437  0.52637     O
C       0.3503 0.182613 0.044714     C
C       0.3522 0.246411  0.52261     C
C     0.353314  0.31499  0.05507     C
Zr     0.35374  0.47224  0.55592    Zr
Zr     0.35754 0.4773918 0.1961512    Zr
O     0.359114  0.47767  0.75707     O
O      0.36339  0.40217  0.61897     O
O     0.364316  0.48359  0.99318     O
C       0.3652 0.188913 0.196211     C
C       0.3672 0.245113 0.725011     C
O     0.369313  0.36917  0.21957     O
H        0.377    0.086   0.5156     H
H       0.3777   0.0865   0.7354     H
O      0.37999  0.52645  0.62037     O
C       0.3822 0.252311 0.214013     C
C       0.3832 0.132113 0.509914     C
C       0.3873 0.132414 0.740613     C
Zr     0.38754  0.47002 0.6786914    Zr
O     0.388511  0.36257  0.71147     O
C       0.3902 0.245211  0.03459     C
Zr     0.39074  0.47532  0.07092    Zr
O     0.397714  0.36507  0.04497     O
C       0.4012   0.4852 0.851311     C
H        0.404   0.0868   0.0325     H
C       0.4063   0.4792 0.900411     C
C       0.4093 0.132513 0.025314     C
O     0.411213  0.65718  0.18177     O
O     0.415211  0.64998  0.57057     O
H       0.4211   0.0916   0.2154     H
O      0.42171  0.53457  0.13385     O
C       0.4252 0.137813 0.220911     C
O     0.432613  0.65079  0.66537     O
O     0.434014  0.56638  0.22817     O
O     0.435311  0.65617  0.08307     O
S      0.43705  0.24794  0.47694     S
C       0.4452 0.160613  0.47761     C
C       0.4482 0.158013  0.77521     C
O     0.450714  0.55527  0.52857     O
C     0.451818 0.624611  0.21641     C
C       0.4532 0.618811  0.53859     C
S      0.45607  0.24394  0.76904     S
H       0.4582    0.485   0.8334     H
H       0.4599   0.4654   0.9181     H
S      0.47147  0.24914  0.25864     S
S      0.47847  0.24464  0.99344     S
C       0.4792 0.159211  0.99379     C
O     0.483313  0.55987  0.04477     O
C       0.4843 0.165716 0.251313     C
O     0.485814  0.95251  0.29851     O
C     0.487318  0.61801  0.69521     C
C     0.487917  0.62381  0.05399     C
O     0.489613  0.55508  0.69937     O
O     0.510413  0.05508  0.80077     O
C     0.512117  0.12381  0.44619     C
C     0.512718  0.11801  0.80481     C
O     0.514214  0.45251  0.20151     O
C       0.5163 0.665716 0.248713     C
O     0.516713  0.05987  0.45537     O
C       0.5212 0.659211  0.50639     C
S      0.52167  0.74464  0.50664     S
S      0.52867  0.74914  0.24144     S
H       0.5401   0.9654   0.5819     H
H       0.5418    0.985   0.6666     H
S      0.54407  0.74394  0.73104     S
C       0.5472 0.118811  0.96159     C
C     0.548218 0.124611  0.28361     C
O     0.549314  0.05527  0.97157     O
C       0.5522 0.658013  0.72481     C
C       0.5552 0.660613  0.02241     C
S      0.56305  0.74794  0.02314     S
O     0.564711  0.15617  0.41707     O
O     0.566014  0.06638  0.27197     O
O     0.567413  0.15079  0.83477     O
C       0.5752 0.637813 0.279111     C
O      0.57831  0.03457  0.36625     O
H       0.5789   0.5916   0.2846     H
O     0.584811  0.14998  0.92957     O
O     0.588813  0.15718  0.31837     O
C       0.5913 0.632513 0.474714     C
C       0.5943   0.9792 0.599611     C
H        0.596   0.5868   0.4675     H
C       0.5992   0.9852 0.648711     C
O     0.602314  0.86507  0.45517     O
Zr     0.60934  0.97532  0.42912    Zr
C       0.6102 0.745211  0.46559     C
O     0.611511  0.86257  0.78867     O
Zr     0.61254  0.97002 0.8213114    Zr
C       0.6133 0.632414 0.759413     C
C       0.6172 0.632113 0.990114     C
C       0.6182 0.752311 0.286013     C
O      0.62019  0.02645  0.87977     O
H       0.6223   0.5865   0.7646     H
H        0.623    0.586   0.9844     H
O     0.630713  0.86917  0.28057     O
C       0.6332 0.745113 0.775011     C
C       0.6352 0.688913 0.303811     C
O     0.635716  0.98359  0.50698     O
O      0.63679  0.90217  0.88117     O
O     0.640914  0.97767  0.74307     O
Zr     0.64254 0.9773918 0.3038512    Zr
Zr     0.64634  0.97224  0.94412    Zr
C     0.646714  0.81499  0.44507     C
C       0.6482 0.746411  0.97741     C
C       0.6503 0.682613 0.455314     C
O     0.653111  0.86437  0.97377     O
C       0.6593 0.685116 0.786515     C
C     0.661615  0.80821  0.80177     C
O     0.665211  0.92657  0.37007     O
C     0.667515 0.815511  0.29947     C
C       0.6732 0.683111 0.966211     C
H       0.6791   0.6794   0.3281     H
C     0.683413  0.81421  0.95797     C
C       0.6883 0.997515 0.582011     C
C       0.6912 0.991713 0.670411     C
Zr    0.6937311 0.121936 0.373408    Zr
Zr    0.6961011 0.116906 0.876408    Zr
O     0.698315  0.98758  0.23277     O
O     0.703711  0.06387  0.80647     O
H       0.7049   0.6763   0.8102     H
O     0.705413  0.98138  0.01807     O
H       0.7078   0.6752   0.4383     H
C       0.7082 0.000613  0.53179     C
C       0.7152  0.99457  0.72029     C
O     0.717011  0.05347  0.42647     O
O     0.720913  0.80918  0.41927     O
H       0.7224   0.6731   0.9447     H
O     0.726413  0.80137  0.82877     O
S      0.72715  0.99144  0.12464     S
O     0.733611  0.06557  0.94437     O
O     0.734313  0.80738  0.32817     O
O     0.735613  0.05587  0.32207     O
O     0.748113  0.80768  0.92537     O
O     0.751913  0.19248  0.42537     O
O     0.764413  0.94427  0.82207     O
O     0.765713  0.19278  0.82817     O
O     0.766411  0.93457  0.44437     O
S      0.77295  0.00864  0.62464     S
O     0.773613  0.19877  0.32877     O
H       0.7776   0.3269   0.4447     H
O     0.779113  0.19098  0.91927     O
O     0.783011  0.94667  0.92647     O
C       0.7852  0.00557  0.22029     C
H       0.7922   0.3248   0.9383     H
C       0.7922 0.999413  0.03179     C
O     0.794613  0.01878  0.51807     O
H       0.7951   0.3237   0.3102     H
O     0.796311  0.93627  0.30647     O
O     0.801715  0.01258  0.73277     O
Zr    0.8039011 0.883106 0.376408    Zr
Zr    0.8062711 0.878076 0.873408    Zr
C       0.8092 0.008313 0.170411     C
C       0.8123 0.002515 0.082011     C
C     0.816613  0.18581  0.45797     C
H       0.8209   0.3206   0.8281     H
C       0.8272 0.316911 0.466211     C
C     0.832515 0.184511  0.79947     C
O     0.834811  0.07357  0.87007     O
C     0.838415  0.19181  0.30177     C
C       0.8413 0.314916 0.286515     C
O     0.846911  0.13577  0.47377     O
C       0.8503 0.317413 0.955314     C
C       0.8522 0.253611  0.47741     C
C     0.853314  0.18519  0.94507     C
Zr     0.85374  0.02784  0.44412    Zr
Zr     0.85754 0.0226118 0.8038512    Zr
O     0.859114  0.02247  0.24307     O
O      0.86339  0.09797  0.38117     O
O     0.864316  0.01659  0.00698     O
C       0.8652 0.311113 0.803811     C
C       0.8672 0.254913 0.275011     C
O     0.869313  0.13097  0.78057     O
H        0.877    0.414   0.4844     H
H       0.8777   0.4135   0.2646     H
O      0.87999  0.97365  0.37977     O
C       0.8822 0.247711 0.786013     C
C       0.8832 0.367913 0.490114     C
C       0.8873 0.367614 0.259413     C
Zr     0.88754  0.03002 0.3213114    Zr
O     0.888511  0.13757  0.28867     O
C       0.8902 0.254811  0.96559     C
Zr     0.89074  0.02472  0.92912    Zr
O     0.897714  0.13507  0.95517     O
C       0.9012   0.0152 0.148711     C
H        0.904   0.4132   0.9675     H
C       0.9063   0.0212 0.099611     C
C       0.9093 0.367513 0.974714     C
O     0.911213  0.84298  0.81837     O
O     0.915211  0.85018  0.42957     O
H       0.9211   0.4084   0.7846     H
O      0.92171  0.96557  0.86625     O
C       0.9252 0.362213 0.779111     C
O     0.932613  0.84939  0.33477     O
O     0.934014  0.93378  0.77197     O
O     0.935311  0.84397  0.91707     O
S      0.93705  0.25214  0.52314     S
C       0.9452 0.339413  0.52241     C
C       0.9482 0.342013  0.22481     C
O     0.950714  0.94487  0.47157     O
C     0.951818 0.875411  0.78361     C
C       0.9532 0.881211  0.46159     C
S      0.95607  0.25614  0.23104     S
H       0.9582    0.015   0.1666     H
H       0.9599   0.0346   0.0819     H
S      0.97147  0.25094  0.74144     S
S      0.97847  0.25544  0.00664     S
C       0.9792 0.340811  0.00639     C
O     0.983313  0.94027  0.95537     O
C       0.9843 0.334316 0.748713     C
O     0.985814  0.54751  0.70151     O
C     0.987318  0.88201  0.30481     C
C     0.987917  0.87621  0.94619     C
O     0.989613  0.94508  0.30077     O
