data_I
_chemical_name_common  '/Users/gianmarcoterrones/Research/MOFs/MOF_structures/water_stability_work_extra_structs/cleaned_from_CCDC/EGIKUB01'
_cell_length_a  9.64680
_cell_length_b  9.64680
_cell_length_c 32.23800
_cell_angle_alpha 90.00000
_cell_angle_beta  90.00000
_cell_angle_gamma 90.00000
_space_group_name_H-M_alt      'P 1'


loop_
_space_group_symop_operation_xyz
  'x, y, z' 

loop_
_atom_site_label
_atom_site_fract_x
_atom_site_fract_y
_atom_site_fract_z
_atom_site_type_symbol
O       0.0011   0.9369   0.5487     O
O       0.0012   0.4123   0.7011     O
O       0.0032   0.2134   0.7327     O
O       0.0137   0.0919   0.1999     O
Zn     0.01549  0.54797  0.49961    Zn
Zn     0.01592  0.98408     0.25    Zn
O        0.016   0.2549   0.0132     O
H       0.0169    0.815   0.3655     H
H       0.0172   0.3143   0.3746     H
C       0.0226   0.2878   0.7017     C
H        0.024   0.8575   0.6254     H
H       0.0253   0.6419   0.1248     H
C       0.0269   0.1856   0.0463     C
O       0.0294   0.4381   0.5495     O
O       0.0372   0.2422   0.5149     O
C       0.0409    0.288   0.6248     C
C       0.0426   0.2119   0.1232     C
Zn     0.04356  0.04356      0.5    Zn
Zn     0.04797  0.48451  0.24961    Zn
C       0.0491   0.2145   0.2004     C
C       0.0494   0.3125   0.5479     C
O       0.0538   0.2859   0.2324     O
O       0.0619   0.5294   0.7995     O
O       0.0631   0.9989   0.9513     O
C       0.0829   0.7451   0.3675     C
C       0.0835   0.2288   0.6624     C
C       0.0839   0.2447   0.3748     C
H       0.0842   0.7308   0.4299     H
C       0.0865   0.2565   0.0844     C
O       0.0877   0.5012   0.9511     O
H       0.0879    0.212   0.3131     H
O       0.0919   0.0137   0.8001     O
C       0.0979    0.242   0.5871     C
C       0.0989   0.2715    0.159     C
H       0.1118   0.7139   0.3054     H
H       0.1121   0.2383   0.4373     H
C       0.1257   0.6966   0.4059     C
C       0.1278    0.184    0.338     C
C       0.1418   0.1993   0.4124     C
H       0.1419   0.4747   0.8748     H
C       0.1422   0.6854   0.3314     C
H       0.1425    0.976   0.8746     H
C        0.184   0.1278    0.662     C
H        0.185   0.9831   0.1345     H
C       0.1854   0.3578   0.0814     C
C       0.1856   0.0269   0.9537     C
H       0.1857   0.5172   0.6246     H
C       0.1875   0.5494   0.7979     C
C       0.1966   0.3743   0.1559     C
C       0.1993   0.1418   0.5876     C
C       0.2119   0.0426   0.8768     C
H        0.212   0.0879   0.6869     H
C        0.212   0.5409   0.8748     C
C       0.2122   0.5226   0.9517     C
O       0.2134   0.0032   0.2673     O
H       0.2139   0.3882   0.0554     H
O       0.2141   0.5538   0.4824     O
C       0.2145   0.0491   0.7996     C
C       0.2285   0.5989    0.409     C
C       0.2288   0.0835   0.3376     C
H       0.2308   0.4158   0.1799     H
H       0.2383   0.1121   0.5627     H
C        0.242   0.0979   0.4129     C
O       0.2422   0.0372   0.4851     O
C       0.2435   0.5865   0.3344     C
C       0.2447   0.0839   0.6252     C
C       0.2451   0.4171   0.1175     C
O       0.2451    0.516   0.2632     O
O       0.2549    0.016   0.9868     O
C       0.2549   0.9171   0.1325     C
C       0.2553   0.5839   0.6248     C
C       0.2565   0.0865   0.9156     C
O       0.2578   0.5372   0.7649     O
C        0.258   0.5979   0.8371     C
H       0.2617   0.6121   0.6873     H
H       0.2692   0.9158   0.0701     H
C       0.2712   0.5835   0.9124     C
C       0.2715   0.0989    0.841     C
C       0.2855   0.5491   0.4504     C
O       0.2859   0.0538   0.7676     O
H       0.2861   0.8882   0.1946     H
O       0.2866   0.5032   0.9827     O
C       0.2878   0.0226   0.2983     C
C        0.288   0.0409   0.3752     C
H        0.288   0.5879   0.5631     H
C       0.2881   0.5426   0.3732     C
C       0.3007   0.6418   0.6624     C
C       0.3034   0.8743   0.0941     C
C       0.3125   0.0494   0.4521     C
H       0.3143   0.0172   0.6254     H
C       0.3144   0.5269   0.2963     C
C       0.3146   0.8578   0.1686     C
H        0.315   0.4831   0.1155     H
C        0.316   0.6278    0.588     C
H       0.3575    0.476   0.3754     H
C       0.3578   0.1854   0.9186     C
H       0.3581   0.9747   0.3752     H
C       0.3582   0.6993   0.8376     C
C       0.3722    0.684    0.912     C
C       0.3743   0.1966   0.8441     C
H       0.3879   0.7383   0.8127     H
H       0.3882   0.2139   0.9446     H
C       0.4011   0.7715    0.091     C
C       0.4021    0.742   0.6629     C
O       0.4081   0.5137   0.4499     O
H       0.4121    0.712   0.9369     H
O       0.4123   0.0012   0.2989     O
C       0.4135   0.7565   0.1656     C
H       0.4158   0.2308   0.8201     H
C       0.4161   0.7447   0.8752     C
C       0.4165   0.7288   0.5876     C
C       0.4171   0.2451   0.8825     C
O       0.4369   0.4989   0.2987     O
O       0.4381   0.0294   0.4505     O
O       0.4462   0.7859   0.0176     O
C       0.4506   0.8125   0.7021     C
C       0.4509   0.7145   0.0496     C
Zn     0.45203  0.98451  0.00039    Zn
Zn     0.45644  0.54356     0.75    Zn
C       0.4574   0.7119   0.1268     C
C       0.4591    0.788   0.6252     C
O       0.4628   0.7422   0.7351     O
O       0.4706   0.9381   0.7005     O
C       0.4731   0.6856   0.2037     C
H       0.4747   0.1419   0.1252     H
H        0.476   0.3575   0.6246     H
C       0.4774   0.7878   0.5483     C
H       0.4828   0.8143   0.8754     H
H       0.4831    0.315   0.8845     H
O        0.484   0.7549   0.2368     O
Zn     0.48408  0.48408      0.0    Zn
Zn     0.48451  0.04797  0.75039    Zn
O       0.4863   0.5919   0.0501     O
O       0.4968   0.7134   0.5173     O
O       0.4988   0.9123   0.5489     O
O       0.4989   0.4369   0.7013     O
O       0.5011   0.5631   0.2013     O
O       0.5012   0.0877   0.0489     O
O       0.5032   0.2866   0.0173     O
O       0.5137   0.4081   0.5501     O
Zn     0.51549  0.95203  0.25039    Zn
Zn     0.51592  0.51592      0.5    Zn
O        0.516   0.2451   0.7368     O
H       0.5169    0.685   0.3845     H
H       0.5172   0.1857   0.3754     H
C       0.5226   0.2122   0.0483     C
H        0.524   0.6425   0.1246     H
H       0.5253   0.8581   0.6252     H
C       0.5269   0.3144   0.7037     C
O       0.5294   0.0619   0.2005     O
O       0.5372   0.2578   0.2351     O
C       0.5409    0.212   0.1252     C
C       0.5426   0.2881   0.6268     C
Zn     0.54356  0.45644     0.25    Zn
Zn     0.54797  0.01549  0.50039    Zn
C       0.5491   0.2855   0.5496     C
C       0.5494   0.1875   0.2021     C
O       0.5538   0.2141   0.5176     O
O       0.5619   0.9706   0.9505     O
O       0.5631   0.5011   0.7987     O
C       0.5829   0.7549   0.3825     C
C       0.5835   0.2712   0.0876     C
C       0.5839   0.2553   0.3752     C
H       0.5842   0.7692   0.3201     H
C       0.5865   0.2435   0.6656     C
O       0.5877   0.9988   0.7989     O
H       0.5879    0.288   0.4369     H
O       0.5919   0.4863   0.9499     O
C       0.5979    0.258   0.1629     C
C       0.5989   0.2285    0.591     C
H       0.6118   0.7861   0.4446     H
H       0.6121   0.2617   0.3127     H
C       0.6257   0.8034   0.3441     C
C       0.6278    0.316    0.412     C
C       0.6418   0.3007   0.3376     C
H       0.6419   0.0253   0.8752     H
C       0.6422   0.8146   0.4186     C
H       0.6425    0.524   0.8754     H
C        0.684   0.3722    0.088     C
H        0.685   0.5169   0.6155     H
C       0.6854   0.1422   0.6686     C
C       0.6856   0.4731   0.7963     C
H       0.6857   0.9828   0.1254     H
C       0.6875   0.9506   0.9521     C
C       0.6966   0.1257   0.5941     C
C       0.6993   0.3582   0.1624     C
C       0.7119   0.4574   0.8732     C
H        0.712   0.4121   0.0631     H
C        0.712   0.9591   0.8752     C
C       0.7122   0.9774   0.7983     C
O       0.7134   0.4968   0.4827     O
H       0.7139   0.1118   0.6946     H
O       0.7141   0.9462   0.2676     O
C       0.7145   0.4509   0.9504     C
C       0.7285   0.9011    0.341     C
C       0.7288   0.4165   0.4124     C
H       0.7308   0.0842   0.5701     H
H       0.7383   0.3879   0.1873     H
C        0.742   0.4021   0.3371     C
O       0.7422   0.4628   0.2649     O
C       0.7435   0.9135   0.4156     C
C       0.7447   0.4161   0.1248     C
C       0.7451   0.0829   0.6325     C
O       0.7451    0.984   0.4868     O
O       0.7549    0.484   0.7632     O
C       0.7549   0.5829   0.6175     C
C       0.7553   0.9161   0.1252     C
C       0.7565   0.4135   0.8344     C
O       0.7578   0.9628   0.9851     O
C        0.758   0.9021   0.9129     C
H       0.7617   0.8879   0.0627     H
H       0.7692   0.5842   0.6799     H
C       0.7712   0.9165   0.8376     C
C       0.7715   0.4011    0.909     C
C       0.7855   0.9509   0.2996     C
O       0.7859   0.4462   0.9824     O
H       0.7861   0.6118   0.5554     H
O       0.7866   0.9968   0.7673     O
C       0.7878   0.4774   0.4517     C
C        0.788   0.4591   0.3748     C
H        0.788   0.9121   0.1869     H
C       0.7881   0.9574   0.3768     C
C       0.8007   0.8582   0.0876     C
C       0.8034   0.6257   0.6559     C
C       0.8125   0.4506   0.2979     C
H       0.8143   0.4828   0.1246     H
C       0.8144   0.9731   0.4537     C
C       0.8146   0.6422   0.5814     C
H        0.815   0.0169   0.6345     H
C        0.816   0.8722    0.162     C
H       0.8575    0.024   0.3746     H
C       0.8578   0.3146   0.8314     C
H       0.8581   0.5253   0.3748     H
C       0.8582   0.8007   0.9124     C
C       0.8722    0.816    0.838     C
C       0.8743   0.3034   0.9059     C
H       0.8879   0.7617   0.9373     H
H       0.8882   0.2861   0.8054     H
C       0.9011   0.7285    0.659     C
C       0.9021    0.758   0.0871     C
O       0.9081   0.9863   0.3001     O
H       0.9121    0.788   0.8131     H
O       0.9123   0.4988   0.4511     O
C       0.9135   0.7435   0.5844     C
H       0.9158   0.2692   0.9299     H
C       0.9161   0.7553   0.8748     C
C       0.9165   0.7712   0.1624     C
C       0.9171   0.2549   0.8675     C
O       0.9369   0.0011   0.4513     O
O       0.9381   0.4706   0.2995     O
O       0.9462   0.7141   0.7324     O
C       0.9506   0.6875   0.0479     C
C       0.9509   0.7855   0.7004     C
Zn     0.95203  0.51549  0.74961    Zn
Zn     0.95644  0.95644      0.0    Zn
C       0.9574   0.7881   0.6232     C
C       0.9591    0.712   0.1248     C
O       0.9628   0.7578   0.0149     O
O       0.9706   0.5619   0.0495     O
C       0.9731   0.8144   0.5463     C
H       0.9747   0.3581   0.6248     H
H        0.976   0.1425   0.1254     H
C       0.9774   0.7122   0.2017     C
H       0.9828   0.6857   0.8746     H
H       0.9831    0.185   0.8655     H
O        0.984   0.7451   0.5132     O
Zn     0.98408  0.01592     0.75    Zn
Zn     0.98451  0.45203  0.99961    Zn
O       0.9863   0.9081   0.6999     O
O       0.9968   0.7866   0.2327     O
O       0.9988   0.5877   0.2011     O
O       0.9989   0.0631   0.0487     O
