data_I
_chemical_name_common  '/Users/gianmarcoterrones/Research/MOFs/MOF_structures/water_stability_work_extra_structs/cleaned_from_CCDC/ELUBEU'
_cell_length_a  8.97300
_cell_length_b  8.98300
_cell_length_c  9.39260
_cell_angle_alpha 69.76860
_cell_angle_beta  65.96150
_cell_angle_gamma 76.42900
_space_group_name_H-M_alt      'P 1'


loop_
_space_group_symop_operation_xyz
  'x, y, z' 

loop_
_atom_site_label
_atom_site_fract_x
_atom_site_fract_y
_atom_site_fract_z
_atom_site_type_symbol
O       0.0136   0.6365   0.5033     O
O       0.0342   0.8477   0.6769     O
H       0.0527   0.9115   0.2512     H
H        0.069     0.02     0.92     H
H        0.105    0.413    0.817     H
O       0.1063   0.0832   0.8359     O
H        0.136    0.121    0.311     H
H        0.147    0.729     0.04     H
H        0.165    0.425    0.484     H
Na     0.16782  0.09081  0.56612    Na
O       0.1883    0.431   0.8134     O
H        0.189    0.096    0.839     H
O       0.2112   0.6698   0.9927     O
O       0.2251   0.1368    0.288     O
O       0.2403   0.3596   0.4744     O
H         0.25    0.357    0.799     H
H        0.259    0.701    0.426     H
Na      0.2735  0.69817  0.71279    Na
H        0.282    0.061    0.271     H
H        0.291    0.664    0.011     H
H        0.298    0.384    0.504     H
O       0.3424   0.7102   0.4267     O
H        0.373    0.784    0.349     H
H       0.3786   0.9085   0.0319     H
O       0.4151   0.9396   0.5877     O
O        0.422   0.1478   0.7855     O
H        0.436    0.982    0.634     H
C       0.4776    0.126   0.8973     C
C       0.4789   0.9549   0.0114     C
K      0.48131  0.30525  0.19475     K
O       0.4881    0.944   0.1609     O
H        0.499    0.909    0.529     H
H        0.518    0.456    0.769     H
O       0.5287   0.5416   0.7103     O
O       0.5323   0.2316   0.9146     O
H        0.533    0.593    0.761     H
O       0.5482   0.6028   0.9786     O
H        0.549    0.272    0.559     H
O       0.5756   0.3156   0.4653     O
Na     0.60173  0.58103  0.42494    Na
C       0.6198   0.6804   0.0173     C
C       0.6332   0.8578    0.921     C
H       0.6381   0.8748   0.8083     H
H        0.667    0.281    0.429     H
O       0.6771   0.8344    0.371     O
O       0.6787    0.622   0.1283     O
Cu     0.72315  0.88682  0.14122    Cu
O       0.7712   0.9124   0.9155     O
H       0.7897   0.4931    0.862     H
O       0.7907   0.1658   0.1324     O
H       0.7968   0.8721   0.4886     H
C       0.8226   0.8263   0.3971     C
Na     0.82642  0.17993  0.85977    Na
O       0.8678   0.4435    0.817     O
C       0.8696   0.1021   0.2245     C
H        0.879    0.189    0.533     H
O        0.879   0.5487   0.3998     O
H         0.88   0.3204    0.548     H
O       0.8911   0.1711   0.3115     O
H          0.9    0.503    0.729     H
O       0.9016   0.2293   0.5824     O
C         0.91   0.6568   0.4357     C
C       0.9427   0.9271   0.2417     C
O       0.9556   0.8761   0.1111     O
H        0.956    0.871    0.748     H
K      0.97653  0.47161  0.11327     K
H        0.999    0.808    0.637     H
