data_I
_chemical_name_common  '/Users/gianmarcoterrones/Research/MOFs/MOF_structures/water_stability_work_extra_structs/cleaned_from_CCDC/EPEXII'
_cell_length_a 13.42020
_cell_length_b 15.31150
_cell_length_c 19.14970
_cell_angle_alpha 99.46700
_cell_angle_beta  90.00000
_cell_angle_gamma 90.00000
_space_group_name_H-M_alt      'P 1'


loop_
_space_group_symop_operation_xyz
  'x, y, z' 

loop_
_atom_site_label
_atom_site_fract_x
_atom_site_fract_y
_atom_site_fract_z
_atom_site_type_symbol
C       0.0015   0.9791   0.2916     C
H       0.0112   0.7345     0.21     H
C       0.0116   0.1114   0.6174     C
C       0.0125   0.5926   0.8409     C
H        0.014   0.3379   0.0607     H
H       0.0179    0.008   0.7522     H
C       0.0212   0.6145   0.9146     C
H       0.0237   0.1496   0.4781     H
O       0.0241   0.3084   0.9421     O
C       0.0417   0.0906   0.6813     C
H       0.0425   0.1575   0.5996     H
H       0.0432    0.735   0.6248     H
C       0.0454   0.6449    0.072     C
C       0.0467   0.8391   0.5133     C
H       0.0546   0.7838   0.4809     H
C       0.0566   0.3506   0.1954     C
H       0.0578   0.5096    0.755     H
O       0.0594   0.3604   0.2612     O
C       0.0612    0.692   0.2069     C
C       0.0637   0.5229    0.804     C
C       0.0651   0.9362   0.4213     C
C        0.074   0.0288   0.3312     C
C       0.0838   0.5636   0.9506     C
C       0.0893   0.6432   0.1422     C
C       0.0908   0.7797   0.6304     C
H       0.0948   0.7069   0.3105     H
N       0.0948   0.9127   0.4858     N
N       0.0969   0.5843    0.025     N
O       0.0986   0.1241   0.2459     O
C       0.1018   0.8372   0.5811     C
C       0.1062   0.0073   0.3946     C
O       0.1098    0.295    0.157     O
C       0.1105   0.6748   0.2664     C
C       0.1154   0.1115   0.3072     C
C       0.1254    0.471   0.8403     C
C       0.1277   0.1417   0.7199     C
O       0.1284   0.1531   0.7862     O
C        0.135   0.4927   0.9129     C
H       0.1493   0.7554   0.7208     H
C       0.1543   0.7929   0.6873     C
H       0.1561   0.0408   0.4198     H
H       0.1607   0.4754   0.0548     H
C       0.1615   0.5813   0.1371     C
O       0.1638    0.165   0.3512     O
C       0.1691    0.951   0.5302     C
C       0.1727   0.9025   0.5907     C
C       0.1733   0.5385   0.0609     C
H       0.1766   0.4591   0.9369     H
C       0.1796   0.3924   0.8008     C
Cd        0.18  0.21922  0.91147    Cd
C       0.1832   0.6098   0.2607     C
O       0.1857   0.3815   0.7355     O
O       0.1911   0.1715   0.6822     O
Cd     0.19502  0.25151  0.24893    Cd
C       0.2104   0.5638   0.1965     C
H       0.2141   0.5974   0.3014     H
H       0.2182   0.9618   0.1561     H
O       0.2196   0.3406   0.8376     O
C       0.2235   0.8574   0.6971     C
O       0.2243   0.0107   0.5198     O
C       0.2351   0.9163   0.6492     C
H       0.2355    0.863   0.2367     H
H       0.2393   0.5216   0.6929     H
H       0.2395   0.5484   0.0434     H
H       0.2605   0.5484   0.5434     H
H       0.2607   0.5216   0.1929     H
H       0.2645    0.863   0.7367     H
C       0.2649   0.9163   0.1492     C
O       0.2757   0.0107   0.0198     O
C       0.2765   0.8574   0.1971     C
O       0.2804   0.3406   0.3376     O
H       0.2818   0.9618   0.6561     H
H       0.2859   0.5974   0.8014     H
C       0.2896   0.5638   0.6965     C
Cd     0.30498  0.25151  0.74893    Cd
O       0.3089   0.1715   0.1822     O
O       0.3143   0.3815   0.2355     O
C       0.3168   0.6098   0.7607     C
Cd        0.32  0.21922  0.41147    Cd
C       0.3204   0.3924   0.3008     C
H       0.3234   0.4591   0.4369     H
C       0.3267   0.5385   0.5609     C
C       0.3273   0.9025   0.0907     C
C       0.3309    0.951   0.0302     C
O       0.3362    0.165   0.8512     O
C       0.3385   0.5813   0.6371     C
H       0.3393   0.4754   0.5548     H
H       0.3439   0.0408   0.9198     H
C       0.3457   0.7929   0.1873     C
H       0.3507   0.7554   0.2208     H
C        0.365   0.4927   0.4129     C
O       0.3716   0.1531   0.2862     O
C       0.3723   0.1417   0.2199     C
C       0.3746    0.471   0.3403     C
C       0.3846   0.1115   0.8072     C
C       0.3895   0.6748   0.7664     C
O       0.3902    0.295    0.657     O
C       0.3938   0.0073   0.8946     C
C       0.3982   0.8372   0.0811     C
O       0.4014   0.1241   0.7459     O
N       0.4031   0.5843    0.525     N
H       0.4052   0.7069   0.8105     H
N       0.4052   0.9127   0.9858     N
C       0.4092   0.7797   0.1304     C
C       0.4107   0.6432   0.6422     C
C       0.4162   0.5636   0.4506     C
C        0.426   0.0288   0.8312     C
C       0.4349   0.9362   0.9213     C
C       0.4363   0.5229    0.304     C
C       0.4388    0.692   0.7069     C
O       0.4406   0.3604   0.7612     O
H       0.4422   0.5096    0.255     H
C       0.4434   0.3506   0.6954     C
H       0.4454   0.7838   0.9809     H
C       0.4533   0.8391   0.0133     C
C       0.4546   0.6449    0.572     C
H       0.4568    0.735   0.1248     H
H       0.4575   0.1575   0.0996     H
C       0.4583   0.0906   0.1813     C
O       0.4759   0.3084   0.4421     O
H       0.4763   0.1496   0.9781     H
C       0.4788   0.6145   0.4146     C
H       0.4821    0.008   0.2522     H
H        0.486   0.3379   0.5607     H
C       0.4875   0.5926   0.3409     C
C       0.4884   0.1114   0.1174     C
H       0.4888   0.7345     0.71     H
C       0.4985   0.9791   0.7916     C
C       0.5015   0.0209   0.2084     C
H       0.5112   0.2655     0.29     H
C       0.5116   0.8886   0.8826     C
C       0.5125   0.4074   0.6591     C
H        0.514   0.6621   0.4393     H
H       0.5179    0.992   0.7478     H
C       0.5212   0.3855   0.5854     C
H       0.5237   0.8504   0.0219     H
O       0.5241   0.6916   0.5579     O
C       0.5417   0.9094   0.8187     C
H       0.5425   0.8425   0.9004     H
H       0.5432    0.265   0.8752     H
C       0.5454   0.3551    0.428     C
C       0.5467   0.1609   0.9867     C
H       0.5546   0.2162   0.0191     H
C       0.5566   0.6494   0.3046     C
H       0.5578   0.4904    0.745     H
O       0.5594   0.6396   0.2388     O
C       0.5612    0.308   0.2931     C
C       0.5637   0.4771    0.696     C
C       0.5651   0.0638   0.0787     C
C        0.574   0.9712   0.1688     C
C       0.5838   0.4364   0.5494     C
C       0.5893   0.3568   0.3578     C
C       0.5908   0.2203   0.8696     C
N       0.5948   0.0873   0.0142     N
H       0.5948   0.2931   0.1895     H
N       0.5969   0.4157    0.475     N
O       0.5986   0.8759   0.2541     O
C       0.6018   0.1628   0.9189     C
C       0.6062   0.9927   0.1054     C
O       0.6098    0.705    0.343     O
C       0.6105   0.3252   0.2336     C
C       0.6154   0.8885   0.1928     C
C       0.6254    0.529   0.6597     C
C       0.6277   0.8583   0.7801     C
O       0.6284   0.8469   0.7138     O
C        0.635   0.5073   0.5871     C
H       0.6493   0.2446   0.7792     H
C       0.6543   0.2071   0.8127     C
H       0.6561   0.9592   0.0802     H
H       0.6607   0.5246   0.4452     H
C       0.6615   0.4187   0.3629     C
O       0.6638    0.835   0.1488     O
C       0.6691    0.049   0.9698     C
C       0.6727   0.0975   0.9093     C
C       0.6733   0.4615   0.4391     C
H       0.6766   0.5409   0.5631     H
C       0.6796   0.6076   0.6992     C
Cd        0.68  0.78078  0.58853    Cd
C       0.6832   0.3902   0.2393     C
O       0.6857   0.6185   0.7645     O
O       0.6911   0.8285   0.8178     O
Cd     0.69502  0.74849  0.25107    Cd
C       0.7104   0.4362   0.3035     C
H       0.7141   0.4026   0.1986     H
H       0.7182   0.0382   0.3439     H
O       0.7196   0.6594   0.6624     O
C       0.7235   0.1426   0.8029     C
O       0.7243   0.9893   0.9802     O
C       0.7351   0.0837   0.8508     C
H       0.7355    0.137   0.2633     H
H       0.7393   0.4784   0.8071     H
H       0.7395   0.4516   0.4566     H
H       0.7605   0.4516   0.9566     H
H       0.7607   0.4784   0.3071     H
H       0.7645    0.137   0.7633     H
C       0.7649   0.0837   0.3508     C
O       0.7757   0.9893   0.4802     O
C       0.7765   0.1426   0.3029     C
O       0.7804   0.6594   0.1624     O
H       0.7818   0.0382   0.8439     H
H       0.7859   0.4026   0.6986     H
C       0.7896   0.4362   0.8035     C
Cd     0.80498  0.74849  0.75107    Cd
O       0.8089   0.8285   0.3178     O
O       0.8143   0.6185   0.2645     O
C       0.8168   0.3902   0.7393     C
Cd        0.82  0.78078  0.08853    Cd
C       0.8204   0.6076   0.1992     C
H       0.8234   0.5409   0.0631     H
C       0.8267   0.4615   0.9391     C
C       0.8273   0.0975   0.4093     C
C       0.8309    0.049   0.4698     C
O       0.8362    0.835   0.6488     O
C       0.8385   0.4187   0.8629     C
H       0.8393   0.5246   0.9452     H
H       0.8439   0.9592   0.5802     H
C       0.8457   0.2071   0.3127     C
H       0.8507   0.2446   0.2792     H
C        0.865   0.5073   0.0871     C
O       0.8716   0.8469   0.2138     O
C       0.8723   0.8583   0.2801     C
C       0.8746    0.529   0.1597     C
C       0.8846   0.8885   0.6928     C
C       0.8895   0.3252   0.7336     C
O       0.8902    0.705    0.843     O
C       0.8938   0.9927   0.6054     C
C       0.8982   0.1628   0.4189     C
O       0.9014   0.8759   0.7541     O
N       0.9031   0.4157    0.975     N
N       0.9052   0.0873   0.5142     N
H       0.9052   0.2931   0.6895     H
C       0.9092   0.2203   0.3696     C
C       0.9107   0.3568   0.8578     C
C       0.9162   0.4364   0.0494     C
C        0.926   0.9712   0.6688     C
C       0.9349   0.0638   0.5787     C
C       0.9363   0.4771    0.196     C
C       0.9388    0.308   0.7931     C
O       0.9406   0.6396   0.7388     O
H       0.9422   0.4904    0.245     H
C       0.9434   0.6494   0.8046     C
H       0.9454   0.2162   0.5191     H
C       0.9533   0.1609   0.4867     C
C       0.9546   0.3551    0.928     C
H       0.9568    0.265   0.3752     H
H       0.9575   0.8425   0.4004     H
C       0.9583   0.9094   0.3187     C
O       0.9759   0.6916   0.0579     O
H       0.9763   0.8504   0.5219     H
C       0.9788   0.3855   0.0854     C
H       0.9821    0.992   0.2478     H
H        0.986   0.6621   0.9393     H
C       0.9875   0.4074   0.1591     C
C       0.9884   0.8886   0.3826     C
H       0.9888   0.2655     0.79     H
C       0.9985   0.0209   0.7084     C
