data_I
_chemical_name_common  '/Users/gianmarcoterrones/Research/MOFs/MOF_structures/water_stability_work_extra_structs/cleaned_from_CCDC/EPEXOO'
_cell_length_a 10.74550
_cell_length_b 20.33020
_cell_length_c 24.29640
_cell_angle_alpha 90.00000
_cell_angle_beta  90.00000
_cell_angle_gamma 90.00000
_space_group_name_H-M_alt      'P 1'


loop_
_space_group_symop_operation_xyz
  'x, y, z' 

loop_
_atom_site_label
_atom_site_fract_x
_atom_site_fract_y
_atom_site_fract_z
_atom_site_type_symbol
C          0.0   0.4779   0.5105     C
C          0.0   0.5221   0.0105     C
H       0.0019    0.612   0.0424     H
C       0.0022   0.9762   0.1364     C
C       0.0035    0.312   0.8887     C
O       0.0038   0.8906   0.8162     O
C       0.0056   0.1545   0.6837     C
C       0.0061   0.7594   0.0735     C
H       0.0063   0.0225   0.1288     H
C       0.0083   0.6846   0.2771     C
N       0.0091   0.9048   0.2176     N
C       0.0107   0.9653   0.1967     C
H       0.0108   0.6836   0.2388     H
H       0.0134   0.1421   0.6458     H
C        0.014   0.4116   0.5104     C
C        0.017   0.6936    0.449     C
H       0.0174   0.5612    0.465     H
O       0.0198  0.01356   0.2281     O
C       0.0245   0.8934   0.2761     C
O       0.0247  0.16627  0.12929     O
H       0.0263   0.5339   0.3459     H
C       0.0265   0.5157   0.4644     C
H       0.0265   0.7533   0.7618     H
H       0.0281   0.5014   0.0423     H
H       0.0299   0.7758   0.5404     H
Cd     0.03219 0.122429   0.2266    Cd
H       0.0443   0.9269   0.8219     H
H       0.0456    0.934    0.294     H
O       0.0475  0.22984  0.25253     O
H       0.0485   0.8582   0.8281     H
O       0.0508   0.8069  0.04746     O
C       0.0514   0.3785   0.4634     C
H       0.0519   0.1232   0.7912     H
O       0.0523  0.32196  0.98733     O
H       0.0596   0.3329   0.4632     H
O       0.0613  0.72221  0.10615     O
H       0.0659   0.8177   0.1882     H
C       0.0669   0.4835   0.4173     C
H       0.0701   0.9542   0.1184     H
H       0.0752   0.0411    0.623     H
C       0.0762   0.4152    0.417     C
H       0.0777   0.2545   0.2253     H
H        0.079   0.1778   0.6951     H
H       0.0898    0.862   0.2819     H
C       0.0921   0.8286   0.6362     C
C       0.0959   0.5094   0.3608     C
C       0.0989   0.3316   0.8031     C
C       0.1063   0.7055   0.3625     C
C       0.1084   0.3936   0.3611     C
C       0.1086   0.3308     0.86     C
C       0.1147   0.7702   0.5462     C
C        0.115   0.7027    0.306     C
N       0.1184   0.4492  0.32923     N
H       0.1187   0.6206   0.5838     H
H       0.1228   0.6829   0.6644     H
O       0.1236  0.33689  0.34607     O
C       0.1312   0.2517   0.5647     C
N       0.1357   0.7176  0.45636     N
C       0.1375   0.6005   0.6172     C
C       0.1392    0.638   0.6649     C
H       0.1404   0.2054   0.4912     H
C        0.143   0.4523   0.2723     C
H       0.1435    0.354    0.256     H
O       0.1441   0.8526  0.67812     O
C       0.1508   0.3953   0.2398     C
O       0.1566   0.6878  0.78445     O
H       0.1586   0.4858   0.7851     H
C       0.1627   0.5347   0.6183     C
H        0.163   0.5114   0.5854     H
H       0.1659   0.3022   0.6347     H
C       0.1662   0.5127    0.248     C
C       0.1665   0.6052   0.7135     C
H        0.167   0.5504   0.2696     H
H       0.1678   0.3436   0.7823     H
H        0.169   0.5373   0.3613     H
C       0.1695   0.4006   0.1835     C
C       0.1703   0.7944   0.5949     C
C        0.177    0.631   0.7692     C
O       0.1771   0.3436   0.0983     O
C       0.1795   0.3383   0.1492     C
H        0.182   0.3422   0.8779     H
C       0.1855   0.4611   0.1588     C
C       0.1871   0.7377   0.5069     C
C       0.1878   0.5016   0.6664     C
C        0.188   0.2281   0.5169     C
C       0.1882   0.5175   0.1914     C
H        0.189   0.7124   0.2878     H
C       0.1908   0.5388   0.7142     C
O        0.191  0.28361  0.17361     O
H       0.1944   0.4643   0.1208     H
O       0.1982  0.20222  0.02542     O
H       0.1982   0.9982   0.7744     H
H        0.202   0.4565   0.6669     H
C        0.202    0.724   0.4038     C
O       0.2023  0.90466  0.94177     O
C       0.2032   0.2854   0.6031     C
H       0.2033   0.0776   0.0105     H
O       0.2048  0.59214  0.11723     O
C       0.2056   0.9547   0.9709     C
O       0.2059  0.95248  0.02231     O
O       0.2087  0.75066   0.9548     O
N       0.2121    0.579  0.80263     N
C       0.2164   0.0207   0.9435     C
C       0.2175   0.0782   0.9727     C
C       0.2193   0.5822   0.1674     C
C       0.2194   0.5174   0.7719     C
H       0.2244   0.6791   0.8717     H
H       0.2272   0.1944   0.4022     H
H       0.2306   0.7687   0.3981     H
Cd      0.2337 0.201239 0.115809    Cd
O       0.2366  0.12708  0.19865     O
C       0.2366    0.581   0.8597     C
H        0.237   0.9828   0.8668     H
Cd     0.23723 0.834793 0.014258    Cd
C        0.238   0.6392   0.8894     C
C       0.2387   0.0218   0.8867     C
C       0.2399   0.1379   0.9462     C
C       0.2442   0.2009   0.9779     C
C       0.2558   0.7009   0.9779     C
C       0.2601   0.6379   0.9462     C
C       0.2613   0.5218   0.8867     C
C        0.262   0.1392   0.8894     C
Cd     0.26277 0.334793 0.014258    Cd
H        0.263   0.4828   0.8668     H
C       0.2634    0.081   0.8597     C
O       0.2634  0.62708  0.19865     O
Cd      0.2663 0.701239 0.115809    Cd
H       0.2694   0.2687   0.3981     H
H       0.2728   0.6944   0.4022     H
H       0.2756   0.1791   0.8717     H
C       0.2806   0.0174   0.7719     C
C       0.2807   0.0822   0.1674     C
C       0.2825   0.5782   0.9727     C
C       0.2836   0.5207   0.9435     C
N       0.2879    0.079  0.80263     N
O       0.2913  0.25066   0.9548     O
O       0.2941  0.45248  0.02231     O
C       0.2944   0.4547   0.9709     C
O       0.2952  0.09214  0.11723     O
H       0.2967   0.5776   0.0105     H
C       0.2968   0.7854   0.6031     C
O       0.2977  0.40466  0.94177     O
C        0.298    0.224   0.4038     C
H        0.298   0.9565   0.6669     H
H       0.3018   0.4982   0.7744     H
O       0.3018  0.70222  0.02542     O
H       0.3056   0.9643   0.1208     H
O        0.309  0.78361  0.17361     O
C       0.3092   0.0388   0.7142     C
H        0.311   0.2124   0.2878     H
C       0.3118   0.0175   0.1914     C
C        0.312   0.7281   0.5169     C
C       0.3122   0.0016   0.6664     C
C       0.3129   0.2377   0.5069     C
C       0.3145   0.9611   0.1588     C
H        0.318   0.8422   0.8779     H
C       0.3205   0.8383   0.1492     C
O       0.3229   0.8436   0.0983     O
C        0.323    0.131   0.7692     C
C       0.3297   0.2944   0.5949     C
C       0.3305   0.9006   0.1835     C
H        0.331   0.0373   0.3613     H
H       0.3322   0.8436   0.7823     H
H        0.333   0.0504   0.2696     H
C       0.3335   0.1052   0.7135     C
C       0.3338   0.0127    0.248     C
H       0.3341   0.8022   0.6347     H
H        0.337   0.0114   0.5854     H
C       0.3373   0.0347   0.6183     C
H       0.3414   0.9858   0.7851     H
O       0.3434   0.1878  0.78445     O
C       0.3492   0.8953   0.2398     C
O       0.3559   0.3526  0.67812     O
H       0.3565    0.854    0.256     H
C        0.357   0.9523   0.2723     C
H       0.3596   0.7054   0.4912     H
C       0.3608    0.138   0.6649     C
C       0.3625   0.1005   0.6172     C
N       0.3643   0.2176  0.45636     N
C       0.3688   0.7517   0.5647     C
O       0.3764  0.83689  0.34607     O
H       0.3772   0.1829   0.6644     H
H       0.3813   0.1206   0.5838     H
N       0.3816   0.9492  0.32923     N
C        0.385   0.2027    0.306     C
C       0.3853   0.2702   0.5462     C
C       0.3914   0.8308     0.86     C
C       0.3916   0.8936   0.3611     C
C       0.3937   0.2055   0.3625     C
C       0.4011   0.8316   0.8031     C
C       0.4041   0.0094   0.3608     C
C       0.4079   0.3286   0.6362     C
H       0.4102    0.362   0.2819     H
H        0.421   0.6778   0.6951     H
H       0.4223   0.7545   0.2253     H
C       0.4238   0.9152    0.417     C
H       0.4248   0.5411    0.623     H
H       0.4299   0.4542   0.1184     H
C       0.4331   0.9835   0.4173     C
H       0.4341   0.3177   0.1882     H
O       0.4387  0.22221  0.10615     O
H       0.4404   0.8329   0.4632     H
O       0.4477  0.82196  0.98733     O
H       0.4481   0.6232   0.7912     H
C       0.4486   0.8785   0.4634     C
O       0.4492   0.3069  0.04746     O
H       0.4515   0.3582   0.8281     H
O       0.4525  0.72984  0.25253     O
H       0.4544    0.434    0.294     H
H       0.4557   0.4269   0.8219     H
Cd     0.46781 0.622429   0.2266    Cd
H       0.4701   0.2758   0.5404     H
H       0.4719   0.0014   0.0423     H
C       0.4735   0.0157   0.4644     C
H       0.4735   0.2533   0.7618     H
H       0.4737   0.0339   0.3459     H
O       0.4753  0.66627  0.12929     O
C       0.4755   0.3934   0.2761     C
O       0.4802  0.51356   0.2281     O
H       0.4826   0.0612    0.465     H
C        0.483   0.1936    0.449     C
C        0.486   0.9116   0.5104     C
H       0.4866   0.6421   0.6458     H
H       0.4892   0.1836   0.2388     H
C       0.4893   0.4653   0.1967     C
N       0.4909   0.4048   0.2176     N
C       0.4917   0.1846   0.2771     C
H       0.4937   0.5225   0.1288     H
C       0.4939   0.2594   0.0735     C
C       0.4944   0.6545   0.6837     C
O       0.4962   0.3906   0.8162     O
C       0.4965    0.812   0.8887     C
C       0.4978   0.4762   0.1364     C
H       0.4981    0.112   0.0424     H
C          0.5   0.0221   0.0105     C
C          0.5   0.9779   0.5105     C
H       0.5019    0.888   0.5424     H
C       0.5022   0.5238   0.6364     C
C       0.5035    0.188   0.3887     C
O       0.5038   0.6094   0.3162     O
C       0.5056   0.3455   0.1837     C
C       0.5061   0.7406   0.5735     C
H       0.5063   0.4775   0.6288     H
C       0.5083   0.8154   0.7771     C
N       0.5091   0.5952   0.7176     N
C       0.5107   0.5347   0.6967     C
H       0.5108   0.8164   0.7388     H
H       0.5134   0.3579   0.1458     H
C        0.514   0.0884   0.0104     C
C        0.517   0.8064    0.949     C
H       0.5174   0.9388    0.965     H
O       0.5198  0.48644   0.7281     O
C       0.5245   0.6066   0.7761     C
O       0.5247  0.33373  0.62929     O
H       0.5263   0.9661   0.8459     H
H       0.5265   0.7467   0.2618     H
C       0.5265   0.9843   0.9644     C
H       0.5281   0.9986   0.5423     H
H       0.5299   0.7242   0.0404     H
Cd     0.53219 0.377571   0.7266    Cd
H       0.5443   0.5731   0.3219     H
H       0.5456    0.566    0.794     H
O       0.5475  0.27016  0.75253     O
H       0.5485   0.6418   0.3281     H
O       0.5508   0.6931  0.54746     O
C       0.5514   0.1215   0.9634     C
H       0.5519   0.3768   0.2912     H
O       0.5523  0.17804  0.48733     O
H       0.5596   0.1671   0.9632     H
O       0.5613  0.77779  0.60615     O
H       0.5659   0.6823   0.6882     H
C       0.5669   0.0165   0.9173     C
H       0.5701   0.5458   0.6184     H
H       0.5752   0.4589    0.123     H
C       0.5762   0.0848    0.917     C
H       0.5777   0.2455   0.7253     H
H        0.579   0.3222   0.1951     H
H       0.5898    0.638   0.7819     H
C       0.5921   0.6714   0.1362     C
C       0.5959   0.9906   0.8608     C
C       0.5989   0.1684   0.3031     C
C       0.6063   0.7945   0.8625     C
C       0.6084   0.1064   0.8611     C
C       0.6086   0.1692     0.36     C
C       0.6147   0.7298   0.0462     C
C        0.615   0.7973    0.806     C
N       0.6184   0.0508  0.82923     N
H       0.6187   0.8794   0.0838     H
H       0.6228   0.8171   0.1644     H
O       0.6236  0.16311  0.84607     O
C       0.6312   0.2483   0.0647     C
N       0.6357   0.7824  0.95636     N
C       0.6375   0.8995   0.1172     C
C       0.6392    0.862   0.1649     C
H       0.6404   0.2946   0.9912     H
C        0.643   0.0477   0.7723     C
H       0.6435    0.146    0.756     H
O       0.6441   0.6474  0.17812     O
C       0.6508   0.1047   0.7398     C
O       0.6566   0.8122  0.28445     O
H       0.6586   0.0142   0.2851     H
C       0.6627   0.9653   0.1183     C
H        0.663   0.9886   0.0854     H
H       0.6659   0.1978   0.1347     H
C       0.6662   0.9873    0.748     C
C       0.6665   0.8948   0.2135     C
H        0.667   0.9496   0.7696     H
H       0.6678   0.1564   0.2823     H
H        0.669   0.9627   0.8613     H
C       0.6695   0.0994   0.6835     C
C       0.6703   0.7056   0.0949     C
C        0.677    0.869   0.2692     C
O       0.6771   0.1564   0.5983     O
C       0.6795   0.1617   0.6492     C
H        0.682   0.1578   0.3779     H
C       0.6855   0.0389   0.6588     C
C       0.6871   0.7623   0.0069     C
C       0.6878   0.9984   0.1664     C
C        0.688   0.2719   0.0169     C
C       0.6882   0.9825   0.6914     C
H        0.689   0.7876   0.7878     H
C       0.6908   0.9612   0.2142     C
O        0.691  0.21639  0.67361     O
H       0.6944   0.0357   0.6208     H
O       0.6982  0.29778  0.52542     O
H       0.6982   0.5018   0.2744     H
H        0.702   0.0435   0.1669     H
C        0.702    0.776   0.9038     C
O       0.7023  0.59534  0.44177     O
C       0.7032   0.2146   0.1031     C
H       0.7033   0.4224   0.5105     H
O       0.7048  0.90786  0.61723     O
C       0.7056   0.5453   0.4709     C
O       0.7059  0.54752  0.52231     O
O       0.7087  0.74934   0.4548     O
N       0.7121    0.921  0.30263     N
C       0.7164   0.4793   0.4435     C
C       0.7175   0.4218   0.4727     C
C       0.7193   0.9178   0.6674     C
C       0.7194   0.9826   0.2719     C
H       0.7244   0.8209   0.3717     H
H       0.7272   0.3056   0.9022     H
H       0.7306   0.7313   0.8981     H
Cd      0.7337 0.298761 0.615809    Cd
O       0.7366  0.37292  0.69865     O
C       0.7366    0.919   0.3597     C
H        0.737   0.5172   0.3668     H
Cd     0.73723 0.665207 0.514258    Cd
C        0.738   0.8608   0.3894     C
C       0.7387   0.4782   0.3867     C
C       0.7399   0.3621   0.4462     C
C       0.7442   0.2991   0.4779     C
C       0.7558   0.7991   0.4779     C
C       0.7601   0.8621   0.4462     C
C       0.7613   0.9782   0.3867     C
C        0.762   0.3608   0.3894     C
Cd     0.76277 0.165207 0.514258    Cd
H        0.763   0.0172   0.3668     H
C       0.7634    0.419   0.3597     C
O       0.7634  0.87292  0.69865     O
Cd      0.7663 0.798761 0.615809    Cd
H       0.7694   0.2313   0.8981     H
H       0.7728   0.8056   0.9022     H
H       0.7756   0.3209   0.3717     H
C       0.7806   0.4826   0.2719     C
C       0.7807   0.4178   0.6674     C
C       0.7825   0.9218   0.4727     C
C       0.7836   0.9793   0.4435     C
N       0.7879    0.421  0.30263     N
O       0.7913  0.24934   0.4548     O
O       0.7941  0.04752  0.52231     O
C       0.7944   0.0453   0.4709     C
O       0.7952  0.40786  0.61723     O
H       0.7967   0.9224   0.5105     H
C       0.7968   0.7146   0.1031     C
O       0.7977  0.09534  0.44177     O
C        0.798    0.276   0.9038     C
H        0.798   0.5435   0.1669     H
H       0.8018   0.0018   0.2744     H
O       0.8018  0.79778  0.52542     O
H       0.8056   0.5357   0.6208     H
O        0.809  0.71639  0.67361     O
C       0.8092   0.4612   0.2142     C
H        0.811   0.2876   0.7878     H
C       0.8118   0.4825   0.6914     C
C        0.812   0.7719   0.0169     C
C       0.8122   0.4984   0.1664     C
C       0.8129   0.2623   0.0069     C
C       0.8145   0.5389   0.6588     C
H        0.818   0.6578   0.3779     H
C       0.8205   0.6617   0.6492     C
O       0.8229   0.6564   0.5983     O
C        0.823    0.369   0.2692     C
C       0.8297   0.2056   0.0949     C
C       0.8305   0.5994   0.6835     C
H        0.831   0.4627   0.8613     H
H       0.8322   0.6564   0.2823     H
H        0.833   0.4496   0.7696     H
C       0.8335   0.3948   0.2135     C
C       0.8338   0.4873    0.748     C
H       0.8341   0.6978   0.1347     H
H        0.837   0.4886   0.0854     H
C       0.8373   0.4653   0.1183     C
H       0.8414   0.5142   0.2851     H
O       0.8434   0.3122  0.28445     O
C       0.8492   0.6047   0.7398     C
O       0.8559   0.1474  0.17812     O
H       0.8565    0.646    0.756     H
C        0.857   0.5477   0.7723     C
H       0.8596   0.7946   0.9912     H
C       0.8608    0.362   0.1649     C
C       0.8625   0.3995   0.1172     C
N       0.8643   0.2824  0.95636     N
C       0.8688   0.7483   0.0647     C
O       0.8764  0.66311  0.84607     O
H       0.8772   0.3171   0.1644     H
H       0.8813   0.3794   0.0838     H
N       0.8816   0.5508  0.82923     N
C        0.885   0.2973    0.806     C
C       0.8853   0.2298   0.0462     C
C       0.8914   0.6692     0.36     C
C       0.8916   0.6064   0.8611     C
C       0.8937   0.2945   0.8625     C
C       0.9011   0.6684   0.3031     C
C       0.9041   0.4906   0.8608     C
C       0.9079   0.1714   0.1362     C
H       0.9102    0.138   0.7819     H
H        0.921   0.8222   0.1951     H
H       0.9223   0.7455   0.7253     H
C       0.9238   0.5848    0.917     C
H       0.9248   0.9589    0.123     H
H       0.9299   0.0458   0.6184     H
C       0.9331   0.5165   0.9173     C
H       0.9341   0.1823   0.6882     H
O       0.9387  0.27779  0.60615     O
H       0.9404   0.6671   0.9632     H
O       0.9477  0.67804  0.48733     O
H       0.9481   0.8768   0.2912     H
C       0.9486   0.6215   0.9634     C
O       0.9492   0.1931  0.54746     O
H       0.9515   0.1418   0.3281     H
O       0.9525  0.77016  0.75253     O
H       0.9544    0.066    0.794     H
H       0.9557   0.0731   0.3219     H
Cd     0.96781 0.877571   0.7266    Cd
H       0.9701   0.2242   0.0404     H
H       0.9719   0.4986   0.5423     H
H       0.9735   0.2467   0.2618     H
C       0.9735   0.4843   0.9644     C
H       0.9737   0.4661   0.8459     H
O       0.9753  0.83373  0.62929     O
C       0.9755   0.1066   0.7761     C
O       0.9802  0.98644   0.7281     O
H       0.9826   0.4388    0.965     H
C        0.983   0.3064    0.949     C
C        0.986   0.5884   0.0104     C
H       0.9866   0.8579   0.1458     H
H       0.9892   0.3164   0.7388     H
C       0.9893   0.0347   0.6967     C
N       0.9909   0.0952   0.7176     N
C       0.9917   0.3154   0.7771     C
H       0.9937   0.9775   0.6288     H
C       0.9939   0.2406   0.5735     C
C       0.9944   0.8455   0.1837     C
O       0.9962   0.1094   0.3162     O
C       0.9965    0.688   0.3887     C
C       0.9978   0.0238   0.6364     C
H       0.9981    0.388   0.5424     H
