data_I
_chemical_name_common  '/Users/gianmarcoterrones/Research/MOFs/MOF_structures/water_stability_work_extra_structs/cleaned_from_CCDC/EPEXEE'
_cell_length_a  6.88110
_cell_length_b 17.91510
_cell_length_c 25.77360
_cell_angle_alpha 90.00000
_cell_angle_beta  90.00000
_cell_angle_gamma 90.00000
_space_group_name_H-M_alt      'P 1'


loop_
_space_group_symop_operation_xyz
  'x, y, z' 

loop_
_atom_site_label
_atom_site_fract_x
_atom_site_fract_y
_atom_site_fract_z
_atom_site_type_symbol
O       0.0001   0.0235  0.18936     O
O       0.0001   0.4765  0.68936     O
H       0.0045   0.5163   0.8784     H
H       0.0045   0.9837   0.3784     H
H       0.0048   0.6202   0.3798     H
H       0.0048   0.8798   0.8798     H
C       0.0282   0.1617  0.13994     C
C       0.0282   0.3383  0.63994     C
H       0.0283   0.0989   0.4457     H
H       0.0283   0.4011   0.9457     H
C        0.029    0.199  0.48206     C
C        0.029    0.301  0.98206     C
N       0.0294  0.24119   0.0619     N
N       0.0294  0.25881   0.5619     N
C         0.03   0.1835   0.5392     C
C         0.03   0.3165   0.0392     C
C       0.0307   0.1502  0.44043     C
C       0.0307   0.3498  0.94043     C
C       0.0321    0.225  0.97406     C
C       0.0321    0.275  0.47406     C
C       0.0344   0.1869  0.02467     C
C       0.0344   0.3131  0.52467     C
H       0.0363   0.1474   0.3627     H
C       0.0363   0.1794   0.3911     C
C       0.0363   0.3206   0.8911     C
H       0.0363   0.3526   0.8627     H
C       0.0381   0.1951  0.92432     C
C       0.0381   0.3049  0.42432     C
H       0.0397   0.1438    0.919     H
H       0.0397   0.3562    0.419     H
O       0.0416  0.11879  0.03194     O
O       0.0416  0.38121  0.53194     O
C       0.0418   0.2446    0.883     C
C       0.0418   0.2554    0.383     C
C       0.0445   0.2316  0.11633     C
C       0.0445   0.2684  0.61633     C
H        0.048   0.2263   0.8493     H
H        0.048   0.2737   0.3493     H
C       0.0529   0.0779  0.21689     C
C       0.0529   0.4221  0.71689     C
C        0.061    0.154  0.19275     C
C        0.061    0.346  0.69275     C
C       0.0772   0.2064   0.6475     C
C       0.0772   0.2936   0.1475     C
H       0.0803   0.1591   0.6326     H
H       0.0803   0.3409   0.1326     H
H       0.0844   0.6555   0.9505     H
H       0.0844   0.8445   0.4505     H
C       0.1023   0.2158  0.22306     C
C       0.1023   0.2842  0.72306     C
C       0.1053    0.214  0.70035     C
C       0.1053    0.286  0.20035     C
O       0.1071  0.07329  0.26341     O
O       0.1071  0.42671  0.76341     O
O        0.118  0.08176  0.71274     O
O        0.118  0.41824  0.21274     O
O       0.1248   0.5291  0.87582     O
O       0.1248   0.9709  0.37582     O
H       0.1278   0.2103   0.2583     H
H       0.1278   0.2897   0.7583     H
C       0.1437    0.146  0.73245     C
C       0.1437    0.354  0.23245     C
H       0.1453    0.156   0.5493     H
H       0.1453    0.344   0.0493     H
H       0.1945   0.0035   0.3919     H
H       0.1945   0.4965   0.8919     H
O        0.204  0.15402  0.77808     O
O        0.204  0.34598  0.27808     O
Cd     0.20878 0.534429 0.791826    Cd
Cd     0.20878 0.965571 0.291826    Cd
Cd     0.29122 0.034429 0.791826    Cd
Cd     0.29122 0.465571 0.291826    Cd
O        0.296  0.65402  0.77808     O
O        0.296  0.84598  0.27808     O
H       0.3055   0.5035   0.3919     H
H       0.3055   0.9965   0.8919     H
H       0.3547    0.656   0.5493     H
H       0.3547    0.844   0.0493     H
C       0.3563    0.646  0.73245     C
C       0.3563    0.854  0.23245     C
H       0.3722   0.7103   0.2583     H
H       0.3722   0.7897   0.7583     H
O       0.3752   0.0291  0.87582     O
O       0.3752   0.4709  0.37582     O
O        0.382  0.58176  0.71274     O
O        0.382  0.91824  0.21274     O
O       0.3929  0.57329  0.26341     O
O       0.3929  0.92671  0.76341     O
C       0.3947    0.714  0.70035     C
C       0.3947    0.786  0.20035     C
C       0.3977   0.7158  0.22306     C
C       0.3977   0.7842  0.72306     C
H       0.4156   0.1555   0.9505     H
H       0.4156   0.3445   0.4505     H
H       0.4197   0.6591   0.6326     H
H       0.4197   0.8409   0.1326     H
C       0.4228   0.7064   0.6475     C
C       0.4228   0.7936   0.1475     C
C        0.439    0.654  0.19275     C
C        0.439    0.846  0.69275     C
C       0.4471   0.5779  0.21689     C
C       0.4471   0.9221  0.71689     C
H        0.452   0.7263   0.8493     H
H        0.452   0.7737   0.3493     H
C       0.4555   0.7316  0.11633     C
C       0.4555   0.7684  0.61633     C
C       0.4582   0.7446    0.883     C
C       0.4582   0.7554    0.383     C
O       0.4584  0.61879  0.03194     O
O       0.4584  0.88121  0.53194     O
H       0.4603   0.6438    0.919     H
H       0.4603   0.8562    0.419     H
C       0.4619   0.6951  0.92432     C
C       0.4619   0.8049  0.42432     C
H       0.4637   0.6474   0.3627     H
C       0.4637   0.6794   0.3911     C
C       0.4637   0.8206   0.8911     C
H       0.4637   0.8526   0.8627     H
C       0.4656   0.6869  0.02467     C
C       0.4656   0.8131  0.52467     C
C       0.4679    0.725  0.97406     C
C       0.4679    0.775  0.47406     C
C       0.4693   0.6502  0.44043     C
C       0.4693   0.8498  0.94043     C
C         0.47   0.6835   0.5392     C
C         0.47   0.8165   0.0392     C
N       0.4706  0.74119   0.0619     N
N       0.4706  0.75881   0.5619     N
C        0.471    0.699  0.48206     C
C        0.471    0.801  0.98206     C
H       0.4717   0.5989   0.4457     H
H       0.4717   0.9011   0.9457     H
C       0.4718   0.6617  0.13994     C
C       0.4718   0.8383  0.63994     C
H       0.4952   0.1202   0.3798     H
H       0.4952   0.3798   0.8798     H
H       0.4955   0.0163   0.8784     H
H       0.4955   0.4837   0.3784     H
O       0.4999   0.5235  0.18936     O
O       0.4999   0.9765  0.68936     O
O       0.5001   0.0235  0.31064     O
O       0.5001   0.4765  0.81064     O
H       0.5045   0.5163   0.6216     H
H       0.5045   0.9837   0.1216     H
H       0.5048   0.6202   0.1202     H
H       0.5048   0.8798   0.6202     H
C       0.5282   0.1617  0.36006     C
C       0.5282   0.3383  0.86006     C
H       0.5283   0.0989   0.0543     H
H       0.5283   0.4011   0.5543     H
C        0.529    0.199  0.01794     C
C        0.529    0.301  0.51794     C
N       0.5294  0.24119   0.4381     N
N       0.5294  0.25881   0.9381     N
C         0.53   0.1835   0.9608     C
C         0.53   0.3165   0.4608     C
C       0.5307   0.1502  0.05957     C
C       0.5307   0.3498  0.55957     C
C       0.5321    0.225  0.52594     C
C       0.5321    0.275  0.02594     C
C       0.5344   0.1869  0.47533     C
C       0.5344   0.3131  0.97533     C
H       0.5363   0.1474   0.1373     H
C       0.5363   0.1794   0.1089     C
C       0.5363   0.3206   0.6089     C
H       0.5363   0.3526   0.6373     H
C       0.5381   0.1951  0.57568     C
C       0.5381   0.3049  0.07568     C
H       0.5397   0.1438    0.581     H
H       0.5397   0.3562    0.081     H
O       0.5416  0.11879  0.46806     O
O       0.5416  0.38121  0.96806     O
C       0.5418   0.2446    0.617     C
C       0.5418   0.2554    0.117     C
C       0.5445   0.2316  0.38367     C
C       0.5445   0.2684  0.88367     C
H        0.548   0.2263   0.6507     H
H        0.548   0.2737   0.1507     H
C       0.5529   0.0779  0.28311     C
C       0.5529   0.4221  0.78311     C
C        0.561    0.154  0.30725     C
C        0.561    0.346  0.80725     C
C       0.5772   0.2064   0.8525     C
C       0.5772   0.2936   0.3525     C
H       0.5803   0.1591   0.8674     H
H       0.5803   0.3409   0.3674     H
H       0.5844   0.6555   0.5495     H
H       0.5844   0.8445   0.0495     H
C       0.6023   0.2158  0.27694     C
C       0.6023   0.2842  0.77694     C
C       0.6053    0.214  0.79965     C
C       0.6053    0.286  0.29965     C
O       0.6071  0.07329  0.23659     O
O       0.6071  0.42671  0.73659     O
O        0.618  0.08176  0.78726     O
O        0.618  0.41824  0.28726     O
O       0.6248   0.5291  0.62418     O
O       0.6248   0.9709  0.12418     O
H       0.6278   0.2103   0.2417     H
H       0.6278   0.2897   0.7417     H
C       0.6437    0.146  0.76755     C
C       0.6437    0.354  0.26755     C
H       0.6453    0.156   0.9507     H
H       0.6453    0.344   0.4507     H
H       0.6945   0.0035   0.1081     H
H       0.6945   0.4965   0.6081     H
O        0.704  0.15402  0.72192     O
O        0.704  0.34598  0.22192     O
Cd     0.70878 0.534429 0.708174    Cd
Cd     0.70878 0.965571 0.208174    Cd
Cd     0.79122 0.034429 0.708174    Cd
Cd     0.79122 0.465571 0.208174    Cd
O        0.796  0.65402  0.72192     O
O        0.796  0.84598  0.22192     O
H       0.8055   0.5035   0.1081     H
H       0.8055   0.9965   0.6081     H
H       0.8547    0.656   0.9507     H
H       0.8547    0.844   0.4507     H
C       0.8563    0.646  0.76755     C
C       0.8563    0.854  0.26755     C
H       0.8722   0.7103   0.2417     H
H       0.8722   0.7897   0.7417     H
O       0.8752   0.0291  0.62418     O
O       0.8752   0.4709  0.12418     O
O        0.882  0.58176  0.78726     O
O        0.882  0.91824  0.28726     O
O       0.8929  0.57329  0.23659     O
O       0.8929  0.92671  0.73659     O
C       0.8947    0.714  0.79965     C
C       0.8947    0.786  0.29965     C
C       0.8977   0.7158  0.27694     C
C       0.8977   0.7842  0.77694     C
H       0.9156   0.1555   0.5495     H
H       0.9156   0.3445   0.0495     H
H       0.9197   0.6591   0.8674     H
H       0.9197   0.8409   0.3674     H
C       0.9228   0.7064   0.8525     C
C       0.9228   0.7936   0.3525     C
C        0.939    0.654  0.30725     C
C        0.939    0.846  0.80725     C
C       0.9471   0.5779  0.28311     C
C       0.9471   0.9221  0.78311     C
H        0.952   0.7263   0.6507     H
H        0.952   0.7737   0.1507     H
C       0.9555   0.7316  0.38367     C
C       0.9555   0.7684  0.88367     C
C       0.9582   0.7446    0.617     C
C       0.9582   0.7554    0.117     C
O       0.9584  0.61879  0.46806     O
O       0.9584  0.88121  0.96806     O
H       0.9603   0.6438    0.581     H
H       0.9603   0.8562    0.081     H
C       0.9619   0.6951  0.57568     C
C       0.9619   0.8049  0.07568     C
H       0.9637   0.6474   0.1373     H
C       0.9637   0.6794   0.1089     C
C       0.9637   0.8206   0.6089     C
H       0.9637   0.8526   0.6373     H
C       0.9656   0.6869  0.47533     C
C       0.9656   0.8131  0.97533     C
C       0.9679    0.725  0.52594     C
C       0.9679    0.775  0.02594     C
C       0.9693   0.6502  0.05957     C
C       0.9693   0.8498  0.55957     C
C         0.97   0.6835   0.9608     C
C         0.97   0.8165   0.4608     C
N       0.9706  0.74119   0.4381     N
N       0.9706  0.75881   0.9381     N
C        0.971    0.699  0.01794     C
C        0.971    0.801  0.51794     C
H       0.9717   0.5989   0.0543     H
H       0.9717   0.9011   0.5543     H
C       0.9718   0.6617  0.36006     C
C       0.9718   0.8383  0.86006     C
H       0.9952   0.1202   0.1202     H
H       0.9952   0.3798   0.6202     H
H       0.9955   0.0163   0.6216     H
H       0.9955   0.4837   0.1216     H
O       0.9999   0.5235  0.31064     O
O       0.9999   0.9765  0.81064     O
