data_I
_chemical_name_common  '/Users/gianmarcoterrones/Research/MOFs/MOF_structures/water_stability_work_extra_structs/cleaned_from_CCDC/EPOMUT'
_cell_length_a 14.01900
_cell_length_b 16.16454
_cell_length_c 16.16454
_cell_angle_alpha 79.16166
_cell_angle_beta  64.30158
_cell_angle_gamma 64.30158
_space_group_name_H-M_alt      'P 1'


loop_
_space_group_symop_operation_xyz
  'x, y, z' 

loop_
_atom_site_label
_atom_site_fract_x
_atom_site_fract_y
_atom_site_fract_z
_atom_site_type_symbol
Br     0.01179  0.11321  0.61321    Br
C        0.019   0.8884   0.8634     C
N       0.0227   0.6797   0.6271     N
H        0.023    0.259   0.2164     H
C       0.0309   0.1723   0.8361     C
H        0.032   0.7164    0.241     H
N        0.037   0.4233   0.6199     N
C        0.039   0.2782   0.2578     C
C       0.0393   0.8277   0.1639     C
C       0.0468   0.2422   0.7782     C
Br     0.05962  0.56538  0.06538    Br
C       0.0672   0.7578   0.2218     C
H       0.0749   0.9366   0.0968     H
N       0.0802   0.5767   0.3801     N
C       0.0926   0.8884   0.1366     C
C       0.0946   0.3293   0.3747     C
C       0.0996   0.6189   0.5841     C
C       0.1002   0.7502   0.7488     C
C       0.1031   0.0219   0.5219     C
C       0.1079   0.4491   0.5801     C
H       0.1083   0.0634   0.9032     H
H       0.1126   0.9131   0.6065     H
H       0.1131   0.3469   0.4155     H
C       0.1176   0.1116   0.8634     C
H       0.1178   0.1065   0.4131     H
H       0.1289   0.7021   0.7095     H
C        0.133   0.8277   0.8361     C
C       0.1357   0.9312   0.5454     C
C       0.1371   0.5509   0.4199     C
C       0.1377   0.0454   0.4312     C
H       0.1445   0.3692   0.0578     H
C       0.1496   0.7502   0.2512     C
C       0.1508   0.2488   0.2502     C
C        0.151   0.2498   0.7488     C
C        0.151    0.474    0.974     C
H       0.1616   0.2979   0.7095     H
H        0.169   0.7021   0.2905     H
C       0.1737   0.3862   0.9966     C
C       0.1739   0.8747   0.1707     C
C        0.175   0.7578   0.7782     C
H       0.1785   0.5578   0.8692     H
N       0.1799   0.2727   0.3067     N
C       0.1935   0.4966   0.8862     C
N       0.2026   0.8067   0.2273     N
C       0.2035   0.9753   0.3671     C
C       0.2041   0.8671   0.4753     C
H       0.2095   0.2095   0.2021     H
H         0.21   0.9155   0.1531     H
N       0.2103   0.1199   0.0767     N
C       0.2193   0.1253   0.8293     C
H        0.225   0.9918   0.3054     H
H       0.2278   0.8054   0.4918     H
Br     0.23052   0.8427  0.87896    Br
N       0.2366   0.1933   0.7727     N
N       0.2383   0.8867   0.3867     N
C       0.2416   0.3196   0.9278     C
Nb        0.25      0.5      0.5    Nb
H       0.2516   0.7164    0.759     H
H       0.2569   0.2584   0.9446     H
C        0.261   0.4278   0.8196     C
H       0.2637   0.5578   0.1308     H
H       0.2653   0.4446   0.2416     H
H       0.2786   0.0845   0.8469     H
H       0.2804   0.1946   0.4918     H
H       0.2809   0.0869   0.6065     H
C       0.2815   0.6189   0.4159     C
N       0.2856   0.3394   0.8394     N
H       0.2901   0.4446   0.7584     H
N       0.2976   0.6797   0.3729     N
C       0.3026   0.3811   0.4159     C
C        0.307   0.0801   0.0509     C
C       0.3099   0.4966   0.1138     C
C       0.3112   0.4278   0.1804     C
C        0.312   0.5509   0.5801     C
C       0.3163   0.3811   0.5841     C
C       0.3189   0.0688   0.5454     C
C       0.3206   0.1329   0.4753     C
N       0.3295   0.3203   0.3729     N
N       0.3431   0.5767   0.6199     N
N       0.3502   0.3203   0.6271     N
Mn     0.35152  0.77348  0.27348    Mn
N        0.375   0.1133   0.3867     N
Mn       0.375  0.22652  0.27348    Mn
N        0.375   0.3394   0.1606     N
C        0.375    0.474    0.026     C
Br       0.375  0.56538  0.93462    Br
Br       0.375  0.88679  0.61321    Br
C        0.375   0.9781   0.5219     C
Mn     0.39848  0.22652  0.72652    Mn
N       0.3998   0.8729   0.1797     N
N       0.4069   0.8801   0.9233     N
N       0.4205   0.1271   0.1797     N
C       0.4294   0.0247   0.3671     C
C       0.4311   0.9546   0.4312     C
C       0.4337   0.9159   0.1189     C
C        0.438   0.9199   0.9491     C
C       0.4388   0.3196   0.0722     C
C       0.4401   0.3862   0.0034     C
C        0.443   0.4491   0.4199     C
C       0.4474   0.0841   0.1189     C
N       0.4524   0.1271   0.8203     N
H       0.4599   0.7416   0.0554     H
N       0.4644   0.6606   0.1606     N
C       0.4685   0.0841   0.8811     C
H       0.4691   0.8935   0.4131     H
H       0.4696   0.0082   0.3054     H
H       0.4714   0.6531   0.4155     H
H       0.4847   0.2584   0.0554     H
H       0.4863   0.3692   0.9422     H
C        0.489   0.6804   0.0722     C
H       0.4931   0.5554   0.2416     H
H       0.4984    0.741   0.7836     H
Nb         0.5      0.0      0.0    Nb
C       0.5084   0.5722   0.1804     C
N       0.5117   0.1133   0.6133     N
N       0.5134   0.7273   0.3067     N
Br     0.51948  0.62104   0.6573    Br
H       0.5222   0.0082   0.6946     H
H        0.525   0.1946   0.5082     H
C       0.5307   0.6707   0.3747     C
N       0.5397   0.4233   0.3801     N
H         0.54   0.3469   0.5845     H
H       0.5405   0.2979   0.2905     H
C       0.5459   0.0247   0.6329     C
C       0.5465   0.1329   0.5247     C
N       0.5474   0.2727   0.6933     N
C       0.5565   0.6138   0.0034     C
N       0.5701   0.1933   0.2273     N
H       0.5715   0.6308   0.9422     H
C        0.575   0.7218   0.7422     C
C       0.5761   0.3293   0.6253     C
C       0.5763   0.5034   0.1138     C
H        0.581   0.2095   0.7979     H
H       0.5884   0.7905   0.2021     H
C        0.599    0.526    0.026     C
C        0.599   0.7512   0.2502     C
C       0.5992   0.2498   0.2512     C
C       0.6004   0.2488   0.7498     C
H       0.6055   0.4422   0.1308     H
C       0.6123   0.0688   0.4546     C
C       0.6129   0.0801   0.9491     C
C       0.6143   0.9546   0.5688     C
C        0.617   0.6639   0.6723     C
H       0.6211   0.7905   0.7979     H
H       0.6322   0.0869   0.3935     H
C       0.6324   0.6366   0.3884     C
H       0.6369   0.0845   0.1531     H
H       0.6374   0.8935   0.5869     H
H       0.6417   0.5968   0.4366     H
C       0.6421   0.9199   0.0509     C
C       0.6469   0.9781   0.4781     C
C       0.6498   0.7512   0.7498     C
C       0.6504   0.9159   0.8811     C
C       0.6554   0.1253   0.1707     C
C       0.6574   0.3634   0.6116     C
N       0.6698   0.1199   0.9233     N
H       0.6751   0.4032   0.5634     H
C       0.6828   0.2782   0.7422     C
Br     0.69038  0.43462  0.93462    Br
C       0.7032   0.7218   0.2578     C
C       0.7107   0.3361   0.6723     C
C        0.711   0.2422   0.2218     C
N        0.713   0.8801   0.0767     N
H        0.718    0.259   0.7836     H
C       0.7191   0.6639   0.3277     C
H        0.727   0.2836    0.241     H
N       0.7273   0.8729   0.8203     N
C        0.731   0.6366   0.6116     C
Br     0.73821  0.88679  0.38679    Br
N       0.7593   0.7273   0.6933     N
H       0.7606    0.741   0.2164     H
H       0.7615   0.5968   0.5634     H
C       0.7708   0.1116   0.1366     C
H       0.7757   0.1065   0.5869     H
H       0.7832   0.9918   0.6946     H
C       0.7968   0.1723   0.1639     C
H       0.7977   0.6308   0.0578     H
Br     0.79782  0.37896   0.3427    Br
H       0.7985   0.7416   0.9446     H
C       0.7986   0.6707   0.6253     C
C       0.8169   0.0454   0.5688     C
C       0.8212   0.9753   0.6329     C
Br     0.82322  0.37896   0.6573    Br
H       0.8283   0.0634   0.0968     H
C       0.8297   0.6138   0.9966     C
C       0.8306   0.6804   0.9278     C
Br     0.85948  0.62104   0.3427    Br
H       0.8745   0.9155   0.8469     H
C        0.875   0.0219   0.4781     C
Br       0.875  0.11321  0.38679    Br
Br       0.875  0.43462  0.06538    Br
C        0.875    0.526    0.974     C
N        0.875   0.6606   0.8394     N
Mn       0.875  0.77348  0.72652    Mn
N        0.875   0.8867   0.6133     N
H       0.8755   0.6531   0.5845     H
Br     0.89052   0.1573  0.87896    Br
C       0.9194   0.5722   0.8196     C
C       0.9203   0.5034   0.8862     C
H       0.9217   0.4032   0.4366     H
Br     0.92678   0.8427  0.12104    Br
C       0.9288   0.8671   0.5247     C
C       0.9331   0.9312   0.4546     C
C       0.9514   0.8747   0.8293     C
H       0.9515   0.5554   0.7584     H
Br     0.95218   0.1573  0.12104    Br
H       0.9523   0.4422   0.8692     H
C       0.9532   0.3361   0.3277     C
H       0.9668   0.8054   0.5082     H
H       0.9743   0.9131   0.3935     H
C       0.9792   0.3634   0.3884     C
H       0.9885   0.9366   0.9032     H
H       0.9894   0.2836    0.759     H
N       0.9907   0.8067   0.7727     N
