data_I
_chemical_name_common  '/Users/gianmarcoterrones/Research/MOFs/MOF_structures/water_stability_work_extra_structs/cleaned_from_CCDC/EPONOO'
_cell_length_a 13.93020
_cell_length_b 15.09755
_cell_length_c 16.84119
_cell_angle_alpha 79.00060
_cell_angle_beta  65.57038
_cell_angle_gamma 62.52640
_space_group_name_H-M_alt      'P 1'


loop_
_space_group_symop_operation_xyz
  'x, y, z' 

loop_
_atom_site_label
_atom_site_fract_x
_atom_site_fract_y
_atom_site_fract_z
_atom_site_type_symbol
Ni         0.0      0.0      0.0    Ni
Ni         0.0      0.0      0.5    Ni
N      0.01285  0.88248  0.09822     N
C       0.0265     0.73   0.2198     C
N      0.03151   0.6248  0.67238     N
Br      0.0349   0.6251  0.30274    Br
C       0.0403   0.1734   0.7532     C
N      0.04322   0.9012  0.91236     N
N      0.04442   0.5988  0.91236     N
C       0.0452   0.0988   0.8168     C
N      0.05558   0.9012  0.58764     N
C      0.06265  0.66786  0.69764     C
C      0.06988  0.84832  0.85912     C
C        0.071  0.65168  0.85912     C
C      0.07185  0.16786  0.19764     C
C      0.07869   0.7862  0.07522     C
H       0.0816   0.1574   0.6942     H
C       0.0818  0.84832  0.64088     C
C       0.0871    0.709   0.1336     C
H       0.0914   0.0326   0.7988     H
H       0.0959    0.401   0.1496     H
N      0.10467  0.88248  0.40178     N
H       0.1078   0.7712   0.4838     H
H       0.1098   0.4674   0.7988     H
N      0.11107  0.38248  0.90178     N
H        0.121   0.7712   0.0162     H
H        0.124   0.9674   0.2988     H
Nb       0.125     0.75     0.75    Nb
H       0.1317   0.4726   0.5438     H
H       0.1336   0.6432   0.1144     H
C      0.13511   0.7862  0.42478     C
H       0.1372   0.2712   0.9838     H
C        0.138   0.4012   0.8168     C
N      0.14288  0.04064   0.4654     N
C        0.144   0.9012   0.3168     C
Br      0.1457  0.38226  0.39808    Br
H       0.1465    0.099   0.3504     H
N      0.14892  0.45936   0.0346     N
C      0.15391   0.2862  0.92478     C
C      0.15703   0.4156  0.11014     C
H        0.162   0.0094    0.073     H
N      0.17131   0.1248  0.17238     N
H       0.1714   0.9906    0.573     H
C      0.18277   0.0844  0.38986     C
N      0.18352  0.95936   0.9654     N
C      0.19744    0.021  0.52012     C
C       0.2039    0.709   0.3664     C
C       0.2065   0.3266   0.7532     C
C      0.20709   0.4574  0.50342     C
C       0.2137   0.8266   0.2532     C
C      0.21844    0.979  0.02012     C
C       0.2207    0.209   0.8664     C
H       0.2232   0.6432   0.3856     H
H       0.2242   0.3426   0.6942     H
H        0.235   0.5094    0.927     H
C      0.23856    0.479  0.97988     C
H        0.239   0.8426   0.1942     H
C      0.23971  0.83214  0.69764     C
C       0.2435     0.73   0.2802     C
H       0.2455    0.901   0.8504     H
C      0.24623  0.41244   0.4255     C
C       0.2463     0.23   0.7802     C
H        0.248   0.1432   0.8856     H
C      0.25082   0.3914  0.13256     C
H       0.2528   0.3614   0.1858     H
H       0.2556   0.5094    0.573     H
C      0.26717   0.9156  0.88986     C
C      0.26949  0.66786  0.80236     C
C      0.27478   0.1086  0.36744     C
C      0.27732  0.65168  0.64088     C
C      0.28244    0.479  0.52012     C
C      0.28949   0.0426  0.50342     C
N      0.29611   0.8752  0.67238     N
H          0.3   0.1386   0.3142     H
H       0.3245   0.0274   0.5438     H
C      0.32827  0.08756   0.4255     C
C      0.33209   0.9574  0.00342     C
C      0.33551   0.4574  0.99658     C
Br     0.33764   0.1251  0.69726    Br
Br        0.34   0.6251  0.19726    Br
C      0.34133  0.41244   0.0745     C
N      0.34369   0.6248  0.82762     N
H       0.3519   0.9726   0.0438     H
N      0.35678   0.5988  0.58764     N
C      0.35778   0.3914  0.36744     C
C      0.38338   0.8914  0.86744     C
H       0.3858   0.3614   0.3142     H
H       0.3912   0.8568   0.3856     H
N      0.39172  0.45936   0.4654     N
H       0.3957   0.4726   0.9562     H
H       0.4084   0.7288   0.4838     H
C      0.41583  0.91244   0.9255     C
H       0.4228   0.4674   0.7012     H
Br     0.42604  0.11774  0.10192    Br
C      0.42737   0.4156  0.38986     C
C       0.4297    0.791   0.3664     C
H       0.4332   0.3426   0.8058     H
H       0.4386   0.8614   0.8142     H
C      0.44011   0.7138  0.42478     C
Br     0.45622  0.11774  0.39808    Br
C       0.4608   0.4012   0.6832     C
Br     0.46274   0.8749  0.19726    Br
C       0.4669   0.3266   0.7468     C
Br     0.47204  0.38226  0.10192    Br
C       0.4763     0.77   0.2802     C
N      0.49355  0.61752  0.40178     N
H       0.4969    0.599   0.6496     H
Ni         0.5      0.5      0.5    Ni
H       0.5031    0.401   0.3504     H
N      0.50645  0.38248  0.59822     N
C       0.5237     0.23   0.7198     C
Br     0.52796  0.61774  0.89808    Br
C       0.5331   0.6734   0.2532     C
Br     0.53726   0.1251  0.80274    Br
C       0.5392   0.5988   0.3168     C
Br     0.54378  0.88226  0.60192    Br
C      0.55989   0.2862  0.57522     C
H       0.5614   0.1386   0.1858     H
H       0.5668   0.6574   0.1942     H
C       0.5703    0.209   0.6336     C
C      0.57263   0.5844  0.61014     C
Br     0.57396  0.88226  0.89808    Br
H       0.5772   0.5326   0.2988     H
C      0.58417  0.08756   0.0745     C
H       0.5916   0.2712   0.5162     H
H       0.6043   0.5274   0.0438     H
N      0.60828  0.54064   0.5346     N
H       0.6088   0.1432   0.6144     H
H       0.6142   0.6386   0.6858     H
C      0.61662   0.1086  0.13256     C
C      0.64222   0.6086  0.63256     C
N      0.64322   0.4012  0.41236     N
H       0.6481   0.0274   0.9562     H
N      0.65631   0.3752  0.17238     N
C      0.65867  0.58756   0.9255     C
Br        0.66   0.3749  0.80274    Br
Br     0.66236   0.8749  0.30274    Br
C      0.66449   0.5426  0.00342     C
C      0.66791   0.0426  0.99658     C
C      0.67173  0.91244   0.5745     C
H       0.6755   0.9726   0.4562     H
H          0.7   0.8614   0.6858     H
N      0.70389   0.1248  0.32762     N
C      0.71051   0.9574  0.49658     C
C      0.71756    0.521  0.47988     C
C      0.72268  0.34832  0.35912     C
C      0.72522   0.8914  0.63256     C
C      0.73051  0.33214  0.19764     C
C      0.73283   0.0844  0.11014     C
H       0.7444   0.4906    0.427     H
H       0.7472   0.6386   0.8142     H
C      0.74918   0.6086  0.86744     C
H        0.752   0.8568   0.1144     H
C       0.7537     0.77   0.2198     C
C      0.75377  0.58756   0.5745     C
H       0.7545    0.099   0.1496     H
C       0.7565     0.27   0.7198     C
C      0.76029  0.16786  0.30236     C
H        0.761   0.1574   0.8058     H
C      0.76144    0.521  0.02012     C
H        0.765   0.4906    0.073     H
H       0.7758   0.6574   0.3058     H
H       0.7768   0.3568   0.6144     H
C       0.7793    0.791   0.1336     C
C      0.78156    0.021  0.97988     C
C       0.7863   0.1734   0.7468     C
C      0.79291   0.5426  0.49658     C
C       0.7935   0.6734   0.2468     C
C       0.7961    0.291   0.6336     C
C      0.80256    0.979  0.47988     C
N      0.81648  0.04064   0.0346     N
C      0.81723   0.9156  0.61014     C
H       0.8286   0.0094    0.427     H
N      0.82869   0.8752  0.82762     N
H        0.838   0.9906    0.927     H
C      0.84297   0.5844  0.88986     C
C      0.84609   0.7138  0.07522     C
N      0.85108  0.54064   0.9654     N
H       0.8535    0.901   0.6496     H
Br      0.8543  0.61774  0.60192    Br
C        0.856   0.0988   0.6832     C
N      0.85712  0.95936   0.5346     N
C        0.862   0.5988   0.1832     C
H       0.8628   0.7288   0.0162     H
C      0.86489   0.2138  0.57522     C
H       0.8664   0.3568   0.8856     H
H       0.8683   0.5274   0.4562     H
Nb       0.875     0.25     0.25    Nb
H        0.876   0.0326   0.7012     H
H        0.879   0.2288   0.9838     H
N      0.88893  0.61752  0.09822     N
H       0.8902   0.5326   0.2012     H
H       0.8922   0.2288   0.5162     H
N      0.89533  0.11752  0.59822     N
H       0.9041    0.599   0.8504     H
H       0.9086   0.9674   0.2012     H
C       0.9129    0.291   0.8664     C
C       0.9182  0.15168  0.35912     C
H       0.9184   0.8426   0.3058     H
C      0.92131   0.2138  0.92478     C
C      0.92815  0.83214  0.80236     C
C        0.929  0.34832  0.14088     C
C      0.93012  0.15168  0.14088     C
C      0.93735  0.33214  0.30236     C
N      0.94442   0.0988  0.41236     N
C       0.9548   0.9012   0.1832     C
N      0.95558   0.4012  0.08764     N
N      0.95678   0.0988  0.08764     N
C       0.9597   0.8266   0.2468     C
Br      0.9651   0.3749  0.69726    Br
N      0.96849   0.3752  0.32762     N
C       0.9735     0.27   0.7802     C
N      0.98715  0.11752  0.90178     N
Ni         1.0      0.5      0.0    Ni
