data_I
_chemical_name_common  '/Users/gianmarcoterrones/Research/MOFs/MOF_structures/water_stability_work_extra_structs/cleaned_from_CCDC/EPONII'
_cell_length_a 14.02200
_cell_length_b 16.17654
_cell_length_c 16.17654
_cell_angle_alpha 79.17323
_cell_angle_beta  64.31612
_cell_angle_gamma 64.31612
_space_group_name_H-M_alt      'P 1'


loop_
_space_group_symop_operation_xyz
  'x, y, z' 

loop_
_atom_site_label
_atom_site_fract_x
_atom_site_fract_y
_atom_site_fract_z
_atom_site_type_symbol
Br     0.01164  0.61336  0.11336    Br
C       0.0195   0.8627   0.8883     C
H        0.023    0.215   0.2608     H
N      0.02322  0.62668  0.67948     N
C       0.0303   0.8363   0.1717     C
H       0.0338   0.2392    0.715     H
N       0.0364   0.6207   0.4237     N
C       0.0383   0.1637   0.8283     C
C       0.0389   0.2573   0.2789     C
C       0.0462   0.7789   0.2427     C
Br     0.05984  0.06516  0.56516    Br
C       0.0678   0.2211   0.7573     C
H       0.0744   0.0978   0.9368     H
N       0.0808   0.3793   0.5763     N
C       0.0922   0.1373   0.8883     C
C       0.0934   0.3752   0.3294     C
C       0.0997   0.5839   0.6185     C
C       0.1015   0.7484   0.7498     C
C        0.103    0.522    0.022     C
C       0.1082   0.5798   0.4492     C
H        0.109   0.9022   0.0632     H
H       0.1111   0.4165   0.3469     H
H       0.1131   0.4147   0.1077     H
H       0.1145   0.6077   0.9147     H
C       0.1178   0.8627   0.1117     C
H       0.1311   0.7078   0.7026     H
C       0.1334   0.8363   0.8283     C
C       0.1355   0.4324   0.0464     C
C       0.1357   0.5464   0.9324     C
C       0.1372   0.4202   0.5508     C
H       0.1474   0.0573   0.3685     H
C       0.1487   0.2516   0.7498     C
C       0.1501   0.7484   0.2502     C
C       0.1503   0.2498   0.2484     C
C       0.1504   0.9746   0.4746     C
H       0.1611   0.7078   0.2974     H
H       0.1663   0.2922   0.7026     H
C       0.1728   0.1706   0.8752     C
C       0.1749   0.7789   0.7573     C
C       0.1754    0.996   0.3856     C
H       0.1768   0.8685   0.5573     H
N      0.18069  0.30611  0.27311     N
C        0.193   0.8856    0.496     C
C       0.2024    0.476    0.868     C
C       0.2036    0.368    0.976     C
N       0.2038  0.22689  0.80611     N
H        0.208   0.1531   0.9165     H
H       0.2085   0.2026   0.2078     H
N       0.2101   0.0763   0.1207     N
C       0.2186   0.8294   0.1248     C
H       0.2241   0.4925   0.8063     H
H       0.2271   0.3063   0.9925     H
Br     0.23065  0.87909  0.84261    Br
N       0.2368  0.77311  0.19389     N
N       0.2374   0.3876   0.8876     N
C       0.2427   0.9282   0.3182     C
Nb        0.25      0.5      0.5    Nb
H       0.2512   0.7608    0.715     H
H       0.2584   0.9448    0.257     H
C       0.2609   0.8182   0.4282     C
H       0.2654    0.243   0.4448     H
H       0.2659   0.1315   0.5573     H
H       0.2776   0.8469   0.0835     H
H       0.2778   0.6077   0.0853     H
C       0.2818   0.4161   0.6185     C
H       0.2834   0.4925   0.1937     H
N       0.2853   0.8397   0.3397     N
H       0.2898    0.757   0.4448     H
N       0.2973  0.37332  0.67948     N
C       0.3021   0.4161   0.3815     C
C       0.3074   0.0508   0.0798     C
C       0.3109   0.1818   0.4282     C
C        0.311   0.1144    0.496     C
C        0.312   0.5798   0.5508     C
C       0.3164   0.5839   0.3815     C
C       0.3179   0.5464   0.0676     C
C       0.3216    0.476    0.132     C
N      0.32938  0.37332  0.32052     N
N       0.3429   0.6207   0.5763     N
N       0.3501  0.62668  0.32052     N
Mn     0.35142  0.27358  0.77358    Mn
C        0.375   0.0254   0.4746     C
N        0.375   0.1603   0.3397     N
Mn       0.375  0.27358  0.22642    Mn
N        0.375   0.3876   0.1124     N
C        0.375    0.522    0.978     C
Br       0.375  0.61336  0.88664    Br
Br       0.375  0.93484  0.56516    Br
Mn     0.39858  0.72642  0.22642    Mn
N       0.3999  0.17948  0.87332     N
N       0.4071   0.9237   0.8793     N
N      0.42062  0.17948  0.12668     N
C       0.4284    0.368    0.024     C
C       0.4321   0.4324   0.9536     C
C       0.4336   0.1185   0.9161     C
C        0.438   0.9492   0.9202     C
C        0.439    0.004   0.3856     C
C       0.4391   0.0718   0.3182     C
C       0.4426   0.4202   0.4492     C
C       0.4479   0.1185   0.0839     C
N       0.4527  0.82052  0.12668     N
H       0.4602   0.0552    0.743     H
N       0.4647   0.1603   0.6603     N
H       0.4666   0.3063   0.0075     H
C       0.4682   0.8815   0.0839     C
H       0.4722   0.4147   0.8923     H
H       0.4724   0.4165   0.6531     H
H       0.4841   0.9427   0.3685     H
H       0.4846   0.0552    0.257     H
C       0.4891   0.0718   0.6818     C
H       0.4916    0.243   0.5552     H
H       0.4988    0.785   0.7392     H
Nb         0.5      0.0      0.0    Nb
C       0.5073   0.1818   0.5718     C
N       0.5126   0.6124   0.1124     N
N       0.5132  0.30611  0.72689     N
Br     0.51935  0.65739  0.62091    Br
H       0.5229   0.5075   0.1937     H
H       0.5259   0.6937   0.0075     H
C       0.5314   0.3752   0.6706     C
N       0.5399   0.3793   0.4237     N
H       0.5415   0.2922   0.2974     H
H        0.542   0.5835   0.3469     H
N       0.5462  0.69389  0.27311     N
C       0.5464    0.524    0.132     C
C       0.5476    0.632    0.024     C
C        0.557    0.004   0.6144     C
N      0.56931  0.22689  0.19389     N
H       0.5732   0.9427   0.6315     H
C       0.5746   0.1144    0.504     C
C       0.5751   0.7427   0.7211     C
C       0.5772   0.6248   0.3294     C
H       0.5837   0.7974   0.2078     H
H       0.5889   0.2026   0.7922     H
C       0.5996   0.0254   0.5254     C
C       0.5997   0.2516   0.2502     C
C       0.5999   0.2498   0.7516     C
C       0.6013   0.7502   0.2484     C
H       0.6026   0.1315   0.4427     H
C       0.6128   0.9492   0.0798     C
C       0.6143   0.5676   0.9536     C
C       0.6145   0.4536   0.0676     C
C       0.6166   0.6717   0.6637     C
H       0.6189   0.7974   0.7922     H
C       0.6322   0.3883   0.6373     C
H       0.6355   0.5853   0.8923     H
H       0.6369   0.3923   0.0853     H
H       0.6389   0.1531   0.0835     H
H        0.641   0.4368   0.5978     H
C       0.6418   0.0508   0.9202     C
C        0.647    0.478    0.978     C
C       0.6485   0.7502   0.7516     C
C       0.6503   0.8815   0.9161     C
C       0.6566   0.1706   0.1248     C
C       0.6578   0.6117   0.3627     C
N       0.6692   0.9237   0.1207     N
H       0.6756   0.5632   0.4022     H
C       0.6822   0.7427   0.2789     C
Br     0.69016  0.93484  0.43484    Br
C       0.7038   0.2573   0.7211     C
C       0.7111   0.2211   0.2427     C
C       0.7117   0.6717   0.3363     C
N       0.7136   0.0763   0.8793     N
H       0.7162    0.785   0.2608     H
C       0.7197   0.3283   0.6637     C
N      0.72678  0.82052  0.87332     N
H        0.727   0.2392    0.285     H
C       0.7305   0.6117   0.6373     C
Br     0.73836  0.38664  0.88664    Br
N      0.75991  0.69389  0.72689     N
H       0.7612   0.5632   0.5978     H
H        0.762    0.215   0.7392     H
C       0.7705   0.1373   0.1117     C
H       0.7792   0.5853   0.1077     H
H       0.7804   0.6937   0.9925     H
H       0.7953   0.0573   0.6315     H
H       0.7968   0.9448    0.743     H
Br     0.79765  0.34261  0.37909    Br
C        0.798   0.1637   0.1717     C
C        0.798   0.6248   0.6706     C
C       0.8181   0.5676   0.0464     C
C       0.8204    0.632    0.976     C
Br     0.82326  0.65739  0.37909    Br
H       0.8278   0.0978   0.0632     H
C       0.8286    0.996   0.6144     C
C       0.8291   0.9282   0.6818     C
Br     0.85974  0.34261  0.62091    Br
H       0.8745   0.5835   0.6531     H
Br       0.875  0.06516  0.43484    Br
Br       0.875  0.38664  0.11336    Br
C        0.875    0.478    0.022     C
N        0.875   0.6124   0.8876     N
Mn       0.875  0.72642  0.77358    Mn
N        0.875   0.8397   0.6603     N
C        0.875   0.9746   0.5254     C
H       0.8755   0.8469   0.9165     H
Br     0.89026  0.87909  0.15739    Br
C       0.9209   0.8182   0.5718     C
C       0.9214   0.8856    0.504     C
H       0.9222   0.4368   0.4022     H
Br     0.92674  0.12091  0.84261    Br
C       0.9296    0.524    0.868     C
C       0.9319   0.4536   0.9324     C
C        0.952   0.3283   0.3363     C
C        0.952   0.8294   0.8752     C
Br     0.95235  0.12091  0.15739    Br
H       0.9532    0.757   0.5552     H
H       0.9547   0.8685   0.4427     H
H       0.9696   0.5075   0.8063     H
H       0.9708   0.3923   0.9147     H
C       0.9795   0.3883   0.3627     C
H        0.988   0.7608    0.285     H
H       0.9888   0.9022   0.9368     H
N      0.99009  0.77311  0.80611     N
