data_I
_chemical_name_common  '/Users/gianmarcoterrones/Research/MOFs/MOF_structures/water_stability_work_extra_structs/cleaned_from_CCDC/ERIHOC'
_cell_length_a  9.63550
_cell_length_b 12.13100
_cell_length_c 19.07900
_cell_angle_alpha 90.00000
_cell_angle_beta  90.00000
_cell_angle_gamma 90.00000
_space_group_name_H-M_alt      'P 1'


loop_
_space_group_symop_operation_xyz
  'x, y, z' 

loop_
_atom_site_label
_atom_site_fract_x
_atom_site_fract_y
_atom_site_fract_z
_atom_site_type_symbol
H       0.0001   0.3557   0.0754     H
C       0.0017   0.5842   0.9565     C
C       0.0018   0.3934   0.9733     C
C       0.0027   0.2765   0.9468     C
C       0.0077   0.4811   0.9302     C
C       0.0086   0.1499   0.4741     C
H       0.0162   0.4703   0.8811     H
H       0.0236    0.775   0.0152     H
H       0.0294   0.1564   0.4256     H
N       0.0367     0.13   0.5895     N
H        0.046   0.1637   0.2567     H
H       0.0465   0.6781   0.3595     H
H       0.0643    0.732   0.0921     H
H       0.0799   0.1269   0.8627     H
N       0.0842   0.0139   0.3009     N
N       0.0985   0.8605   0.4257     N
H       0.0991   0.5654   0.2523     H
C       0.1024   0.1362   0.5291     C
C       0.1053   0.6988   0.3218     C
C       0.1062   0.1198   0.2846     C
C       0.1191   0.8478   0.4954     C
Ag     0.12471  0.07504  0.70312    Ag
H       0.1303   0.9313   0.8745     H
H       0.1331   0.0901   0.9391     H
C       0.1338   0.6365   0.2637     C
O       0.1422   0.2531   0.9227     O
C       0.1499   0.1412   0.8996     C
N       0.1749   0.7937    0.316     N
N       0.1943   0.9845   0.3402     N
H       0.2003   0.1319   0.5237     H
C       0.2035   0.8744   0.3705     C
H       0.2057    0.839   0.5186     H
C       0.2151   0.9304   0.8491     C
C        0.225   0.7011   0.2251     C
C       0.2287    0.156    0.314     C
H       0.2333    0.772   0.8104     H
H       0.2361   0.3208   0.6815     H
N       0.2481   0.2032   0.7558     N
N       0.2519   0.7968   0.2558     N
H       0.2639   0.6792   0.1815     H
H       0.2667    0.228   0.3104     H
C       0.2713    0.844    0.814     C
C        0.275   0.2989   0.7251     C
C       0.2849   0.0696   0.3491     C
H       0.2943    0.161   0.0186     H
C       0.2965   0.1256   0.8705     C
H       0.2997   0.8681   0.0237     H
N       0.3057   0.0155   0.8402     N
N       0.3251   0.2063    0.816     N
C       0.3501   0.8588   0.3996     C
O       0.3578   0.7469   0.4227     O
C       0.3662   0.3635   0.7637     C
H       0.3669   0.9099   0.4391     H
H       0.3697   0.0687   0.3745     H
Ag     0.37529  0.92496  0.20312    Ag
C       0.3809   0.1522   0.9954     C
C       0.3938   0.8802   0.7846     C
C       0.3947   0.3012   0.8218     C
C       0.3976   0.8638   0.0291     C
H       0.4009   0.4346   0.7523     H
N       0.4015   0.1395   0.9257     N
N       0.4158   0.9861   0.8009     N
H       0.4201   0.8731   0.3627     H
H       0.4357    0.268   0.5921     H
H       0.4535   0.3219   0.8595     H
H        0.454   0.8363   0.7567     H
N       0.4633     0.87   0.0895     N
H       0.4706   0.8436   0.9256     H
H       0.4764    0.225   0.5152     H
H       0.4838   0.5297   0.3811     H
C       0.4914   0.8501   0.9741     C
C       0.4923   0.5189   0.4302     C
C       0.4973   0.7235   0.4468     C
C       0.4982   0.6066   0.4733     C
C       0.4983   0.4158   0.4565     C
H       0.4999   0.6443   0.5754     H
H       0.5001   0.3557   0.4246     H
C       0.5017   0.5842   0.5435     C
C       0.5018   0.3934   0.5267     C
C       0.5027   0.2765   0.5532     C
C       0.5077   0.4811   0.5698     C
C       0.5086   0.1499   0.0259     C
H       0.5162   0.4703   0.6189     H
H       0.5236    0.775   0.4848     H
H       0.5294   0.1564   0.0744     H
N       0.5367     0.13   0.9105     N
H        0.546   0.1637   0.2433     H
H       0.5465   0.6781   0.1405     H
H       0.5643    0.732   0.4079     H
H       0.5799   0.1269   0.6373     H
N       0.5842   0.0139   0.1991     N
N       0.5985   0.8605   0.0743     N
H       0.5991   0.5654   0.2477     H
C       0.6024   0.1362   0.9709     C
C       0.6053   0.6988   0.1782     C
C       0.6062   0.1198   0.2154     C
C       0.6191   0.8478   0.0046     C
Ag     0.62471  0.07504  0.79688    Ag
H       0.6303   0.9313   0.6255     H
H       0.6331   0.0901   0.5609     H
C       0.6338   0.6365   0.2363     C
O       0.6422   0.2531   0.5773     O
C       0.6499   0.1412   0.6004     C
N       0.6749   0.7937    0.184     N
N       0.6943   0.9845   0.1598     N
H       0.7003   0.1319   0.9763     H
C       0.7035   0.8744   0.1295     C
H       0.7057    0.839   0.9814     H
C       0.7151   0.9304   0.6509     C
C        0.725   0.7011   0.2749     C
C       0.7287    0.156    0.186     C
H       0.7333    0.772   0.6896     H
H       0.7361   0.3208   0.8185     H
N       0.7481   0.2032   0.7442     N
N       0.7519   0.7968   0.2442     N
H       0.7639   0.6792   0.3185     H
H       0.7667    0.228   0.1896     H
C       0.7713    0.844    0.686     C
C        0.775   0.2989   0.7749     C
C       0.7849   0.0696   0.1509     C
H       0.7943    0.161   0.4814     H
C       0.7965   0.1256   0.6295     C
H       0.7997   0.8681   0.4763     H
N       0.8057   0.0155   0.6598     N
N       0.8251   0.2063    0.684     N
C       0.8501   0.8588   0.1004     C
O       0.8578   0.7469   0.0773     O
C       0.8662   0.3635   0.7363     C
H       0.8669   0.9099   0.0609     H
H       0.8697   0.0687   0.1255     H
Ag     0.87529  0.92496  0.29688    Ag
C       0.8809   0.1522   0.5046     C
C       0.8938   0.8802   0.7154     C
C       0.8947   0.3012   0.6782     C
C       0.8976   0.8638   0.4709     C
H       0.9009   0.4346   0.7477     H
N       0.9015   0.1395   0.5743     N
N       0.9158   0.9861   0.6991     N
H       0.9201   0.8731   0.1373     H
H       0.9357    0.268   0.9079     H
H       0.9535   0.3219   0.6405     H
H        0.954   0.8363   0.7433     H
N       0.9633     0.87   0.4105     N
H       0.9706   0.8436   0.5744     H
H       0.9764    0.225   0.9848     H
H       0.9838   0.5297   0.1189     H
C       0.9914   0.8501   0.5259     C
C       0.9923   0.5189   0.0698     C
C       0.9973   0.7235   0.0532     C
C       0.9982   0.6066   0.0267     C
C       0.9983   0.4158   0.0435     C
H       0.9999   0.6443   0.9246     H
