data_I
_chemical_name_common  '/Users/gianmarcoterrones/Research/MOFs/MOF_structures/water_stability_work_extra_structs/cleaned_from_CoRE/ESARIB_clean'
_cell_length_a 10.48650
_cell_length_b 15.19160
_cell_length_c 24.06260
_cell_angle_alpha 90.00000
_cell_angle_beta  90.00000
_cell_angle_gamma 90.00000
_space_group_name_H-M_alt      'P 1'


loop_
_space_group_symop_operation_xyz
  'x, y, z' 

loop_
_atom_site_label
_atom_site_fract_x
_atom_site_fract_y
_atom_site_fract_z
_atom_site_type_symbol
C       0.0042    0.566   0.2905     C
C       0.0042    0.934   0.2905     C
C        0.005   0.6451    0.363     C
C        0.005   0.8549    0.363     C
H       0.0062   0.0977   0.3554     H
H       0.0062   0.4023   0.3554     H
H       0.0063   0.0596   0.2803     H
H       0.0063   0.4404   0.2803     H
C        0.007   0.0935    0.314     C
C        0.007   0.4065    0.314     C
N       0.0181   0.7324    0.343     N
H       0.0198   0.5936   0.2552     H
H       0.0198   0.9064   0.2552     H
H       0.0306   0.5598   0.6565     H
H       0.0306   0.9402   0.6565     H
C       0.0321   0.5029   0.1881     C
C       0.0321   0.9971   0.1881     C
H       0.0322   0.5008   0.2268     H
H       0.0322   0.9992   0.2268     H
H       0.0323   0.0089   0.7153     H
H       0.0323   0.4911   0.7153     H
C       0.0326   0.5092   0.0728     C
C       0.0326   0.9908   0.0728     C
H       0.0392   0.2417   0.9649     H
H        0.041   0.6467   0.6914     H
H        0.041   0.8533   0.6914     H
C       0.0414   0.5571   0.8423     C
C       0.0414   0.9429   0.8423     C
C       0.0446   0.5525   0.8996     C
C       0.0446   0.9475   0.8996     C
N       0.0469   0.5159   0.0145     N
N       0.0469   0.9841   0.0145     N
N       0.0591   0.2253   0.3341     N
N       0.0591   0.2747   0.3341     N
H       0.0628   0.2349   0.0613     H
H       0.0628   0.2651   0.0613     H
O       0.0647   0.6551    0.768     O
O       0.0647   0.8449    0.768     O
H       0.0655   0.2106    0.888     H
H       0.0655   0.2894    0.888     H
H       0.0687   0.6023    0.364     H
H       0.0687   0.8977    0.364     H
C        0.069   0.1408   0.3559     C
C        0.069   0.3592   0.3559     C
H       0.0831   0.5605   0.3103     H
H       0.0831   0.9395   0.3103     H
C       0.0914   0.1246   0.6748     C
C       0.0914   0.3754   0.6748     C
C       0.0946    0.222    0.649     C
C       0.0946    0.278    0.649     C
H       0.0974   0.5899   0.9198     H
H       0.0974   0.9101   0.9198     H
C       0.1047   0.5655   0.1605     C
C       0.1047   0.9345   0.1605     C
Zn     0.10479     0.75  0.71013    Zn
C       0.1101   0.5668   0.1029     C
C       0.1101   0.9332   0.1029     C
C       0.1149    0.629    0.813     C
C       0.1149    0.871    0.813     C
H       0.1167   0.1927   0.8849     H
H       0.1167   0.3073   0.8849     H
C        0.121   0.1359   0.6192     C
C        0.121   0.3641   0.6192     C
C       0.1281    0.245   0.9579     C
H       0.1303   0.2311   0.1395     H
H       0.1303   0.2689   0.1395     H
C       0.1331     0.25   0.9005     C
H       0.1341   0.1814   0.9633     H
H       0.1341   0.3186   0.9633     H
O       0.1343    0.655  0.23836     O
O       0.1343    0.845  0.23836     O
H       0.1363   0.0856   0.6489     H
H       0.1363   0.4144   0.6489     H
H       0.1375   0.1802   0.0491     H
H       0.1375   0.3198   0.0491     H
H       0.1456   0.1838   0.7518     H
H       0.1456   0.3162   0.7518     H
C       0.1487    0.242   0.0576     C
C       0.1493   0.1176   0.3298     C
C       0.1493   0.3824   0.3298     C
C       0.1523   0.2157   0.3571     C
C       0.1523   0.2843   0.3571     C
H       0.1582   0.0845    0.606     H
H       0.1582   0.4155    0.606     H
H       0.1645   0.6055   0.0846     H
H       0.1645   0.8945   0.0846     H
H       0.1731   0.1606   0.0076     H
H       0.1731   0.3394   0.0076     H
H       0.1749    0.104   0.7886     H
H       0.1749    0.396   0.7886     H
O       0.1762    0.513   0.9987     O
O       0.1762    0.987   0.9987     O
Zn     0.17666     0.75  0.29751    Zn
N       0.1813   0.2182   0.6248     N
N       0.1813   0.2818   0.6248     N
C       0.1814    0.632   0.1932     C
C       0.1814    0.868   0.1932     C
H       0.1832   0.0744   0.3562     H
H       0.1832   0.4256   0.3562     H
C       0.1863   0.2237   0.0064     C
C       0.1863   0.2763   0.0064     C
C       0.1875   0.1462   0.7254     C
C       0.1875   0.3538   0.7254     C
C        0.191   0.1322   0.3789     C
C        0.191   0.3678   0.3789     C
C       0.1929     0.24   0.1163     C
H       0.1979   0.1787   0.1283     H
H       0.1979   0.3213   0.1283     H
H       0.2097   0.0974   0.2474     H
H       0.2097   0.4026   0.2474     H
O       0.2118   0.6576  0.83532     O
O       0.2118   0.8424  0.83532     O
H       0.2123   0.0924   0.7433     H
H       0.2123   0.4076   0.7433     H
O       0.2173   0.6586  0.67174     O
O       0.2173   0.8414  0.67174     O
H       0.2226   0.2334   0.5028     H
H       0.2226   0.2666   0.5028     H
H       0.2294   0.0809    0.392     H
H       0.2294   0.4191    0.392     H
H       0.2381   0.1754   0.2112     H
H       0.2381   0.3246   0.2112     H
C       0.2433    0.128   0.2791     C
C       0.2433    0.372   0.2791     C
N       0.2436   0.2166   0.3781     N
N       0.2436   0.2834   0.3781     N
H       0.2474   0.1894   0.7702     H
H       0.2474   0.3106   0.7702     H
H       0.2526   0.1894   0.2702     H
H       0.2526   0.3106   0.2702     H
N       0.2564   0.2166   0.8781     N
N       0.2564   0.2834   0.8781     N
C       0.2567    0.128   0.7791     C
C       0.2567    0.372   0.7791     C
H       0.2619   0.1754   0.7112     H
H       0.2619   0.3246   0.7112     H
H       0.2706   0.0809    0.892     H
H       0.2706   0.4191    0.892     H
H       0.2774   0.2334   0.0028     H
H       0.2774   0.2666   0.0028     H
O       0.2827   0.6586  0.17174     O
O       0.2827   0.8414  0.17174     O
H       0.2877   0.0924   0.2433     H
H       0.2877   0.4076   0.2433     H
O       0.2882   0.6576  0.33532     O
O       0.2882   0.8424  0.33532     O
H       0.2903   0.0974   0.7474     H
H       0.2903   0.4026   0.7474     H
H       0.3021   0.1787   0.6283     H
H       0.3021   0.3213   0.6283     H
C       0.3071     0.24   0.6163     C
C        0.309   0.1322   0.8789     C
C        0.309   0.3678   0.8789     C
C       0.3125   0.1462   0.2254     C
C       0.3125   0.3538   0.2254     C
C       0.3137   0.2237   0.5064     C
C       0.3137   0.2763   0.5064     C
H       0.3168   0.0744   0.8562     H
H       0.3168   0.4256   0.8562     H
C       0.3186    0.632   0.6932     C
C       0.3186    0.868   0.6932     C
N       0.3187   0.2182   0.1248     N
N       0.3187   0.2818   0.1248     N
Zn     0.32334     0.75  0.79751    Zn
O       0.3238    0.513   0.4987     O
O       0.3238    0.987   0.4987     O
H       0.3251    0.104   0.2886     H
H       0.3251    0.396   0.2886     H
H       0.3269   0.1606   0.5076     H
H       0.3269   0.3394   0.5076     H
H       0.3355   0.6055   0.5846     H
H       0.3355   0.8945   0.5846     H
H       0.3418   0.0845    0.106     H
H       0.3418   0.4155    0.106     H
C       0.3477   0.2157   0.8571     C
C       0.3477   0.2843   0.8571     C
C       0.3507   0.1176   0.8298     C
C       0.3507   0.3824   0.8298     C
C       0.3513    0.242   0.5576     C
H       0.3544   0.1838   0.2518     H
H       0.3544   0.3162   0.2518     H
H       0.3625   0.1802   0.5491     H
H       0.3625   0.3198   0.5491     H
H       0.3637   0.0856   0.1489     H
H       0.3637   0.4144   0.1489     H
O       0.3657    0.655  0.73836     O
O       0.3657    0.845  0.73836     O
H       0.3659   0.1814   0.4633     H
H       0.3659   0.3186   0.4633     H
C       0.3669     0.25   0.4005     C
H       0.3697   0.2311   0.6395     H
H       0.3697   0.2689   0.6395     H
C       0.3719    0.245   0.4579     C
C        0.379   0.1359   0.1192     C
C        0.379   0.3641   0.1192     C
H       0.3833   0.1927   0.3849     H
H       0.3833   0.3073   0.3849     H
C       0.3851    0.629    0.313     C
C       0.3851    0.871    0.313     C
C       0.3899   0.5668   0.6029     C
C       0.3899   0.9332   0.6029     C
Zn     0.39521     0.75  0.21013    Zn
C       0.3953   0.5655   0.6605     C
C       0.3953   0.9345   0.6605     C
H       0.4026   0.5899   0.4198     H
H       0.4026   0.9101   0.4198     H
C       0.4054    0.222    0.149     C
C       0.4054    0.278    0.149     C
C       0.4086   0.1246   0.1748     C
C       0.4086   0.3754   0.1748     C
H       0.4169   0.5605   0.8103     H
H       0.4169   0.9395   0.8103     H
C        0.431   0.1408   0.8559     C
C        0.431   0.3592   0.8559     C
H       0.4313   0.6023    0.864     H
H       0.4313   0.8977    0.864     H
H       0.4345   0.2106    0.388     H
H       0.4345   0.2894    0.388     H
O       0.4353   0.6551    0.268     O
O       0.4353   0.8449    0.268     O
H       0.4372   0.2349   0.5613     H
H       0.4372   0.2651   0.5613     H
N       0.4409   0.2253   0.8341     N
N       0.4409   0.2747   0.8341     N
N       0.4531   0.5159   0.5145     N
N       0.4531   0.9841   0.5145     N
C       0.4554   0.5525   0.3996     C
C       0.4554   0.9475   0.3996     C
C       0.4586   0.5571   0.3423     C
C       0.4586   0.9429   0.3423     C
H        0.459   0.6467   0.1914     H
H        0.459   0.8533   0.1914     H
H       0.4608   0.2417   0.4649     H
C       0.4674   0.5092   0.5728     C
C       0.4674   0.9908   0.5728     C
H       0.4677   0.0089   0.2153     H
H       0.4677   0.4911   0.2153     H
H       0.4678   0.5008   0.7268     H
H       0.4678   0.9992   0.7268     H
C       0.4679   0.5029   0.6881     C
C       0.4679   0.9971   0.6881     C
H       0.4694   0.5598   0.1565     H
H       0.4694   0.9402   0.1565     H
H       0.4802   0.5936   0.7552     H
H       0.4802   0.9064   0.7552     H
N       0.4819   0.7324    0.843     N
C        0.493   0.0935    0.814     C
C        0.493   0.4065    0.814     C
H       0.4937   0.0596   0.7803     H
H       0.4937   0.4404   0.7803     H
H       0.4938   0.0977   0.8554     H
H       0.4938   0.4023   0.8554     H
C        0.495   0.6451    0.863     C
C        0.495   0.8549    0.863     C
C       0.4958    0.566   0.7905     C
C       0.4958    0.934   0.7905     C
C       0.5042    0.066   0.2095     C
C       0.5042    0.434   0.2095     C
C        0.505   0.1451    0.137     C
C        0.505   0.3549    0.137     C
H       0.5062   0.5977   0.1446     H
H       0.5062   0.9023   0.1446     H
H       0.5063   0.5596   0.2197     H
H       0.5063   0.9404   0.2197     H
C        0.507   0.5935    0.186     C
C        0.507   0.9065    0.186     C
N       0.5181   0.2324    0.157     N
H       0.5198   0.0936   0.2448     H
H       0.5198   0.4064   0.2448     H
H       0.5306   0.0598   0.8435     H
H       0.5306   0.4402   0.8435     H
C       0.5321   0.0029   0.3119     C
C       0.5321   0.4971   0.3119     C
H       0.5322   0.0008   0.2732     H
H       0.5322   0.4992   0.2732     H
H       0.5323   0.5089   0.7847     H
H       0.5323   0.9911   0.7847     H
C       0.5326   0.0092   0.4272     C
C       0.5326   0.4908   0.4272     C
H       0.5392   0.7417   0.5351     H
H        0.541   0.1467   0.8086     H
H        0.541   0.3533   0.8086     H
C       0.5414   0.0571   0.6577     C
C       0.5414   0.4429   0.6577     C
C       0.5446   0.0525   0.6004     C
C       0.5446   0.4475   0.6004     C
N       0.5469   0.0159   0.4855     N
N       0.5469   0.4841   0.4855     N
N       0.5591   0.7253   0.1659     N
N       0.5591   0.7747   0.1659     N
H       0.5628   0.7349   0.4387     H
H       0.5628   0.7651   0.4387     H
O       0.5647   0.1551    0.732     O
O       0.5647   0.3449    0.732     O
H       0.5655   0.7106    0.612     H
H       0.5655   0.7894    0.612     H
H       0.5687   0.1023    0.136     H
H       0.5687   0.3977    0.136     H
C        0.569   0.6408   0.1441     C
C        0.569   0.8592   0.1441     C
H       0.5831   0.0605   0.1897     H
H       0.5831   0.4395   0.1897     H
C       0.5914   0.6246   0.8252     C
C       0.5914   0.8754   0.8252     C
C       0.5946    0.722    0.851     C
C       0.5946    0.778    0.851     C
H       0.5974   0.0899   0.5802     H
H       0.5974   0.4101   0.5802     H
C       0.6047   0.0655   0.3395     C
C       0.6047   0.4345   0.3395     C
Zn     0.60479     0.25  0.78987    Zn
C       0.6101   0.0668   0.3971     C
C       0.6101   0.4332   0.3971     C
C       0.6149    0.129    0.687     C
C       0.6149    0.371    0.687     C
H       0.6167   0.6927   0.6151     H
H       0.6167   0.8073   0.6151     H
C        0.621   0.6359   0.8808     C
C        0.621   0.8641   0.8808     C
C       0.6281    0.745   0.5421     C
H       0.6303   0.7311   0.3605     H
H       0.6303   0.7689   0.3605     H
C       0.6331     0.75   0.5995     C
H       0.6341   0.6814   0.5367     H
H       0.6341   0.8186   0.5367     H
O       0.6343    0.155  0.26164     O
O       0.6343    0.345  0.26164     O
H       0.6363   0.5856   0.8511     H
H       0.6363   0.9144   0.8511     H
H       0.6375   0.6802   0.4509     H
H       0.6375   0.8198   0.4509     H
H       0.6456   0.6838   0.7482     H
H       0.6456   0.8162   0.7482     H
C       0.6487    0.742   0.4424     C
C       0.6493   0.6176   0.1702     C
C       0.6493   0.8824   0.1702     C
C       0.6523   0.7157   0.1429     C
C       0.6523   0.7843   0.1429     C
H       0.6582   0.5845    0.894     H
H       0.6582   0.9155    0.894     H
H       0.6645   0.1055   0.4154     H
H       0.6645   0.3945   0.4154     H
H       0.6731   0.6606   0.4924     H
H       0.6731   0.8394   0.4924     H
H       0.6749    0.604   0.7114     H
H       0.6749    0.896   0.7114     H
O       0.6762    0.013   0.5013     O
O       0.6762    0.487   0.5013     O
Zn     0.67666     0.25  0.20249    Zn
N       0.6813   0.7182   0.8752     N
N       0.6813   0.7818   0.8752     N
C       0.6814    0.132   0.3068     C
C       0.6814    0.368   0.3068     C
H       0.6832   0.5744   0.1438     H
H       0.6832   0.9256   0.1438     H
C       0.6863   0.7237   0.4936     C
C       0.6863   0.7763   0.4936     C
C       0.6875   0.6462   0.7746     C
C       0.6875   0.8538   0.7746     C
C        0.691   0.6322   0.1211     C
C        0.691   0.8678   0.1211     C
C       0.6929     0.74   0.3837     C
H       0.6979   0.6787   0.3717     H
H       0.6979   0.8213   0.3717     H
H       0.7097   0.5974   0.2526     H
H       0.7097   0.9026   0.2526     H
O       0.7118   0.1576  0.66468     O
O       0.7118   0.3424  0.66468     O
H       0.7123   0.5924   0.7567     H
H       0.7123   0.9076   0.7567     H
O       0.7173   0.1586  0.82826     O
O       0.7173   0.3414  0.82826     O
H       0.7226   0.7334   0.9972     H
H       0.7226   0.7666   0.9972     H
H       0.7294   0.5809    0.108     H
H       0.7294   0.9191    0.108     H
H       0.7381   0.6754   0.2888     H
H       0.7381   0.8246   0.2888     H
C       0.7433    0.628   0.2209     C
C       0.7433    0.872   0.2209     C
N       0.7436   0.7166   0.1219     N
N       0.7436   0.7834   0.1219     N
H       0.7474   0.6894   0.7298     H
H       0.7474   0.8106   0.7298     H
H       0.7526   0.6894   0.2298     H
H       0.7526   0.8106   0.2298     H
N       0.7564   0.7166   0.6219     N
N       0.7564   0.7834   0.6219     N
C       0.7567    0.628   0.7209     C
C       0.7567    0.872   0.7209     C
H       0.7619   0.6754   0.7888     H
H       0.7619   0.8246   0.7888     H
H       0.7706   0.5809    0.608     H
H       0.7706   0.9191    0.608     H
H       0.7774   0.7334   0.4972     H
H       0.7774   0.7666   0.4972     H
O       0.7827   0.1586  0.32826     O
O       0.7827   0.3414  0.32826     O
H       0.7877   0.5924   0.2567     H
H       0.7877   0.9076   0.2567     H
O       0.7882   0.1576  0.16468     O
O       0.7882   0.3424  0.16468     O
H       0.7903   0.5974   0.7526     H
H       0.7903   0.9026   0.7526     H
H       0.8021   0.6787   0.8717     H
H       0.8021   0.8213   0.8717     H
C       0.8071     0.74   0.8837     C
C        0.809   0.6322   0.6211     C
C        0.809   0.8678   0.6211     C
C       0.8125   0.6462   0.2746     C
C       0.8125   0.8538   0.2746     C
C       0.8137   0.7237   0.9936     C
C       0.8137   0.7763   0.9936     C
H       0.8168   0.5744   0.6438     H
H       0.8168   0.9256   0.6438     H
C       0.8186    0.132   0.8068     C
C       0.8186    0.368   0.8068     C
N       0.8187   0.7182   0.3752     N
N       0.8187   0.7818   0.3752     N
Zn     0.82334     0.25  0.70249    Zn
O       0.8238    0.013   0.0013     O
O       0.8238    0.487   0.0013     O
H       0.8251    0.604   0.2114     H
H       0.8251    0.896   0.2114     H
H       0.8269   0.6606   0.9924     H
H       0.8269   0.8394   0.9924     H
H       0.8355   0.1055   0.9154     H
H       0.8355   0.3945   0.9154     H
H       0.8418   0.5845    0.394     H
H       0.8418   0.9155    0.394     H
C       0.8477   0.7157   0.6429     C
C       0.8477   0.7843   0.6429     C
C       0.8507   0.6176   0.6702     C
C       0.8507   0.8824   0.6702     C
C       0.8513    0.742   0.9424     C
H       0.8544   0.6838   0.2482     H
H       0.8544   0.8162   0.2482     H
H       0.8625   0.6802   0.9509     H
H       0.8625   0.8198   0.9509     H
H       0.8637   0.5856   0.3511     H
H       0.8637   0.9144   0.3511     H
O       0.8657    0.155  0.76164     O
O       0.8657    0.345  0.76164     O
H       0.8659   0.6814   0.0367     H
H       0.8659   0.8186   0.0367     H
C       0.8669     0.75   0.0995     C
H       0.8697   0.7311   0.8605     H
H       0.8697   0.7689   0.8605     H
C       0.8719    0.745   0.0421     C
C        0.879   0.6359   0.3808     C
C        0.879   0.8641   0.3808     C
H       0.8833   0.6927   0.1151     H
H       0.8833   0.8073   0.1151     H
C       0.8851    0.129    0.187     C
C       0.8851    0.371    0.187     C
C       0.8899   0.0668   0.8971     C
C       0.8899   0.4332   0.8971     C
Zn     0.89521     0.25  0.28987    Zn
C       0.8953   0.0655   0.8395     C
C       0.8953   0.4345   0.8395     C
H       0.9026   0.0899   0.0802     H
H       0.9026   0.4101   0.0802     H
C       0.9054    0.722    0.351     C
C       0.9054    0.778    0.351     C
C       0.9086   0.6246   0.3252     C
C       0.9086   0.8754   0.3252     C
H       0.9169   0.0605   0.6897     H
H       0.9169   0.4395   0.6897     H
C        0.931   0.6408   0.6441     C
C        0.931   0.8592   0.6441     C
H       0.9313   0.1023    0.636     H
H       0.9313   0.3977    0.636     H
H       0.9345   0.7106    0.112     H
H       0.9345   0.7894    0.112     H
O       0.9353   0.1551    0.232     O
O       0.9353   0.3449    0.232     O
H       0.9372   0.7349   0.9387     H
H       0.9372   0.7651   0.9387     H
N       0.9409   0.7253   0.6659     N
N       0.9409   0.7747   0.6659     N
N       0.9531   0.0159   0.9855     N
N       0.9531   0.4841   0.9855     N
C       0.9554   0.0525   0.1004     C
C       0.9554   0.4475   0.1004     C
C       0.9586   0.0571   0.1577     C
C       0.9586   0.4429   0.1577     C
H        0.959   0.1467   0.3086     H
H        0.959   0.3533   0.3086     H
H       0.9608   0.7417   0.0351     H
C       0.9674   0.0092   0.9272     C
C       0.9674   0.4908   0.9272     C
H       0.9677   0.5089   0.2847     H
H       0.9677   0.9911   0.2847     H
H       0.9678   0.0008   0.7732     H
H       0.9678   0.4992   0.7732     H
C       0.9679   0.0029   0.8119     C
C       0.9679   0.4971   0.8119     C
H       0.9694   0.0598   0.3435     H
H       0.9694   0.4402   0.3435     H
H       0.9802   0.0936   0.7448     H
H       0.9802   0.4064   0.7448     H
N       0.9819   0.2324    0.657     N
C        0.993   0.5935    0.686     C
C        0.993   0.9065    0.686     C
H       0.9937   0.5596   0.7197     H
H       0.9937   0.9404   0.7197     H
H       0.9938   0.5977   0.6446     H
H       0.9938   0.9023   0.6446     H
C        0.995   0.1451    0.637     C
C        0.995   0.3549    0.637     C
C       0.9958    0.066   0.7095     C
C       0.9958    0.434   0.7095     C
