data_I
_chemical_name_common  '/Users/gianmarcoterrones/Research/MOFs/MOF_structures/water_stability_work_extra_structs/cleaned_from_CCDC/ESAREX'
_cell_length_a 10.21080
_cell_length_b 14.78600
_cell_length_c 19.21590
_cell_angle_alpha 90.00000
_cell_angle_beta  90.00000
_cell_angle_gamma 96.44700
_space_group_name_H-M_alt      'P 1'


loop_
_space_group_symop_operation_xyz
  'x, y, z' 

loop_
_atom_site_label
_atom_site_fract_x
_atom_site_fract_y
_atom_site_fract_z
_atom_site_type_symbol
H       0.0052   0.3468   0.7577     H
H       0.0052   0.8468   0.7423     H
C         0.01  0.36922  0.71241     C
C         0.01  0.86922  0.78759     C
C       0.0242  0.43953  0.57972     C
C       0.0242  0.93953  0.92028     C
N      0.04365  0.47786  0.51149     N
N      0.04365  0.97786  0.98851     N
C       0.0977  0.07847  0.11138     C
C       0.0977  0.57847  0.38862     C
C       0.1046   0.1143  0.17832     C
C       0.1046   0.6143  0.32168     C
C      0.13216  0.38574  0.67996     C
C      0.13216  0.88574  0.82004     C
C       0.1385  0.41998  0.61321     C
C       0.1385  0.91998  0.88679     C
O       0.1508   0.4489    0.479     O
O       0.1508   0.9489    0.021     O
H       0.1739   0.0667   0.0882     H
H       0.1739   0.5667   0.4118     H
H       0.2193     0.43   0.5905     H
H       0.2193     0.93   0.9095     H
O      0.23247   0.1586  0.27757     O
O      0.23247   0.6586  0.22243     O
C       0.2337  0.13266  0.21671     C
C       0.2337  0.63266  0.28329     C
O      0.24564  0.34719  0.78078     O
O      0.24564  0.84719  0.71922     O
C       0.2548  0.36885  0.71914     C
C       0.2548  0.86885  0.78086     C
H       0.2875   0.0408   0.3601     H
H       0.2875   0.5408   0.1399     H
H       0.3153   0.2879   0.5413     H
H       0.3153   0.7879   0.9587     H
H       0.3194   0.1293   0.5888     H
H       0.3194   0.6293   0.9112     H
O        0.338  0.11745  0.18396     O
O        0.338  0.61745  0.31604     O
H       0.3389    0.424    0.058     H
H       0.3389    0.924    0.442     H
H       0.3484   0.1633   0.9769     H
H       0.3484   0.6633   0.5231     H
H       0.3498    0.005   0.6742     H
H       0.3498    0.505   0.8258     H
O      0.36301  0.38106  0.68541     O
O      0.36301  0.88106  0.81459     O
H       0.3642    0.062   0.9578     H
H       0.3642    0.562   0.5422     H
C       0.3678    0.017  0.36345     C
C       0.3678    0.517  0.13655     C
H       0.3764   0.2548   0.4722     H
H       0.3764   0.7548   0.0278     H
H       0.3824   0.1013   0.5188     H
H       0.3824   0.6013   0.9812     H
H       0.3905   0.2767   0.8803     H
H       0.3905   0.7767   0.6197     H
C       0.3955   0.4527  0.09112     C
C       0.3955   0.9527  0.40888     C
C       0.3975   0.2814  0.51752     C
C       0.3975   0.7814  0.98248     C
C       0.4023   0.1252  0.56505     C
C       0.4023   0.6252  0.93495     C
C       0.4096   0.1233   0.9591     C
C       0.4096   0.6233   0.5409     C
H       0.4109   0.3535   0.2471     H
H       0.4109   0.8535   0.2529     H
H       0.4139   0.4158   0.4905     H
H       0.4139   0.9158   0.0095     H
C       0.4341  0.00745  0.65541     C
C       0.4341  0.50745  0.84459     C
C       0.4342    0.232  0.85929     C
C       0.4342    0.732  0.64071     C
H       0.4413   0.2866   0.0366     H
H       0.4413   0.7866   0.4634     H
N       0.4489   0.1514  0.88827     N
N       0.4489   0.6514  0.61173     N
H       0.4554   0.4524   0.3466     H
H       0.4554   0.9524   0.1534     H
C       0.4572  0.33966  0.28668     C
C       0.4572  0.83966  0.21332     C
C       0.4736   0.3746  0.50803     C
C       0.4736   0.8746  0.99197     C
C       0.4745   0.2175  0.55906     C
C       0.4745   0.7175  0.94094     C
N      0.47589  0.04215  0.32291     N
N      0.47589  0.54215  0.17709     N
N       0.4777  0.06194  0.60318     N
N       0.4777  0.56194  0.89682     N
C       0.4811  0.39441  0.34122     C
C       0.4811  0.89441  0.15878     C
N      0.48914  0.24018  0.79746     N
N      0.48914  0.74018  0.70254     N
Zn     0.49019  0.13906  0.24854    Zn
Zn     0.49019  0.63906  0.25146    Zn
H       0.4917   0.2424   0.6053     H
H       0.4917   0.7424   0.8947     H
H       0.4951   0.1029   0.0532     H
H       0.4951   0.6029   0.4468     H
H       0.5049   0.3971   0.5532     H
H       0.5049   0.8971   0.9468     H
H       0.5083   0.2576   0.1053     H
H       0.5083   0.7576   0.3947     H
Zn     0.50981  0.36094  0.74854    Zn
Zn     0.50981  0.86094  0.75146    Zn
N      0.51086  0.25982  0.29746     N
N      0.51086  0.75982  0.20254     N
C       0.5189  0.10559  0.84122     C
C       0.5189  0.60559  0.65878     C
N       0.5223  0.43806  0.10318     N
N       0.5223  0.93806  0.39682     N
N      0.52411  0.45785  0.82291     N
N      0.52411  0.95785  0.67709     N
C       0.5255   0.2825  0.05906     C
C       0.5255   0.7825  0.44094     C
C       0.5264   0.1254  0.00803     C
C       0.5264   0.6254  0.49197     C
C       0.5428  0.16034  0.78668     C
C       0.5428  0.66034  0.71332     C
H       0.5446   0.0476   0.8466     H
H       0.5446   0.5476   0.6534     H
N       0.5511   0.3486  0.38827     N
N       0.5511   0.8486  0.11173     N
H       0.5587   0.2134   0.5366     H
H       0.5587   0.7134   0.9634     H
C       0.5658    0.268  0.35929     C
C       0.5658    0.768  0.14071     C
C       0.5659  0.49255  0.15541     C
C       0.5659  0.99255  0.34459     C
H       0.5861   0.0842   0.9905     H
H       0.5861   0.5842   0.5095     H
H       0.5891   0.1465   0.7471     H
H       0.5891   0.6465   0.7529     H
C       0.5904   0.3767   0.4591     C
C       0.5904   0.8767   0.0409     C
C       0.5977   0.3748  0.06505     C
C       0.5977   0.8748  0.43495     C
C       0.6025   0.2186  0.01752     C
C       0.6025   0.7186  0.48248     C
C       0.6045   0.0473  0.59112     C
C       0.6045   0.5473  0.90888     C
H       0.6095   0.2233   0.3803     H
H       0.6095   0.7233   0.1197     H
H       0.6176   0.3987   0.0188     H
H       0.6176   0.8987   0.4812     H
H       0.6236   0.2452   0.9722     H
H       0.6236   0.7452   0.5278     H
C       0.6322    0.483  0.86345     C
C       0.6322    0.983  0.63655     C
H       0.6358    0.438   0.4578     H
H       0.6358    0.938   0.0422     H
O      0.63699  0.11894  0.18541     O
O      0.63699  0.61894  0.31459     O
H       0.6502    0.495   0.1742     H
H       0.6502    0.995   0.3258     H
H       0.6516   0.3367   0.4769     H
H       0.6516   0.8367   0.0231     H
H       0.6611    0.076    0.558     H
H       0.6611    0.576    0.942     H
O        0.662  0.38255  0.68396     O
O        0.662  0.88255  0.81604     O
H       0.6806   0.3707   0.0888     H
H       0.6806   0.8707   0.4112     H
H       0.6847   0.2121   0.0413     H
H       0.6847   0.7121   0.4587     H
H       0.7125   0.4592   0.8601     H
H       0.7125   0.9592   0.6399     H
C       0.7452  0.13115  0.21914     C
C       0.7452  0.63115  0.28086     C
O      0.75436  0.15281  0.28078     O
O      0.75436  0.65281  0.21922     O
C       0.7663  0.36734  0.71671     C
C       0.7663  0.86734  0.78329     C
O      0.76753   0.3414  0.77757     O
O      0.76753   0.8414  0.72243     O
H       0.7807     0.07   0.0905     H
H       0.7807     0.57   0.4095     H
H       0.8261   0.4333   0.5882     H
H       0.8261   0.9333   0.9118     H
O       0.8492   0.0511    0.979     O
O       0.8492   0.5511    0.521     O
C       0.8615  0.08002  0.11321     C
C       0.8615  0.58002  0.38679     C
C      0.86784  0.11426  0.17996     C
C      0.86784  0.61426  0.32004     C
C       0.8954   0.3857  0.67832     C
C       0.8954   0.8857  0.82168     C
C       0.9023  0.42153  0.61138     C
C       0.9023  0.92153  0.88862     C
N      0.95635  0.02214  0.01149     N
N      0.95635  0.52214  0.48851     N
C       0.9758  0.06047  0.07972     C
C       0.9758  0.56047  0.42028     C
C         0.99  0.13078  0.21241     C
C         0.99  0.63078  0.28759     C
H       0.9948   0.1532   0.2577     H
H       0.9948   0.6532   0.2423     H
