data_I
_chemical_name_common  '/Users/gianmarcoterrones/Research/MOFs/MOF_structures/water_stability_work_extra_structs/cleaned_from_CoRE/EZIMIK_clean'
_cell_length_a 16.22818
_cell_length_b 16.22818
_cell_length_c 16.22818
_cell_angle_alpha 70.21908
_cell_angle_beta  70.21908
_cell_angle_gamma 70.21908
_space_group_name_H-M_alt      'P 1'


loop_
_space_group_symop_operation_xyz
  'x, y, z' 

loop_
_atom_site_label
_atom_site_fract_x
_atom_site_fract_y
_atom_site_fract_z
_atom_site_type_symbol
Zn    0.02092333 0.44067333 0.44067333    Zn
C      0.02532  0.67792  0.73212     C
C      0.02532  0.73212  0.67792     C
C      0.02765  0.65392  0.65392     C
N      0.04154  0.34164  0.37904     N
C        0.051   0.1968   0.3196     C
C        0.051   0.3196   0.1968     C
H       0.0548   0.1481   0.2976     H
H       0.0548   0.2976   0.1481     H
O      0.07809  0.45729  0.60919     O
O      0.07809  0.60919  0.45729     O
C      0.10529  0.71569  0.71569     C
O      0.10957  0.36818    0.517     O
O      0.10957    0.517  0.36818     O
C      0.11501  0.27071  0.37761     C
C      0.11501  0.37761  0.27071     C
C       0.1214    0.388   0.5803     C
C       0.1214   0.5803    0.388     C
C      0.12217  0.19537  0.34877     C
C      0.12217  0.34877  0.19537     C
H       0.1481   0.0548   0.2976     H
H       0.1481   0.2976   0.0548     H
H       0.1604   0.3768   0.7329     H
H       0.1604   0.7329   0.3768     H
H       0.1639   0.2715   0.3969     H
H       0.1639   0.3969   0.2715     H
C      0.17222  0.72277  0.72277     C
C        0.193   0.3216   0.6256     C
C        0.193   0.6256   0.3216     C
C      0.19537  0.12217  0.34877     C
C      0.19537  0.34877  0.12217     C
C       0.1968    0.051   0.3196     C
C       0.1968   0.3196    0.051     C
C      0.20122  0.32962  0.70602     C
C      0.20122  0.70602  0.32962     C
H       0.2453   0.2453    0.535     H
H       0.2453    0.535   0.2453     H
C     0.25228333 0.25228667  0.58787     C
C     0.25228333 0.58787333 0.25228333     C
C      0.25439  0.73129  0.73129     C
H       0.2671   0.6232   0.8396     H
H       0.2671   0.8396   0.6232     H
C      0.26788  0.32208  0.97468     C
C      0.26788  0.97468  0.32208     C
C      0.26871  0.26871  0.74561     C
C      0.26871  0.74561  0.26871     C
C      0.27071  0.11501  0.37761     C
C      0.27071  0.37761  0.11501     C
H       0.2715   0.1639   0.3969     H
H       0.2715   0.3969   0.1639     H
C      0.27723  0.27723  0.82778     C
C      0.27723  0.82778  0.27723     C
C      0.28431  0.28431  0.89471     C
C      0.28431  0.89471  0.28431     C
C      0.29398  0.67038  0.79878     C
C      0.29398  0.79878  0.67038     C
H       0.2976   0.0548   0.1481     H
H       0.2976   0.1481   0.0548     H
C       0.3196    0.051   0.1968     C
C       0.3196   0.1968    0.051     C
C       0.3216    0.193   0.6256     C
C       0.3216   0.6256    0.193     C
C      0.32208  0.26788  0.97468     C
C      0.32208  0.97468  0.26788     C
C      0.32962  0.20122  0.70602     C
C      0.32962  0.70602  0.20122     C
N      0.34164  0.04154  0.37904     N
N      0.34164  0.37904  0.04154     N
C      0.34608  0.34608  0.97235     C
C      0.34608  0.97235  0.34608     C
C      0.34877  0.12217  0.19537     C
C      0.34877  0.19537  0.12217     C
O      0.36818  0.10957    0.517     O
O      0.36818    0.517  0.10957     O
C       0.3744   0.6784    0.807     C
C       0.3744    0.807   0.6784     C
H       0.3768   0.1604   0.7329     H
H       0.3768   0.7329   0.1604     H
C      0.37761  0.11501  0.27071     C
C      0.37761  0.27071  0.11501     C
C        0.388   0.1214   0.5803     C
C        0.388   0.5803   0.1214     C
O      0.39081  0.54271  0.92191     O
O      0.39081  0.92191  0.54271     O
H       0.3969   0.1639   0.2715     H
H       0.3969   0.2715   0.1639     H
C      0.41213 0.74771333 0.74771667     C
C       0.4197    0.612   0.8786     C
C       0.4197   0.8786    0.612     C
Zn    0.44067333 0.02092333 0.44067333    Zn
Zn    0.44067333 0.44067333 0.02092333    Zn
O      0.45729  0.07809  0.60919     O
O      0.45729  0.60919  0.07809     O
H        0.465   0.7547   0.7547     H
O        0.483  0.63182  0.89043     O
O        0.483  0.89043  0.63182     O
O        0.517  0.10957  0.36818     O
O        0.517  0.36818  0.10957     O
H        0.535   0.2453   0.2453     H
O      0.54271  0.39081  0.92191     O
O      0.54271  0.92191  0.39081     O
Zn    0.55932667 0.55932667 0.97907667    Zn
Zn    0.55932667 0.97907667 0.55932667    Zn
C       0.5803   0.1214    0.388     C
C       0.5803    0.388   0.1214     C
C      0.58787 0.25228667 0.25228333     C
H       0.6031   0.7285   0.8361     H
H       0.6031   0.8361   0.7285     H
O      0.60919  0.07809  0.45729     O
O      0.60919  0.45729  0.07809     O
C        0.612   0.4197   0.8786     C
C        0.612   0.8786   0.4197     C
N      0.62096  0.65836  0.95846     N
N      0.62096  0.95846  0.65836     N
C      0.62239  0.72929  0.88499     C
C      0.62239  0.88499  0.72929     C
H       0.6232   0.2671   0.8396     H
H       0.6232   0.8396   0.2671     H
C       0.6256    0.193   0.3216     C
C       0.6256   0.3216    0.193     C
O      0.63182    0.483  0.89043     O
O      0.63182  0.89043    0.483     O
C      0.65123  0.80463  0.87783     C
C      0.65123  0.87783  0.80463     C
C      0.65392  0.02765  0.65392     C
C      0.65392  0.65392  0.02765     C
C      0.67038  0.29398  0.79878     C
C      0.67038  0.79878  0.29398     C
C      0.67792  0.02532  0.73212     C
C      0.67792  0.73212  0.02532     C
C       0.6784   0.3744    0.807     C
C       0.6784    0.807   0.3744     C
C       0.6804   0.8032    0.949     C
C       0.6804    0.949   0.8032     C
H       0.7024   0.8519   0.9452     H
H       0.7024   0.9452   0.8519     H
C      0.70602  0.20122  0.32962     C
C      0.70602  0.32962  0.20122     C
C      0.71569  0.10529  0.71569     C
C      0.71569  0.71569  0.10529     C
C      0.72277  0.17222  0.72277     C
C      0.72277  0.72277  0.17222     C
H       0.7285   0.6031   0.8361     H
H       0.7285   0.8361   0.6031     H
C      0.72929  0.62239  0.88499     C
C      0.72929  0.88499  0.62239     C
C      0.73129  0.25439  0.73129     C
C      0.73129  0.73129  0.25439     C
C      0.73212  0.02532  0.67792     C
C      0.73212  0.67792  0.02532     C
H       0.7329   0.1604   0.3768     H
H       0.7329   0.3768   0.1604     H
C      0.74561  0.26871  0.26871     C
C     0.74771667 0.41212667 0.74771667     C
C     0.74771667 0.74771333  0.41213     C
H       0.7547    0.465   0.7547     H
H       0.7547   0.7547    0.465     H
C      0.79878  0.29398  0.67038     C
C      0.79878  0.67038  0.29398     C
C       0.8032   0.6804    0.949     C
C       0.8032    0.949   0.6804     C
C      0.80463  0.65123  0.87783     C
C      0.80463  0.87783  0.65123     C
C        0.807   0.3744   0.6784     C
C        0.807   0.6784   0.3744     C
C      0.82778  0.27723  0.27723     C
H       0.8361   0.6031   0.7285     H
H       0.8361   0.7285   0.6031     H
H       0.8396   0.2671   0.6232     H
H       0.8396   0.6232   0.2671     H
H       0.8519   0.7024   0.9452     H
H       0.8519   0.9452   0.7024     H
C      0.87783  0.65123  0.80463     C
C      0.87783  0.80463  0.65123     C
C       0.8786   0.4197    0.612     C
C       0.8786    0.612   0.4197     C
C      0.88499  0.62239  0.72929     C
C      0.88499  0.72929  0.62239     C
O      0.89043    0.483  0.63182     O
O      0.89043  0.63182    0.483     O
C      0.89471  0.28431  0.28431     C
O      0.92191  0.39081  0.54271     O
O      0.92191  0.54271  0.39081     O
H       0.9452   0.7024   0.8519     H
H       0.9452   0.8519   0.7024     H
C        0.949   0.6804   0.8032     C
C        0.949   0.8032   0.6804     C
N      0.95846  0.62096  0.65836     N
C      0.97235  0.34608  0.34608     C
C      0.97468  0.26788  0.32208     C
C      0.97468  0.32208  0.26788     C
Zn    0.97907667 0.55932667 0.55932667    Zn
