data_I
_chemical_name_common  '/Users/gianmarcoterrones/Research/MOFs/MOF_structures/water_stability_work_extra_structs/cleaned_from_CCDC/FEFTUG'
_cell_length_a 10.40410
_cell_length_b 10.90490
_cell_length_c 13.54300
_cell_angle_alpha 94.06000
_cell_angle_beta  106.27900
_cell_angle_gamma 114.71300
_space_group_name_H-M_alt      'P 1'


loop_
_space_group_symop_operation_xyz
  'x, y, z' 

loop_
_atom_site_label
_atom_site_fract_x
_atom_site_fract_y
_atom_site_fract_z
_atom_site_type_symbol
C       0.0014   0.6724   0.5303     C
C       0.0119   0.9831   0.4583     C
C       0.0179   0.7508   0.7175     C
H        0.028    0.935    0.273     H
H         0.04    0.409     0.68     H
H        0.054    0.843    0.866     H
H       0.0604   0.6845   0.4879     H
C       0.0677   0.1158    0.733     C
H        0.069    0.282    0.287     H
H        0.071    0.455     0.14     H
C       0.0833   0.7515   0.6425     C
N       0.0883   0.6476   0.1209     N
C       0.1033   0.8381   0.8188     C
C       0.1035   0.1051   0.6441     C
H        0.107     0.01    0.451     H
C       0.1275   0.5458    0.118     C
C       0.1291   0.4036   0.5112     C
C        0.138   0.4595   0.6994     C
H        0.151    0.194    0.895     H
H        0.151    0.823    0.092     H
C       0.1705   0.7581   0.0935     C
C       0.1795   0.1914   0.8299     C
H         0.18    0.509    0.847     H
H       0.1893    0.421   0.4693     H
O       0.1985    0.325   0.0929     O
C       0.2045   0.4734    0.625     C
C        0.224   0.5202   0.8053     C
C       0.2329   0.8325   0.6729     C
C       0.2421   0.5534   0.0828     C
N       0.2488   0.9189   0.8457     N
C       0.2553   0.1784    0.655     C
C       0.2756   0.4329   0.0705     C
H        0.282    0.818     0.61     H
H        0.283     0.18    0.586     H
C       0.2872   0.7674   0.0606     C
C       0.3082   0.9112   0.7731     C
N       0.3245   0.2581   0.8416     N
N       0.3257   0.6669   0.0546     N
H        0.334    0.833    0.046     H
C       0.3578   0.5537   0.6631     C
C       0.3593   0.2531   0.7538     C
N       0.3717   0.5949     0.84     N
O       0.3835   0.4547   0.0349     O
H        0.387    0.952    0.776     H
H        0.394    0.556    0.618     H
O       0.4065   0.1345   0.0196     O
C       0.4354   0.6119   0.7667     C
H        0.455    0.348    0.213     H
H         0.47    0.301    0.755     H
Zn     0.49507  0.33999  0.99635    Zn
Zn     0.50493  0.66001  0.00365    Zn
H         0.53    0.699    0.245     H
H        0.545    0.652    0.787     H
C       0.5646   0.3881   0.2333     C
O       0.5935   0.8655   0.9804     O
H        0.606    0.444    0.382     H
H        0.613    0.048    0.224     H
O       0.6165   0.5453   0.9651     O
N       0.6283   0.4051     0.16     N
C       0.6407   0.7469   0.2462     C
C       0.6422   0.4463   0.3369     C
H        0.666    0.167    0.954     H
N       0.6743   0.3331   0.9454     N
N       0.6755   0.7419   0.1584     N
C       0.6918   0.0888   0.2269     C
C       0.7128   0.2326   0.9394     C
H        0.717     0.82    0.414     H
H        0.718    0.182     0.39     H
C       0.7244   0.5671   0.9295     C
C       0.7447   0.8216    0.345     C
N       0.7512   0.0811   0.1543     N
C       0.7579   0.4466   0.9172     C
C       0.7671   0.1675   0.3271     C
C        0.776   0.4798   0.1947     C
C       0.7955   0.5266    0.375     C
O       0.8015    0.675   0.9071     O
H       0.8107    0.579   0.5307     H
H         0.82    0.491    0.153     H
C       0.8205   0.8086   0.1701     C
C       0.8295   0.2419   0.9065     C
H        0.849    0.177    0.908     H
H        0.849    0.806    0.105     H
C        0.862   0.5405   0.3006     C
C       0.8709   0.5964   0.4888     C
C       0.8725   0.4542    0.882     C
H        0.893     0.99    0.549     H
C       0.8965   0.8949   0.3559     C
C       0.8967   0.1619   0.1812     C
N       0.9117   0.3524   0.8791     N
C       0.9167   0.2485   0.3575     C
H        0.929    0.545     0.86     H
H        0.931    0.718    0.713     H
C       0.9323   0.8842    0.267     C
H       0.9396   0.3155   0.5121     H
H        0.946    0.157    0.134     H
H         0.96    0.591     0.32     H
H        0.972    0.065    0.727     H
C       0.9821   0.2492   0.2825     C
C       0.9881   0.0169   0.5417     C
C       0.9986   0.3276   0.4697     C
