data_I
_chemical_name_common  '/Users/gianmarcoterrones/Research/MOFs/MOF_structures/water_stability_work_extra_structs/cleaned_from_CCDC/FEFVAO'
_cell_length_a 10.14590
_cell_length_b 11.12160
_cell_length_c 20.40180
_cell_angle_alpha 90.00000
_cell_angle_beta  90.00000
_cell_angle_gamma 114.77900
_space_group_name_H-M_alt      'P 1'


loop_
_space_group_symop_operation_xyz
  'x, y, z' 

loop_
_atom_site_label
_atom_site_fract_x
_atom_site_fract_y
_atom_site_fract_z
_atom_site_type_symbol
C        0.003   0.1796  0.89628     C
C       0.0087    0.935  0.99519     C
H         0.01    0.748    0.197     H
H         0.02    0.767    0.459     H
C       0.0235   0.8215  0.80791     C
N       0.0267   0.7076  0.78942     N
O        0.027   0.4809  0.74683     O
C        0.037   0.9349  0.41792     C
C       0.0455   0.0281  0.53088     C
H        0.053    0.931    0.963     H
C       0.0539    0.817  0.42122     C
H        0.062    0.955    0.544     H
C       0.0663   0.8032   0.1583     C
C       0.0789   0.9058   0.0541     C
H        0.085    0.138    0.012     H
C       0.0925   0.5274  0.23168     C
C       0.0975   0.4021  0.20637     C
H        0.101    0.095   0.3599     H
H        0.101    0.218    0.899     H
C       0.1019   0.0178    0.365     C
C       0.1036   0.1762  0.16909     C
H        0.105    0.086   0.1552     H
H         0.11    0.894    0.804     H
H        0.119    0.526   0.6239     H
C       0.1287   0.7852  0.37314     C
H         0.13    0.101    0.516     H
H         0.14    0.713   0.3757     H
C       0.1763   0.9805   0.3187     C
H        0.178    0.021   0.6817     H
N       0.1896   0.8654  0.32171     N
Zn     0.19772  0.67471 0.748411    Zn
O       0.2101   0.6279  0.23012     O
C       0.2103   0.5531  0.61895     C
N       0.2109   0.8652  0.16676     N
H         0.22    0.031   0.2786     H
H        0.221    0.468   0.5288     H
C       0.2222   0.3979  0.18108     C
N       0.2268    0.285  0.16249     N
C       0.2283   0.9684  0.06271     C
C       0.2717   0.5316  0.56271     C
N       0.2732    0.215  0.66249     N
C       0.2778   0.1021  0.68108     C
H        0.279    0.032   0.0288     H
H         0.28    0.469   0.7786     H
N       0.2891   0.6348  0.66676     N
C       0.2897   0.9469  0.11895     C
O       0.2899   0.8721  0.73012     O
Zn     0.30228  0.82529 0.248411    Zn
N       0.3104   0.6346  0.82171     N
H        0.322    0.479   0.1817     H
C       0.3237   0.5195   0.8187     C
H         0.36    0.787   0.8757     H
H         0.37    0.399    0.016     H
C       0.3713   0.7148  0.87314     C
H        0.381    0.974   0.1239     H
H         0.39    0.606    0.304     H
H        0.395    0.414   0.6552     H
C       0.3964   0.3238  0.66909     C
C       0.3981   0.4822    0.865     C
H        0.399    0.282    0.399     H
H        0.399    0.405   0.8599     H
C       0.4025   0.0979  0.70637     C
C       0.4075   0.9726  0.73168     C
H        0.415    0.362    0.512     H
C       0.4211   0.5942   0.5541     C
C       0.4337   0.6968   0.6583     C
H        0.438    0.545    0.044     H
C       0.4461    0.683  0.92122     C
H        0.447    0.569    0.463     H
C       0.4545   0.4719  0.03088     C
C        0.463   0.5651  0.91792     C
O        0.473   0.0191  0.24683     O
N       0.4733   0.7924  0.28942     N
C       0.4765   0.6785  0.30791     C
H         0.48    0.733    0.959     H
H         0.49    0.752    0.697     H
C       0.4913    0.565  0.49519     C
C        0.497   0.3204  0.39628     C
C        0.503   0.6796  0.60372     C
C       0.5087    0.435  0.50481     C
H         0.51    0.248    0.303     H
H         0.52    0.267    0.041     H
C       0.5235   0.3215  0.69209     C
N       0.5267   0.2076  0.71058     N
O        0.527   0.9809  0.75317     O
C        0.537   0.4349  0.08208     C
C       0.5455   0.5281  0.96912     C
H        0.553    0.431    0.537     H
C       0.5539    0.317  0.07878     C
H        0.562    0.455    0.956     H
C       0.5663   0.3032   0.3417     C
C       0.5789   0.4058   0.4459     C
H        0.585    0.638    0.488     H
C       0.5925   0.0274  0.26832     C
C       0.5975   0.9021  0.29363     C
H        0.601    0.595   0.1401     H
H        0.601    0.718    0.601     H
C       0.6019   0.5178    0.135     C
C       0.6036   0.6762  0.33091     C
H        0.605    0.586   0.3448     H
H         0.61    0.394    0.696     H
H        0.619    0.026   0.8761     H
C       0.6287   0.2852  0.12686     C
H         0.63    0.601    0.984     H
H         0.64    0.213   0.1243     H
C       0.6763   0.4805   0.1813     C
H        0.678    0.521   0.8183     H
N       0.6896   0.3654  0.17829     N
Zn     0.69772  0.17471 0.751589    Zn
O       0.7101   0.1279  0.26988     O
C       0.7103   0.0531  0.88105     C
N       0.7109   0.3652  0.33324     N
H         0.72    0.531   0.2214     H
H        0.721    0.968   0.9712     H
C       0.7222   0.8979  0.31892     C
N       0.7268    0.785  0.33751     N
C       0.7283   0.4684  0.43729     C
C       0.7717   0.0316  0.93729     C
N       0.7732    0.715  0.83751     N
C       0.7778   0.6021  0.81892     C
H        0.779    0.532   0.4712     H
H         0.78    0.969   0.7214     H
N       0.7891   0.1348  0.83324     N
C       0.7897   0.4469  0.38105     C
O       0.7899   0.3721  0.76988     O
Zn     0.80228  0.32529 0.251589    Zn
N       0.8104   0.1346  0.67829     N
H        0.822    0.979   0.3183     H
C       0.8237   0.0195   0.6813     C
H         0.86    0.287   0.6243     H
H         0.87    0.899    0.484     H
C       0.8713   0.2148  0.62686     C
H        0.881    0.474   0.3761     H
H         0.89    0.106    0.196     H
H        0.895    0.914   0.8448     H
C       0.8964   0.8238  0.83091     C
C       0.8981   0.9822    0.635     C
H        0.899    0.782    0.101     H
H        0.899    0.905   0.6401     H
C       0.9025   0.5979  0.79363     C
C       0.9075   0.4726  0.76832     C
H        0.915    0.862    0.988     H
C       0.9211   0.0942   0.9459     C
C       0.9337   0.1968   0.8417     C
H        0.938    0.045    0.456     H
C       0.9461    0.183  0.57878     C
H        0.947    0.069    0.037     H
C       0.9545   0.9719  0.46912     C
C        0.963   0.0651  0.58208     C
O        0.973   0.5191  0.25317     O
N       0.9733   0.2924  0.21058     N
C       0.9765   0.1785  0.19209     C
H         0.98    0.233    0.541     H
H         0.99    0.252    0.803     H
C       0.9913    0.065  0.00481     C
C        0.997   0.8204  0.10372     C
