data_I
_chemical_name_common  '/Users/gianmarcoterrones/Research/MOFs/MOF_structures/water_stability_work_extra_structs/cleaned_from_CCDC/FIJFAG'
_cell_length_a  7.26100
_cell_length_b  7.26100
_cell_length_c 13.73150
_cell_angle_alpha 105.33084
_cell_angle_beta  105.33084
_cell_angle_gamma 90.00000
_space_group_name_H-M_alt      'P 1'


loop_
_space_group_symop_operation_xyz
  'x, y, z' 

loop_
_atom_site_label
_atom_site_fract_x
_atom_site_fract_y
_atom_site_fract_z
_atom_site_type_symbol
Zn     0.02854  0.27854  0.05708    Zn
O       0.0294   0.5884   0.3564     O
H        0.045    0.083    0.706     H
O       0.0884    0.827   0.8564     O
H        0.089    0.275    0.792     H
C       0.1035   0.3359   0.6132     C
O       0.1245   0.3299   0.5248     O
C        0.133   0.1576     0.75     C
C       0.1641   0.9903   0.8868     C
O       0.1701   0.0997   0.9752     O
H        0.193    0.962    0.572     H
O       0.1949   0.6245   0.0248     O
Zn     0.22146  0.47146  0.44292    Zn
H        0.225    0.797    0.708     H
O        0.232   0.4706   0.1436     O
C       0.2338   0.2275     0.68     C
C       0.2725   0.0538     0.82     C
C       0.2773   0.6035   0.1132     C
H        0.297    0.983    0.208     H
C       0.3051   0.0551   0.6102     C
O        0.327    0.268   0.3564     O
H        0.339    0.877    0.294     H
C       0.3424    0.883     0.75     C
H        0.377    0.455    0.794     H
H        0.379     0.11    0.572     H
C        0.383   0.9076     0.25     C
H         0.39    0.307    0.928     H
O       0.4003   0.6949   0.5248     O
C       0.4076    0.367     0.75     C
H        0.417    0.839    0.794     H
C       0.4449   0.1949   0.8898     C
C       0.4462   0.9525     0.68     C
C       0.4525   0.7338     0.18     C
H        0.462    0.879    0.072     H
H        0.483    0.411    0.708     H
C       0.4903   0.2227   0.3868     C
C       0.5097   0.7773   0.6132     C
H        0.517    0.589    0.292     H
H        0.538    0.121    0.928     H
C       0.5475   0.2662     0.82     C
C       0.5538   0.0475     0.32     C
C       0.5551   0.8051   0.1102     C
H        0.583    0.161    0.206     H
C       0.5924    0.633     0.25     C
O       0.5997   0.3051   0.4752     O
H         0.61    0.693    0.072     H
C        0.617   0.0924     0.75     C
H        0.621     0.89    0.428     H
H        0.623    0.545    0.206     H
C       0.6576    0.117     0.25     C
H        0.661    0.123    0.706     H
O        0.673    0.732   0.6436     O
C       0.6949   0.9449   0.3898     C
H        0.703    0.017    0.792     H
C       0.7227   0.3965   0.8868     C
C       0.7275   0.9462     0.18     C
C       0.7662   0.7725     0.32     C
O        0.768   0.5294   0.8564     O
H        0.775    0.203    0.292     H
Zn     0.77854  0.52854  0.55708    Zn
O       0.8051   0.3755   0.9752     O
H        0.807    0.038    0.428     H
O       0.8299   0.9003   0.0248     O
C       0.8359   0.0097   0.1132     C
C        0.867   0.8424     0.25     C
O       0.8755   0.6701   0.4752     O
C       0.8965   0.6641   0.3868     C
H        0.911    0.725    0.208     H
O       0.9116    0.173   0.1436     O
H        0.955    0.917    0.294     H
O       0.9706   0.4116   0.6436     O
Zn     0.97146  0.72146  0.94292    Zn
