data_I
_chemical_name_common  '/Users/gianmarcoterrones/Research/MOFs/MOF_structures/water_stability_work_extra_structs/cleaned_from_CCDC/FOJLUN'
_cell_length_a 14.27500
_cell_length_b 18.90200
_cell_length_c 19.66700
_cell_angle_alpha 67.58600
_cell_angle_beta  85.46000
_cell_angle_gamma 68.97200
_space_group_name_H-M_alt      'P 1'


loop_
_space_group_symop_operation_xyz
  'x, y, z' 

loop_
_atom_site_label
_atom_site_fract_x
_atom_site_fract_y
_atom_site_fract_z
_atom_site_type_symbol
C       0.0021   0.0746   0.8794     C
H       0.0038   0.2803   0.6587     H
H       0.0057   0.8659   0.5945     H
C       0.0086   0.3008   0.4851     C
C       0.0101   0.2966   0.3588     C
H       0.0115   0.8096   0.8221     H
H       0.0137   0.6329   0.7781     H
O       0.0141   0.7802    0.183     O
H       0.0154   0.6124   0.3054     H
C       0.0158   0.3104   0.6085     C
H       0.0186   0.7297   0.6633     H
H       0.0201   0.9305   0.1628     H
C       0.0217   0.2541   0.4423     C
C       0.0223    0.606   0.5507     C
C       0.0235   0.9033   0.7354     C
H       0.0236   0.4288   0.1012     H
H       0.0249   0.4391   0.7722     H
H       0.0274   0.4079   0.4164     H
H       0.0274   0.5842   0.5131     H
C       0.0277   0.2611   0.5619     C
H       0.0321   0.6461   0.6563     H
H       0.0337   0.0576   0.2571     H
H        0.035   0.1493   0.7036     H
C       0.0383   0.1508    0.853     C
H       0.0403   0.6382   0.4112     H
C       0.0489   0.3885   0.6968     C
C       0.0494   0.8238   0.7819     C
O       0.0501   0.0093  0.63313     O
C       0.0515   0.1696   0.4745     C
C       0.0522   0.3631   0.2112     C
H       0.0525   0.9173   0.0892     H
H       0.0569   0.0255   0.9061     H
C       0.0591   0.1184   0.4288     C
C       0.0657   0.1767   0.5937     C
C       0.0743   0.4179   0.7442     C
C       0.0754   0.3984   0.1381     C
C       0.0783   0.1299   0.5502     C
H       0.0814   0.0615   0.4604     H
C       0.0815   0.9274   0.6766     C
H       0.0862   0.5831   0.5778     H
C       0.0936   0.1336   0.6775     C
H       0.1063   0.1274   0.3919     H
O       0.1093   0.3251   0.6068     O
O       0.1126   0.2871  0.33885     O
H       0.1184   0.0753    0.691     H
C        0.121   0.3603   0.6524     C
H        0.121   0.8677   0.3719     H
C        0.123    0.038   0.5854     C
O       0.1256     0.49  0.99937     O
C       0.1272   0.3227   0.2668     C
O       0.1298   0.4619   0.8519     O
C       0.1316   0.7629   0.7704     C
O       0.1376   0.6556   0.8838     O
H        0.138   0.0148   0.5478     H
N       0.1387   0.1372    0.869     N
H       0.1446   0.1495     0.69     H
H       0.1454   0.2426    0.867     H
H       0.1472   0.9216   0.4519     H
H       0.1544    0.484   0.3718     H
O       0.1598   0.8001   0.2803     O
C       0.1623   0.6739   0.8186     C
C       0.1649    0.869   0.6632     C
H       0.1678   0.7977   0.9384     H
C       0.1697   0.4172   0.7517     C
C       0.1729   0.3891   0.1198     C
O       0.1752   0.6112   0.2831     O
H       0.1763   0.2286   0.7935     H
O       0.1787   0.7473   0.0772     O
C       0.1817   0.2027   0.8463     C
H       0.1846   0.0243   0.9517     H
H       0.1849   0.0213    0.614     H
C       0.1863   0.8584   0.3861     C
C       0.1884   0.7874   0.7105     C
Cd     0.18917  0.72794 0.206596    Cd
C       0.1943   0.4283   0.0422     C
H       0.1956   0.3503   0.4542     H
C       0.1967   0.4416   0.8097     C
H       0.1997   0.8654    0.818     H
C       0.2018   0.8912   0.4333     C
H       0.2038    0.884   0.6238     H
C       0.2091   0.0501   0.9054     C
O         0.21   0.6217    0.792     O
H       0.2128   0.0209   0.8741     H
C       0.2157   0.8226   0.9292     C
C       0.2178   0.3642    0.655     C
C       0.2202   0.4476   0.3766     C
C       0.2265   0.3129   0.2499     C
Cd     0.22998  0.50999 0.900304    Cd
C       0.2366   0.8612   0.8571     C
C       0.2375   0.7828   0.0655     C
C       0.2408   0.3919    0.704     C
H       0.2436    0.216   0.4796     H
H       0.2439   0.7478   0.7019     H
C       0.2445   0.3676   0.4259     C
C       0.2475   0.7766   0.3061     C
C        0.249   0.3455   0.1769     C
H       0.2512   0.1794   0.8638     H
C        0.262   0.5628   0.2809     C
H       0.2654    0.348   0.6235     H
C       0.2655   0.8211   0.9864     C
H       0.2669   0.2282   0.5505     H
C       0.2671   0.8112    0.359     C
H       0.2748   0.0494   0.9137     H
O       0.2754   0.7934   0.1147     O
H       0.2777   0.2847   0.2873     H
H       0.2783   0.0824   0.4209     H
H       0.2786   0.5951   0.0011     H
O         0.28   0.4013   0.0204     O
O       0.2843   0.4402   0.8163     O
C       0.2915   0.4746   0.3346     C
C       0.2963   0.2028   0.5155     C
C       0.2995   0.8795   0.4538     C
H       0.3046    0.394   0.7059     H
H       0.3056   0.1573   0.4165     H
O       0.3083   0.9177   0.4992     O
C       0.3121   0.8934   0.8437     C
H       0.3155   0.3383   0.1659     H
O       0.3206   0.7263   0.2905     O
H       0.3216   0.1242   0.7101     H
O        0.323   0.5853   0.2376     O
O       0.3251   0.9297  0.76994     O
C       0.3295   0.0987   0.4324     C
C       0.3421   0.3132   0.4328     C
H       0.3429   0.1875   0.6373     H
C       0.3429   0.8521   0.9721     C
C        0.344   0.1111    0.555     C
C       0.3504   0.5793   0.0054     C
C       0.3549   0.0603   0.5148     C
C       0.3633   0.7973   0.3822     C
C       0.3665   0.1314   0.6711     C
H        0.367   0.6198   0.0148     H
C       0.3681   0.8869   0.9022     C
C       0.3699   0.0764   0.6303     C
O       0.3743   0.2323   0.4792     O
H       0.3781   0.5273   0.0454     H
H       0.3785   0.8489   0.0114     H
O       0.3803   0.5224   0.9126     O
C       0.3811   0.8311   0.4286     C
H       0.3886   0.0808   0.4075     H
C       0.3889   0.4206   0.3414     C
C       0.3923   0.9749   0.5512     C
C       0.3934   0.5726   0.9349     C
H       0.3962   0.8367   0.7054     H
C        0.402   0.9911   0.6667     C
C       0.4059   0.9215   0.5085     C
H       0.4116   0.7111   0.9305     H
C       0.4116   0.9395   0.6287     C
H       0.4123   0.9927   0.7708     H
C       0.4126   0.9533   0.7504     C
C       0.4146   0.3405   0.3909     C
H       0.4178    0.764    0.366     H
H       0.4214   0.9059   0.8937     H
H       0.4308   0.9445   0.4608     H
H       0.4327   0.1171   0.6915     H
H       0.4356   0.6247   0.7932     H
H       0.4374   0.4381   0.3127     H
C       0.4439   0.8488   0.6698     C
H       0.4465   0.8217   0.4427     H
N       0.4472   0.6188    0.897     N
H       0.4473   0.8228   0.6357     H
H       0.4539   0.8671    0.535     H
H       0.4657   0.4441   0.1621     H
C       0.4723   0.6716   0.9236     C
H       0.4742   0.9059   0.7679     H
H       0.4746   0.3521   0.1931     H
H       0.4807   0.3045   0.3963     H
H       0.4884   0.3607   0.0303     H
C       0.4893   0.6112   0.8276     C
H       0.4896   0.3006   0.1117     H
H        0.491   0.1712   0.3055     H
H        0.509   0.8288   0.6945     H
H       0.5104   0.6994   0.8883     H
C       0.5107   0.3888   0.1724     C
H       0.5116   0.6393   0.9697     H
H       0.5193   0.6955   0.6037     H
H       0.5254   0.6479   0.8069     H
H       0.5258   0.0941   0.2321     H
C       0.5277   0.3284   0.0764     C
H       0.5343   0.5559   0.8379     H
H       0.5461   0.1329    0.465     H
H       0.5527   0.1772   0.3643     H
N       0.5528   0.3812    0.103     N
H       0.5535   0.1783   0.5573     H
C       0.5561   0.1512   0.3302     C
H       0.5626   0.5619   0.6873     H
H       0.5644   0.3753   0.2068     H
H       0.5673   0.8829   0.3085     H
H       0.5692   0.0555   0.5392     H
H       0.5786   0.0941   0.1063     H
H       0.5822    0.236    0.634     H
C       0.5854   0.6595   0.6091     C
C       0.5874   0.0467   0.2496     C
H       0.5877   0.0073   0.2292     H
C       0.5884   0.0605   0.3713     C
H       0.5884   0.2889   0.0695     H
C       0.5941   0.0785   0.4915     C
C        0.598   0.0089   0.3333     C
H       0.6038   0.1633   0.2946     H
C       0.6066   0.4274   0.0651     C
C       0.6077   0.0251   0.4488     C
C       0.6111   0.5794   0.6586     C
H       0.6114   0.9192   0.5925     H
C       0.6189   0.1689   0.5714     C
O       0.6197   0.4776   0.0874     O
H       0.6215   0.1511   0.9886     H
H       0.6219   0.4727   0.9546     H
O       0.6257   0.7677   0.5208     O
C       0.6301   0.9236   0.3697     C
C       0.6319   0.1131   0.0978     C
H        0.633   0.3802   0.9852     H
C       0.6335   0.8686   0.3289     C
C       0.6367   0.2027   0.6178     C
C       0.6451   0.9397   0.4852     C
C       0.6496   0.4207   0.9946     C
C        0.656   0.8889    0.445     C
C       0.6571   0.1479   0.0279     C
H       0.6571   0.8125   0.3627     H
C       0.6579   0.6868   0.5672     C
C       0.6705   0.9013   0.5676     C
O       0.6749   0.0703  0.23006     O
O        0.677   0.4147   0.7624     O
H       0.6784   0.8758   0.2899     H
O       0.6794   0.2737   0.7095     O
H       0.6845   0.6617   0.8341     H
C       0.6879   0.1066   0.1563     C
O       0.6917   0.0823   0.5008     O
H       0.6944   0.8427   0.5835     H
H       0.6954    0.606   0.2941     H
C       0.7005   0.1205   0.5462     C
C       0.7037   0.7972   0.4845     C
C       0.7085   0.5254   0.6654     C
O       0.7157   0.5598   0.1837     O
O         0.72   0.5987   0.9796     O
H       0.7214   0.4049   0.9989     H
H       0.7217   0.9176   0.5791     H
H       0.7223   0.7153   0.7127     H
O       0.7246   0.2066   0.8853     O
H       0.7252   0.9506   0.0863     H
C       0.7329   0.1888    0.641     C
H       0.7331   0.7718   0.4495     H
C       0.7345   0.1789   0.0136     C
H       0.7346    0.652   0.3765     H
C        0.738   0.4372   0.7191     C
H       0.7488   0.8206   0.1362     H
C        0.751   0.6545   0.8231     C
C       0.7525   0.2234   0.6939     C
C       0.7555   0.6324   0.5741     C
H       0.7561   0.2522   0.2981     H
H       0.7564    0.784   0.5204     H
C       0.7592   0.6081    0.296     C
C       0.7625   0.2172   0.9345     C
C       0.7634   0.1388   0.1429     C
Cd     0.77002  0.49001 0.099696    Cd
C       0.7735   0.6871   0.7501     C
C       0.7798   0.5524   0.6234     C
C       0.7822   0.6358    0.345     C
C       0.7843   0.1774   0.0708     C
H       0.7872   0.9791   0.1259     H
O         0.79   0.3783    0.208     O
C       0.7909   0.9499   0.0946     C
H       0.7962    0.116   0.3762     H
C       0.7982   0.1088   0.5667     C
H       0.8003   0.1346    0.182     H
C       0.8033   0.5584   0.1903     C
H       0.8044   0.6497   0.5458     H
C       0.8057   0.5717   0.9578     C
Cd     0.81083  0.27206 0.793404    Cd
C       0.8116   0.2126   0.2895     C
C       0.8137   0.1416   0.6139     C
H       0.8151   0.9787    0.386     H
H       0.8154   0.9757   0.0483     H
C       0.8183   0.7973   0.1537     C
O       0.8213   0.2527   0.9228     O
H       0.8237   0.7714   0.2065     H
O       0.8248   0.3888   0.7169     O
C       0.8271   0.6109   0.8802     C
C       0.8303   0.5828   0.2483     C
H       0.8322   0.2023   0.0616     H
C       0.8351    0.131   0.3368     C
C       0.8377   0.3261   0.1814     C
O       0.8402   0.1999   0.7197     O
H       0.8456    0.516   0.6282     H
H       0.8528   0.0784   0.5481     H
H       0.8546   0.7574    0.133     H
H       0.8554   0.8505     0.31     H
N       0.8613   0.8628    0.131     N
H        0.862   0.9852   0.4522     H
O       0.8624   0.3444   0.1162     O
C       0.8684   0.2371   0.2296     C
O       0.8702   0.5381   0.1481     O
C       0.8728   0.6773   0.7332     C
O       0.8744     0.51  0.00063     O
C        0.877    0.962   0.4146     C
H        0.879   0.1323   0.6281     H
C        0.879   0.6397   0.3476     C
H       0.8816   0.9247    0.309     H
O       0.8874   0.7129  0.66115     O
O       0.8907   0.6749   0.3932     O
H       0.8937   0.8726   0.6081     H
C       0.9064   0.8664   0.3225     C
H       0.9138   0.4169   0.4222     H
C       0.9185   0.0726   0.3234     C
H       0.9186   0.9385   0.5396     H
C       0.9217   0.8701   0.4498     C
C       0.9246   0.6016   0.8619     C
C       0.9257   0.5821   0.2558     C
C       0.9343   0.8233   0.4063     C
C       0.9409   0.8816   0.5712     C
H       0.9431   0.9745   0.0939     H
H       0.9475   0.0827   0.9108     H
C       0.9478   0.6369   0.7888     C
C       0.9485   0.8304   0.5255     C
O       0.9499   0.9907  0.36687     O
C       0.9506   0.1762   0.2181     C
C       0.9511   0.6115   0.3032     C
H       0.9597   0.3618   0.5888     H
C       0.9617   0.8492    0.147     C
H        0.965   0.8507   0.2964     H
H       0.9663   0.9424   0.7429     H
H       0.9679   0.3539   0.3437     H
C       0.9723   0.7389   0.4381     C
H       0.9726   0.4158   0.4869     H
H       0.9726   0.5921   0.5836     H
H       0.9751   0.5609   0.2278     H
H       0.9764   0.5712   0.8988     H
C       0.9765   0.0967   0.2646     C
C       0.9777    0.394   0.4493     C
C       0.9783   0.7459   0.5577     C
H       0.9799   0.0695   0.8372     H
H       0.9814   0.2703   0.3367     H
C       0.9842   0.6896   0.3915     C
H       0.9846   0.3876   0.6946     H
O       0.9859   0.2198    0.817     O
H       0.9863   0.3671   0.2219     H
H       0.9885   0.1904   0.1779     H
C       0.9899   0.7034   0.6412     C
C       0.9914   0.6992   0.5149     C
H       0.9943   0.1341   0.4055     H
H       0.9962   0.7197   0.3413     H
C       0.9979   0.9254   0.1206     C
