data_I
_chemical_name_common  '/Users/gianmarcoterrones/Research/MOFs/MOF_structures/water_stability_work_extra_structs/cleaned_from_CCDC/FOPPIJ01'
_cell_length_a 11.22900
_cell_length_b 12.99900
_cell_length_c 14.03600
_cell_angle_alpha 101.98300
_cell_angle_beta  90.00000
_cell_angle_gamma 90.00000
_space_group_name_H-M_alt      'P 1'


loop_
_space_group_symop_operation_xyz
  'x, y, z' 

loop_
_atom_site_label
_atom_site_fract_x
_atom_site_fract_y
_atom_site_fract_z
_atom_site_type_symbol
C       0.0024   0.6335   0.9424     C
O      0.00707  0.36377  0.14412     O
O      0.02084  0.12331  0.97359     O
C       0.0274   0.6728  0.61401     C
H       0.0346   0.3649   0.8648     H
C       0.0428  0.55876  0.62203     C
C       0.0451  0.58262  0.33002     C
H       0.0487    0.281   0.6377     H
N      0.04899  0.48131  0.33643     N
C       0.0496  0.35178  0.63468     C
O      0.06926   0.2832  0.35281     O
C       0.0784   0.8739   0.0654     C
O      0.09661   0.8722  0.15353     O
H          0.1    0.151    0.095     H
O      0.10232   0.6295   0.9869     O
C       0.1062   0.3664   0.8983     C
C       0.1076   0.3662   0.9968     C
H       0.1082   0.8764   0.8735     H
O      0.10893  0.71444  0.57472     O
H        0.136     0.92    0.422     H
C       0.1429   0.4998   0.5887     C
C       0.1456   0.3948   0.5948     C
C       0.1504   0.6189  0.27834     C
O       0.1511  0.17075  0.13837     O
O      0.16319  0.71551  0.28513     O
O      0.17938  0.93996   0.3781     O
H         0.18    0.125    0.154     H
C       0.1814   0.8727   0.9036     C
H        0.186    0.004    0.398     H
C       0.1878   0.8711   0.0015     C
La    0.205738 0.350388 0.232887    La
H       0.2069   0.5301   0.5627     H
N      0.20868  0.36804  0.04732     N
H       0.2114   0.3535   0.5723     H
C       0.2134   0.3688    0.851     C
H       0.2153   0.3677   0.7846     H
O      0.21588  0.54736  0.23074     O
O      0.28412  0.04736  0.23074     O
H       0.2847   0.8677   0.7846     H
C       0.2866   0.8688    0.851     C
H       0.2886   0.8535   0.5723     H
N      0.29132  0.86804  0.04732     N
H       0.2931   0.0301   0.5627     H
La    0.294262 0.850388 0.232887    La
C       0.3122   0.3711   0.0015     C
H        0.314    0.504    0.398     H
C       0.3186   0.3727   0.9036     C
H         0.32    0.625    0.154     H
O      0.32062  0.43996   0.3781     O
O      0.33681  0.21551  0.28513     O
O       0.3489  0.67075  0.13837     O
C       0.3496   0.1189  0.27834     C
C       0.3544   0.8948   0.5948     C
C       0.3571   0.9998   0.5887     C
H        0.364     0.42    0.422     H
O      0.39107  0.21444  0.57472     O
H       0.3918   0.3764   0.8735     H
C       0.3924   0.8662   0.9968     C
C       0.3938   0.8664   0.8983     C
O      0.39768   0.1295   0.9869     O
H          0.4    0.651    0.095     H
O      0.40339   0.3722  0.15353     O
C       0.4216   0.3739   0.0654     C
O      0.43074   0.7832  0.35281     O
C       0.4504  0.85178  0.63468     C
N      0.45101  0.98131  0.33643     N
H       0.4513    0.781   0.6377     H
C       0.4549  0.08262  0.33002     C
C       0.4572  0.05876  0.62203     C
H       0.4654   0.8649   0.8648     H
C       0.4726   0.1728  0.61401     C
O      0.47916  0.62331  0.97359     O
O      0.49293  0.86377  0.14412     O
C       0.4976   0.1335   0.9424     C
C       0.5024   0.8665   0.0576     C
O      0.50707  0.13623  0.85588     O
O      0.52084  0.37669  0.02641     O
C       0.5274   0.8272  0.38599     C
H       0.5346   0.1351   0.1352     H
C       0.5428  0.94124  0.37797     C
C       0.5451  0.91738  0.66998     C
H       0.5487    0.219   0.3623     H
N      0.54899  0.01869  0.66357     N
C       0.5496  0.14822  0.36532     C
O      0.56926   0.2168  0.64719     O
C       0.5784   0.6261   0.9346     C
O      0.59661   0.6278  0.84647     O
H          0.6    0.349    0.905     H
O      0.60232   0.8705   0.0131     O
C       0.6062   0.1336   0.1017     C
C       0.6076   0.1338   0.0032     C
H       0.6082   0.6236   0.1265     H
O      0.60893  0.78556  0.42528     O
H        0.636     0.58    0.578     H
C       0.6429   0.0002   0.4113     C
C       0.6456   0.1052   0.4052     C
C       0.6504   0.8811  0.72166     C
O       0.6511  0.32925  0.86163     O
O      0.66319  0.78449  0.71487     O
O      0.67938  0.56004   0.6219     O
H         0.68    0.375    0.846     H
C       0.6814   0.6273   0.0964     C
H        0.686    0.496    0.602     H
C       0.6878   0.6289   0.9985     C
La    0.705738 0.149612 0.767113    La
H       0.7069   0.9699   0.4373     H
N      0.70868  0.13196  0.95268     N
H       0.7114   0.1465   0.4277     H
C       0.7134   0.1312    0.149     C
H       0.7153   0.1323   0.2154     H
O      0.71588  0.95264  0.76926     O
O      0.78412  0.45264  0.76926     O
H       0.7847   0.6323   0.2154     H
C       0.7866   0.6312    0.149     C
H       0.7886   0.6465   0.4277     H
N      0.79132  0.63196  0.95268     N
H       0.7931   0.4699   0.4373     H
La    0.794262 0.649612 0.767113    La
C       0.8122   0.1289   0.9985     C
H        0.814    0.996    0.602     H
C       0.8186   0.1273   0.0964     C
H         0.82    0.875    0.846     H
O      0.82062  0.06004   0.6219     O
O      0.83681  0.28449  0.71487     O
O       0.8489  0.82925  0.86163     O
C       0.8496   0.3811  0.72166     C
C       0.8544   0.6052   0.4052     C
C       0.8571   0.5002   0.4113     C
H        0.864     0.08    0.578     H
O      0.89107  0.28556  0.42528     O
H       0.8918   0.1236   0.1265     H
C       0.8924   0.6338   0.0032     C
C       0.8938   0.6336   0.1017     C
O      0.89768   0.3705   0.0131     O
H          0.9    0.849    0.905     H
O      0.90339   0.1278  0.84647     O
C       0.9216   0.1261   0.9346     C
O      0.93074   0.7168  0.64719     O
C       0.9504  0.64822  0.36532     C
N      0.95101  0.51869  0.66357     N
H       0.9513    0.719   0.3623     H
C       0.9549  0.41738  0.66998     C
C       0.9572  0.44124  0.37797     C
H       0.9654   0.6351   0.1352     H
C       0.9726   0.3272  0.38599     C
O      0.97916  0.87669  0.02641     O
O      0.99293  0.63623  0.85588     O
C       0.9976   0.3665   0.0576     C
