data_I
_chemical_name_common  '/Users/gianmarcoterrones/Research/MOFs/MOF_structures/water_stability_work_extra_structs/cleaned_from_CCDC/FORVOY'
_cell_length_a 15.16930
_cell_length_b 15.16930
_cell_length_c 15.16930
_cell_angle_alpha 90.00000
_cell_angle_beta  90.00000
_cell_angle_gamma 90.00000
_space_group_name_H-M_alt      'P 1'


loop_
_space_group_symop_operation_xyz
  'x, y, z' 

loop_
_atom_site_label
_atom_site_fract_x
_atom_site_fract_y
_atom_site_fract_z
_atom_site_type_symbol
C       0.0058  0.46007  0.78928     C
H         0.01   0.6912   0.1193     H
C       0.0115  0.29576    0.808     C
K      0.01321  0.01321  0.01321     K
O      0.02692  0.12176  0.53372     O
H       0.0282   0.3657   0.6933     H
O       0.0321  0.54311  0.65609     O
O      0.03372  0.47308  0.87824     O
H       0.0345   0.2413   0.7819     H
C      0.03859  0.54078  0.73703     C
C      0.03993  0.21072   0.5058     C
C      0.04078  0.76297  0.96141     C
H       0.0426   0.4251   0.9015     H
O      0.04311  0.84391   0.9679     O
C      0.04426   0.2146   0.4051     C
C       0.0446   0.3734   0.7546     C
O      0.04466  0.30354  0.89626     O
H       0.0484   0.3558   0.9096     H
H       0.0497   0.2755   0.3865     H
O      0.07081  0.60309   0.7825     O
H       0.0749   0.0985   0.5426     H
H       0.0794   0.1514   0.2547     H
Fe     0.08822  0.58822  0.91178    Fe
C       0.0893   0.7916   0.6922     C
H       0.0904   0.5484   0.1442     H
C       0.0949  0.95574   0.7146     C
H       0.0985   0.5426   0.0749     H
H       0.1001    0.386   0.1129     H
O      0.10309   0.7175  0.92919     O
O      0.10374  0.54466  0.19646     O
H       0.1084   0.3759   0.7578     H
H       0.1096   0.7788   0.7522     H
H       0.1129   0.1001    0.386     H
H       0.1135   0.9503   0.7755     H
H        0.114   0.8871   0.6001     H
H       0.1145   0.6761   0.6588     H
H       0.1193     0.01   0.6912     H
O      0.11988  0.72414   0.6347     O
O      0.12176  0.53372  0.02692     O
C       0.1219   0.1621  0.36995     C
H       0.1241   0.2422   0.6084     H
O      0.12644   0.1674  0.27596     O
C       0.1266   0.2454   0.5446     C
C      0.13005   0.8781   0.6621     C
H       0.1343   0.3067   0.5282     H
O       0.1347  0.38012  0.27586     O
H       0.1442   0.0904   0.5484     H
H       0.1514   0.2547   0.0794     H
O      0.15609   0.4679  0.45689     O
H       0.1588   0.3855   0.3239     H
C       0.1621  0.36995   0.1219     C
O       0.1674  0.27596  0.12644     O
H       0.1761   0.8412   0.8855     H
H       0.1912   0.3807     0.99     H
C        0.192   0.5115  0.20424     C
C       0.1922   0.4107   0.2084     C
H       0.1933   0.4718   0.6343     H
O      0.19646  0.10374  0.54466     O
C      0.20424    0.192   0.5115     C
C       0.2084   0.1922   0.4107     C
C      0.21072   0.5058  0.03993     C
C       0.2146   0.4051  0.04426     C
O       0.2175  0.57081  0.89691     O
H       0.2181   0.5345   0.2587     H
H       0.2212   0.2522   0.3904     H
O      0.22404  0.87356   0.6674     O
O      0.22414   0.8653  0.88012     O
H       0.2245   0.6135   0.5497     H
C      0.23703  0.46141  0.45922     C
H       0.2413   0.7819   0.0345     H
H       0.2422   0.6084   0.1241     H
H       0.2453   0.9206   0.6514     H
C       0.2454   0.5446   0.1266     C
H       0.2478   0.6096   0.7212     H
H       0.2522   0.3904   0.2212     H
C       0.2546   0.4554   0.6266     C
H       0.2547   0.0794   0.1514     H
H       0.2578   0.3916   0.6241     H
H       0.2587   0.2181   0.5345     H
C      0.26297  0.53859  0.95922     C
H       0.2755   0.3865   0.0497     H
O      0.27586   0.1347  0.38012     O
O      0.27596  0.12644   0.1674     O
H       0.2788   0.7478   0.8904     H
H       0.2819   0.4655   0.7587     H
O       0.2825  0.42919  0.39691     O
C       0.2854   0.5949  0.54426     C
C      0.28928   0.4942  0.53993     C
C       0.2916   0.8078   0.9107     C
C      0.29576    0.808   0.0115     C
O      0.30354  0.89626  0.04466     O
H       0.3067   0.5282   0.1343     H
C       0.3078   0.5893   0.7084     C
C        0.308   0.4885  0.70424     C
H       0.3088   0.6193     0.49     H
H       0.3239   0.1588   0.3855     H
O       0.3326  0.72404  0.62644     O
C       0.3379  0.63005   0.6219     C
H       0.3412   0.6145   0.8239     H
O      0.34391   0.5321  0.95689     O
H       0.3486   0.7453   0.5794     H
H       0.3558   0.9096   0.0484     H
O       0.3653  0.61988  0.77586     O
H       0.3657   0.6933   0.0282     H
C      0.36995   0.1219   0.1621     C
C       0.3734   0.7546   0.0446     C
O      0.37356   0.8326  0.77596     O
H       0.3759   0.7578   0.1084     H
C       0.3781   0.8379  0.86995     C
O      0.37824  0.46628  0.52692     O
O      0.38012  0.27586   0.1347     O
H       0.3807     0.99   0.1912     H
H       0.3855   0.3239   0.1588     H
H        0.386   0.1129   0.1001     H
H       0.3865   0.0497   0.2755     H
H       0.3871   0.8999    0.886     H
H       0.3904   0.2212   0.2522     H
H       0.3916   0.6241   0.2578     H
O      0.39626  0.45534  0.69646     O
O      0.39691   0.2825  0.42919     O
H       0.3999    0.614   0.6129     H
H       0.4015   0.4574   0.5749     H
C       0.4051  0.04426   0.2146     C
H       0.4096   0.4516   0.6442     H
C       0.4107   0.2084   0.1922     C
Fe     0.41178  0.41178  0.41178    Fe
H       0.4206   0.8486   0.7547     H
H       0.4251   0.9015   0.0426     H
O      0.42919  0.39691   0.2825     O
H       0.4503   0.7245   0.8865     H
H       0.4516   0.6442   0.4096     H
O      0.45534  0.69646  0.39626     O
C       0.4554   0.6266   0.2546     C
C      0.45574   0.7854   0.9051     C
O      0.45689  0.15609   0.4679     O
H       0.4574   0.5749   0.4015     H
C      0.45922  0.23703  0.46141     C
C      0.46007  0.78928   0.0058     C
C      0.46141  0.45922  0.23703     C
H       0.4655   0.7587   0.2819     H
O      0.46628  0.52692  0.37824     O
O       0.4679  0.45689  0.15609     O
H       0.4718   0.6343   0.1933     H
O      0.47308  0.87824  0.03372     O
K      0.48679  0.98679  0.51321     K
C       0.4885  0.70424    0.308     C
H         0.49   0.3088   0.6193     H
C       0.4942  0.53993  0.28928     C
C       0.5058  0.03993  0.21072     C
H         0.51   0.8088   0.8807     H
C       0.5115  0.20424    0.192     C
K      0.51321  0.48679  0.98679     K
O      0.52692  0.37824  0.46628     O
H       0.5282   0.1343   0.3067     H
O       0.5321  0.95689  0.34391     O
O      0.53372  0.02692  0.12176     O
H       0.5345   0.2587   0.2181     H
C      0.53859  0.95922  0.26297     C
C      0.53993  0.28928   0.4942     C
C      0.54078  0.73703  0.03859     C
H       0.5426   0.0749   0.0985     H
O      0.54311  0.65609   0.0321     O
C      0.54426   0.2854   0.5949     C
C       0.5446   0.1266   0.2454     C
O      0.54466  0.19646  0.10374     O
H       0.5484   0.1442   0.0904     H
H       0.5497   0.2245   0.6135     H
O      0.57081  0.89691   0.2175     O
H       0.5749   0.4015   0.4574     H
H       0.5794   0.3486   0.7453     H
Fe     0.58822  0.91178  0.08822    Fe
C       0.5893   0.7084   0.3078     C
H       0.5904   0.9516   0.8558     H
C       0.5949  0.54426   0.2854     C
H       0.5985   0.9574   0.9251     H
H       0.6001    0.114   0.8871     H
O      0.60309   0.7825  0.07081     O
O      0.60374  0.95534  0.80354     O
H       0.6084   0.1241   0.2422     H
H       0.6096   0.7212   0.2478     H
H       0.6129   0.3999    0.614     H
H       0.6135   0.5497   0.2245     H
H        0.614   0.6129   0.3999     H
H       0.6145   0.8239   0.3412     H
H       0.6193     0.49   0.3088     H
O      0.61988  0.77586   0.3653     O
O      0.62176  0.96628  0.97308     O
C       0.6219   0.3379  0.63005     C
H       0.6241   0.2578   0.3916     H
O      0.62644   0.3326  0.72404     O
C       0.6266   0.2546   0.4554     C
C      0.63005   0.6219   0.3379     C
H       0.6343   0.1933   0.4718     H
O       0.6347  0.11988  0.72414     O
H       0.6442   0.4096   0.4516     H
H       0.6514   0.2453   0.9206     H
O      0.65609   0.0321  0.54311     O
H       0.6588   0.1145   0.6761     H
C       0.6621  0.13005   0.8781     C
O       0.6674  0.22404  0.87356     O
H       0.6761   0.6588   0.1145     H
H       0.6912   0.1193     0.01     H
C        0.692   0.9885  0.79576     C
C       0.6922   0.0893   0.7916     C
H       0.6933   0.0282   0.3657     H
O      0.69646  0.39626  0.45534     O
C      0.70424    0.308   0.4885     C
C       0.7084   0.3078   0.5893     C
C      0.71072   0.9942  0.96007     C
C       0.7146   0.0949  0.95574     C
O       0.7175  0.92919  0.10309     O
H       0.7181   0.9655   0.7413     H
H       0.7212   0.2478   0.6096     H
O      0.72404  0.62644   0.3326     O
O      0.72414   0.6347  0.11988     O
H       0.7245   0.8865   0.4503     H
C      0.73703  0.03859  0.54078     C
H       0.7413   0.7181   0.9655     H
H       0.7422   0.8916   0.8759     H
H       0.7453   0.5794   0.3486     H
C       0.7454   0.9554   0.8734     C
H       0.7478   0.8904   0.2788     H
H       0.7522   0.1096   0.7788     H
C       0.7546   0.0446   0.3734     C
H       0.7547   0.4206   0.8486     H
H       0.7578   0.1084   0.3759     H
H       0.7587   0.2819   0.4655     H
C      0.76297  0.96141  0.04078     C
H       0.7755   0.1135   0.9503     H
O      0.77586   0.3653  0.61988     O
O      0.77596  0.37356   0.8326     O
H       0.7788   0.7522   0.1096     H
H       0.7819   0.0345   0.2413     H
O       0.7825  0.07081  0.60309     O
C       0.7854   0.9051  0.45574     C
C      0.78928   0.0058  0.46007     C
C       0.7916   0.6922   0.0893     C
C      0.79576    0.692   0.9885     C
O      0.80354  0.60374  0.95534     O
H       0.8067   0.9718   0.8657     H
C       0.8078   0.9107   0.2916     C
C        0.808   0.0115  0.29576     C
H       0.8088   0.8807     0.51     H
H       0.8239   0.3412   0.6145     H
O       0.8326  0.77596  0.37356     O
C       0.8379  0.86995   0.3781     C
H       0.8412   0.8855   0.1761     H
O      0.84391   0.9679  0.04311     O
H       0.8486   0.7547   0.4206     H
H       0.8558   0.5904   0.9516     H
O       0.8653  0.88012  0.22414     O
H       0.8657   0.8067   0.9718     H
C      0.86995   0.3781   0.8379     C
C       0.8734   0.7454   0.9554     C
O      0.87356   0.6674  0.22404     O
H       0.8759   0.7422   0.8916     H
C       0.8781   0.6621  0.13005     C
O      0.87824  0.03372  0.47308     O
O      0.88012  0.22414   0.8653     O
H       0.8807     0.51   0.8088     H
H       0.8855   0.1761   0.8412     H
H        0.886   0.3871   0.8999     H
H       0.8865   0.4503   0.7245     H
H       0.8871   0.6001    0.114     H
H       0.8904   0.2788   0.7478     H
H       0.8916   0.8759   0.7422     H
O      0.89626  0.04466  0.30354     O
O      0.89691   0.2175  0.57081     O
H       0.8999    0.886   0.3871     H
H       0.9015   0.0426   0.4251     H
C       0.9051  0.45574   0.7854     C
H       0.9096   0.0484   0.3558     H
C       0.9107   0.2916   0.8078     C
Fe     0.91178  0.08822  0.58822    Fe
H       0.9206   0.6514   0.2453     H
H       0.9251   0.5985   0.9574     H
O      0.92919  0.10309   0.7175     O
H       0.9503   0.7755   0.1135     H
H       0.9516   0.8558   0.5904     H
O      0.95534  0.80354  0.60374     O
C       0.9554   0.8734   0.7454     C
C      0.95574   0.7146   0.0949     C
O      0.95689  0.34391   0.5321     O
H       0.9574   0.9251   0.5985     H
C      0.95922  0.26297  0.53859     C
C      0.96007  0.71072   0.9942     C
C      0.96141  0.04078  0.76297     C
H       0.9655   0.7413   0.7181     H
O      0.96628  0.97308  0.62176     O
O       0.9679  0.04311  0.84391     O
H       0.9718   0.8657   0.8067     H
O      0.97308  0.62176  0.96628     O
K      0.98679  0.51321  0.48679     K
C       0.9885  0.79576    0.692     C
H         0.99   0.1912   0.3807     H
C       0.9942  0.96007  0.71072     C
