data_I
_chemical_name_common  '/Users/gianmarcoterrones/Research/MOFs/MOF_structures/water_stability_work_extra_structs/cleaned_from_CCDC/FUJCOC01'
_cell_length_a 10.10500
_cell_length_b 15.59000
_cell_length_c 18.13300
_cell_angle_alpha 90.00000
_cell_angle_beta  90.00000
_cell_angle_gamma 103.29000
_space_group_name_H-M_alt      'P 1'


loop_
_space_group_symop_operation_xyz
  'x, y, z' 

loop_
_atom_site_label
_atom_site_fract_x
_atom_site_fract_y
_atom_site_fract_z
_atom_site_type_symbol
C        0.003   0.8715   0.8211     C
H       0.0057   0.5671   0.3962     H
H       0.0081   0.1589   0.2893     H
C       0.0123   0.4935   0.6113     C
H       0.0144   0.9424   0.7249     H
C        0.017   0.0526   0.1305     C
H       0.0222   0.9418   0.9176     H
C       0.0238   0.5893   0.1937     C
H       0.0328   0.0023    0.848     H
C       0.0362   0.1151   0.2589     C
C       0.0373   0.5564   0.8925     C
C       0.0405   0.3689   0.4128     C
H       0.0443   0.6399   0.2226     H
H       0.0478   0.2229   0.0986     H
H       0.0546   0.2635    0.178     H
H       0.0609   0.6067   0.9215     H
C       0.0658   0.6703   0.6326     C
C       0.0679   0.4584   0.4234     C
C       0.0746   0.2167   0.1487     C
O       0.0841   0.1498   0.5661     O
H       0.0861   0.7309   0.6402     H
O       0.0899   0.0447   0.4196     O
C       0.0903   0.4984    0.102     C
N       0.0978   0.4657   0.7994     N
H       0.0998   0.5048   0.6998     H
O       0.1042   0.2339   0.4309     O
H       0.1057   0.4852   0.7525     H
N        0.115    0.531   0.6554     N
C       0.1202   0.5733   0.1452     C
C       0.1246   0.3137   0.4522     C
C       0.1294   0.5361   0.8437     C
H       0.1394   0.4861   0.4535     H
O       0.1403   0.2934    0.909     O
C       0.1409    0.619   0.6665     C
C       0.1577   0.8753   0.8196     C
H       0.1611   0.4341    0.806     H
N       0.1623   0.0478   0.1204     N
H       0.1704   0.2195   0.1506     H
O       0.1711   0.3959   0.0314     O
H       0.1748   0.8295   0.7881     H
N       0.1817   0.1209    0.272     N
H       0.1885   0.8671   0.8686     H
H       0.1912   0.5183   0.6372     H
C       0.1972   0.4749   0.0524     C
O       0.2008   0.9668   0.5369     O
O       0.2024   0.3469    0.501     O
H       0.2046   0.6125   0.1416     H
H       0.2057   0.9316   0.8011     H
Cu     0.21141  0.16663  0.48181    Cu
H       0.2115   0.6453   0.6978     H
H       0.2164   0.5723   0.8413     H
Pt     0.22126 0.456049 0.711897    Pt
Pt     0.27874 0.043951 0.211897    Pt
H       0.2836   0.9277   0.3413     H
H       0.2885   0.8547   0.1978     H
Cu     0.28859  0.33337  0.98181    Cu
H       0.2943   0.5684   0.3011     H
H       0.2954   0.8875   0.6416     H
O       0.2976   0.1531    0.001     O
O       0.2992   0.5332   0.0369     O
C       0.3028   0.0251   0.5524     C
H       0.3088   0.9817   0.1372     H
H       0.3115   0.6329   0.3686     H
N       0.3183   0.3791    0.772     N
H       0.3252   0.6705   0.2881     H
O       0.3289   0.1041   0.5314     O
H       0.3296   0.2805   0.6506     H
N       0.3377   0.4522   0.6204     N
H       0.3389   0.0659    0.306     H
C       0.3423   0.6247   0.3196     C
C       0.3591    0.881   0.1665     C
O       0.3597   0.2066    0.409     O
H       0.3606   0.0139   0.9535     H
C       0.3706   0.9639   0.3437     C
C       0.3754   0.1863   0.9522     C
C       0.3798   0.9267   0.6452     C
N        0.385    0.969   0.1554     N
H       0.3943   0.0148   0.2525     H
O       0.3958   0.2661   0.9309     O
H       0.4002   0.9952   0.1998     H
N       0.4022   0.0343   0.2994     N
C       0.4097   0.0016    0.602     C
O       0.4101   0.4553   0.9196     O
H       0.4139   0.7691   0.1402     H
O       0.4159   0.3502   0.0661     O
C       0.4254   0.2833   0.6487     C
C       0.4321   0.0416   0.9234     C
C       0.4342   0.8297   0.1326     C
H       0.4391   0.8933   0.4215     H
H       0.4454   0.2365    0.678     H
H       0.4522   0.2771   0.5986     H
H       0.4557   0.8601   0.7226     H
C       0.4595   0.1311   0.9128     C
C       0.4627   0.9436   0.3925     C
C       0.4638   0.3849   0.7589     C
H       0.4672   0.4977    0.348     H
C       0.4762   0.9107   0.6937     C
H       0.4778   0.5582   0.4176     H
C        0.483   0.4474   0.6305     C
H       0.4856   0.5576   0.2249     H
C       0.4877   0.0065   0.1113     C
H       0.4919   0.3411   0.7893     H
H       0.4943   0.9329   0.8962     H
C        0.497   0.6285   0.3211     C
C        0.503   0.3715   0.6789     C
H       0.5057   0.0671   0.1038     H
H       0.5081   0.6589   0.2107     H
C       0.5123   0.9935   0.8887     C
H       0.5144   0.4424   0.7751     H
C        0.517   0.5526   0.3695     C
H       0.5222   0.4418   0.5824     H
C       0.5238   0.0893   0.3063     C
H       0.5328   0.5023    0.652     H
C       0.5362   0.6151   0.2411     C
C       0.5373   0.0564   0.6075     C
C       0.5405   0.8689   0.0872     C
H       0.5443   0.1399   0.2774     H
H       0.5478   0.7229   0.4014     H
H       0.5546   0.7635    0.322     H
H       0.5609   0.1067   0.5785     H
C       0.5658   0.1703   0.8674     C
C       0.5679   0.9584   0.0766     C
C       0.5746   0.7167   0.3513     C
O       0.5841   0.6498   0.9339     O
H       0.5861   0.2309   0.8598     H
O       0.5899   0.5447   0.0804     O
C       0.5903   0.9984    0.398     C
N       0.5978   0.9657   0.7006     N
H       0.5998   0.0048   0.8002     H
O       0.6042   0.7339   0.0691     O
H       0.6057   0.9852   0.7475     H
N        0.615    0.031   0.8446     N
C       0.6202   0.0733   0.3548     C
C       0.6246   0.8137   0.0478     C
C       0.6294   0.0361   0.6563     C
H       0.6394   0.9861   0.0465     H
O       0.6403   0.7934    0.591     O
C       0.6409    0.119   0.8335     C
C       0.6577   0.3753   0.6804     C
H       0.6611   0.9341    0.694     H
N       0.6623   0.5478   0.3796     N
H       0.6704   0.7195   0.3494     H
O       0.6711   0.8959   0.4686     O
H       0.6748   0.3295   0.7119     H
N       0.6817   0.6209    0.228     N
H       0.6885   0.3671   0.6314     H
H       0.6912   0.0183   0.8628     H
C       0.6972   0.9749   0.4476     C
O       0.7008   0.4668   0.9631     O
O       0.7024   0.8469    0.999     O
H       0.7046   0.1125   0.3584     H
H       0.7057   0.4316   0.6989     H
Cu     0.71141  0.66663  0.01819    Cu
H       0.7115   0.1453   0.8022     H
H       0.7164   0.0723   0.6587     H
Pt     0.72126 0.956049 0.788103    Pt
Pt     0.77874 0.543951 0.288103    Pt
H       0.7836   0.4277   0.1587     H
H       0.7885   0.3547   0.3022     H
Cu     0.78859  0.83337  0.51819    Cu
H       0.7943   0.0684   0.1989     H
H       0.7954   0.3875   0.8584     H
O       0.7976   0.6531    0.499     O
O       0.7992   0.0332   0.4631     O
C       0.8028   0.5251   0.9476     C
H       0.8088   0.4817   0.3628     H
H       0.8115   0.1329   0.1314     H
N       0.8183   0.8791    0.728     N
H       0.8252   0.1705   0.2119     H
O       0.8289   0.6041   0.9686     O
H       0.8296   0.7805   0.8494     H
N       0.8377   0.9522   0.8796     N
H       0.8389   0.5659    0.194     H
C       0.8423   0.1247   0.1804     C
C       0.8591    0.381   0.3335     C
O       0.8597   0.7066    0.091     O
H       0.8606   0.5139   0.5465     H
C       0.8706   0.4639   0.1563     C
C       0.8754   0.6863   0.5478     C
C       0.8798   0.4267   0.8548     C
N        0.885    0.469   0.3446     N
H       0.8943   0.5148   0.2475     H
O       0.8958   0.7661   0.5691     O
H       0.9002   0.4952   0.3002     H
N       0.9022   0.5343   0.2006     N
C       0.9097   0.5016    0.898     C
O       0.9101   0.9553   0.5804     O
H       0.9139   0.2691   0.3598     H
O       0.9159   0.8502   0.4339     O
C       0.9254   0.7833   0.8513     C
C       0.9321   0.5416   0.5766     C
C       0.9342   0.3297   0.3674     C
H       0.9391   0.3933   0.0785     H
H       0.9454   0.7365    0.822     H
H       0.9522   0.7771   0.9014     H
H       0.9557   0.3601   0.7774     H
C       0.9595   0.6311   0.5872     C
C       0.9627   0.4436   0.1075     C
C       0.9638   0.8849   0.7411     C
H       0.9672   0.9977    0.152     H
C       0.9762   0.4107   0.8063     C
H       0.9778   0.0582   0.0824     H
C        0.983   0.9474   0.8695     C
H       0.9856   0.0576   0.2751     H
C       0.9877   0.5065   0.3887     C
H       0.9919   0.8411   0.7107     H
H       0.9943   0.4329   0.6038     H
C        0.997   0.1285   0.1789     C
