data_I
_chemical_name_common  '/Users/gianmarcoterrones/Research/MOFs/MOF_structures/water_stability_work_extra_structs/cleaned_from_CCDC/GAYGIY'
_cell_length_a  8.05241
_cell_length_b  8.23847
_cell_length_c 13.31208
_cell_angle_alpha 90.00000
_cell_angle_beta  90.00000
_cell_angle_gamma 112.33270
_space_group_name_H-M_alt      'P 1'


loop_
_space_group_symop_operation_xyz
  'x, y, z' 

loop_
_atom_site_label
_atom_site_fract_x
_atom_site_fract_y
_atom_site_fract_z
_atom_site_type_symbol
Cu         0.0      0.0      0.0    Cu
C     0.0010002 0.44654933 0.1385435     C
H     0.02624152 0.1912111 0.6392809     H
C     0.03003963 0.8486816 0.2977666     C
N     0.0441925 0.801985 0.9396577     N
N     0.04558558 0.1044048 0.7828083     N
H     0.0558679 0.56378867 0.1621431     H
N     0.0772829 0.363658 0.0762736     N
N     0.07801746 0.94481204 0.1420245     N
H     0.1620185 0.54618313 0.6392227     H
H     0.1639679 0.1057733 0.7860216     H
C     0.1676205 0.667864 0.8389027     C
H     0.1947917 0.41282941 0.0487389     H
C     0.1955511 0.8214667 0.8872338     C
H     0.1979144 0.5756858 0.3848017     H
C     0.2003816 0.8689041 0.2723974     C
C     0.2300335 0.92831604 0.1761435     C
C     0.2699665 0.57168396 0.6761435     C
C     0.2996184 0.6310959 0.7723974     C
H     0.3020856 0.9243142 0.8848017     H
C     0.3044489 0.6785333 0.3872338     C
H     0.3052083 0.08717059 0.5487389     H
C     0.3323795 0.832136 0.3389027     C
H     0.3360321 0.3942267 0.2860216     H
H     0.3379815 0.95381687 0.1392227     H
N     0.42198254 0.55518796 0.6420245     N
N     0.4227171 0.136342 0.5762736     N
H     0.4441321 0.93621133 0.6621431     H
N     0.45441442 0.3955952 0.2828083     N
N     0.4558075 0.698015 0.4396577     N
C     0.46996037 0.6513184 0.7977666     C
H     0.47375848 0.3087889 0.1392809     H
C     0.4989998 0.05345067 0.6385435     C
Cu         0.5      0.5      0.5    Cu
C     0.5010002 0.94654933 0.3614565     C
H     0.52624152 0.6912111 0.8607191     H
C     0.53003963 0.3486816 0.2022334     C
N     0.5441925 0.301985 0.5603423     N
N     0.54558558 0.6044048 0.7171917     N
H     0.5558679 0.06378867 0.3378569     H
N     0.5772829 0.863658 0.4237264     N
N     0.57801746 0.44481204 0.3579755     N
H     0.6620185 0.04618313 0.8607773     H
H     0.6639679 0.6057733 0.7139784     H
C     0.6676205 0.167864 0.6610973     C
H     0.6947917 0.91282941 0.4512611     H
C     0.6955511 0.3214667 0.6127662     C
H     0.6979144 0.0756858 0.1151983     H
C     0.7003816 0.3689041 0.2276026     C
C     0.7300335 0.42831604 0.3238565     C
C     0.7699665 0.07168396 0.8238565     C
C     0.7996184 0.1310959 0.7276026     C
H     0.8020856 0.4243142 0.6151983     H
C     0.8044489 0.1785333 0.1127662     C
H     0.8052083 0.58717059 0.9512611     H
C     0.8323795 0.332136 0.1610973     C
H     0.8360321 0.8942267 0.2139784     H
H     0.8379815 0.45381687 0.3607773     H
N     0.92198254 0.05518796 0.8579755     N
N     0.9227171 0.636342 0.9237264     N
H     0.9441321 0.43621133 0.8378569     H
N     0.95441442 0.8955952 0.2171917     N
N     0.9558075 0.198015 0.0603423     N
C     0.96996037 0.1513184 0.7022334     C
H     0.97375848 0.8087889 0.3607191     H
C     0.9989998 0.55345067 0.8614565     C
