data_I
_chemical_name_common  '/Users/gianmarcoterrones/Research/MOFs/MOF_structures/water_stability_work_extra_structs/cleaned_from_CCDC/GAYGOE'
_cell_length_a  4.99711
_cell_length_b  7.22401
_cell_length_c 10.38357
_cell_angle_alpha 73.11476
_cell_angle_beta  84.63198
_cell_angle_gamma 70.13743
_space_group_name_H-M_alt      'P 1'


loop_
_space_group_symop_operation_xyz
  'x, y, z' 

loop_
_atom_site_label
_atom_site_fract_x
_atom_site_fract_y
_atom_site_fract_z
_atom_site_type_symbol
Cd         0.0      0.0      0.0    Cd
C     0.02935247 0.0152431 0.4264514     C
C     0.04871235 0.0579427 0.6656355     C
N     0.07095385 0.009814 0.2146101     N
O     0.1552963 0.2727623 0.8964549     O
H     0.166205 0.1416916 0.6491952     H
C     0.1972654 0.1282313 0.3636097     C
N     0.2229764 0.1248759 0.2326846     N
H     0.2800446 0.5810338 0.7670377     H
H     0.2817624 0.197363 0.4040653     H
H     0.3285866 0.1912524 0.1656283     H
C     0.3779067 0.31155521 0.90390989     C
H     0.4206741 0.4868243 0.1697855     H
C      0.44813  0.46839  0.79721     C
O     0.4600201 0.78485419 0.99665251     O
H     0.4689068 0.5861397 0.2756283     H
H     0.5310932 0.4138603 0.7243717     H
O     0.5399799 0.21514581 0.00334749     O
C      0.55187  0.53161  0.20279     C
H     0.5793259 0.5131757 0.8302145     H
C     0.6220933 0.68844479 0.09609011     C
H     0.6714134 0.8087476 0.8343717     H
H     0.7182376 0.802637 0.5959347     H
H     0.7199554 0.4189662 0.2329623     H
N     0.7770236 0.8751241 0.7673154     N
C     0.8027346 0.8717687 0.6363903     C
H     0.833795 0.8583084 0.3508048     H
O     0.8447037 0.7272377 0.1035451     O
N     0.92904615 0.990186 0.7853899     N
C     0.95128765 0.9420573 0.3343645     C
C     0.97064753 0.9847569 0.5735486     C
