data_I
_chemical_name_common  '/Users/gianmarcoterrones/Research/MOFs/MOF_structures/water_stability_work_extra_structs/cleaned_from_CCDC/GAZKOJ'
_cell_length_a 15.31480
_cell_length_b 15.31480
_cell_length_c 15.31480
_cell_angle_alpha 90.00000
_cell_angle_beta  90.00000
_cell_angle_gamma 90.00000
_space_group_name_H-M_alt      'P 1'


loop_
_space_group_symop_operation_xyz
  'x, y, z' 

loop_
_atom_site_label
_atom_site_fract_x
_atom_site_fract_y
_atom_site_fract_z
_atom_site_type_symbol
C      0.00396  0.12466  0.70461     C
H       0.0069   0.5306    0.642     H
H       0.0073   0.2148   0.4704     H
H       0.0096   0.1277   0.6416     H
H       0.0118   0.5291   0.3842     H
H       0.0157   0.7259    0.173     H
C      0.01623  0.78926  0.78794     C
O      0.02519  0.35135  0.67684     O
O      0.02547  0.36931  0.39129     O
O      0.02717  0.57978  0.37634     O
H       0.0285   0.6994   0.6378     H
H       0.0291   0.1158   0.9882     H
H       0.0296   0.9927   0.7148     H
H       0.0306    0.858   0.9931     H
C      0.03197  0.20486  0.84431     C
C      0.03656  0.21021  0.74482     C
C      0.04247  0.83876  0.05302     C
C      0.04636  0.73853  0.05508     C
C      0.05302  0.04247  0.83876     C
H        0.055   0.2584   0.8692     H
C      0.05508  0.04636  0.73853     C
O      0.05561  0.70679  0.14282     O
H       0.0574   0.6171   0.7817     H
H       0.0729   0.3547   0.4113     H
O      0.07978  0.12366  0.97283     O
C      0.08378  0.12726  0.87945     C
H       0.0887   0.9271   0.8547     H
O       0.0961   0.7887  0.77731     O
O      0.10871  0.97453  0.86931     O
H       0.1158   0.9882   0.0291     H
H       0.1171   0.7183   0.9426     H
C      0.12055  0.58378  0.37274     C
O      0.12366  0.97283  0.07978     O
C      0.12466  0.70461  0.00396     C
O      0.12612  0.22502  0.71895     O
C      0.12726  0.87945  0.08378     C
H       0.1277   0.6416   0.0096     H
O      0.13069  0.60871  0.52547     O
H       0.1308    0.555   0.2416     H
H       0.1357   0.8629    0.145     H
H       0.1371    0.645   0.3643     H
H       0.1378   0.4715   0.3006     H
H       0.1416   0.4904   0.8723     H
H        0.142   0.4931   0.4694     H
O      0.14282  0.05561  0.70679     O
H        0.145   0.1357   0.8629     H
H       0.1453   0.5887   0.5729     H
H        0.147    0.186     0.71     H
O      0.14865  0.32316  0.52519     O
C      0.15569  0.53197  0.29514     C
Co    0.157254 0.342746 0.657254    Co
C      0.16124  0.55302  0.45753     C
H        0.173   0.0157   0.7259     H
O      0.17684  0.47481  0.64865     O
H        0.186     0.71    0.147     H
H       0.1994   0.8622   0.9715     H
C      0.20461  0.49604  0.87534     C
C      0.20486  0.84431  0.03197     C
O      0.20679  0.35718  0.94439     O
H         0.21    0.353    0.814     H
C      0.21021  0.74482  0.03656     C
C      0.21074  0.28794  0.48377     C
O       0.2113  0.27731   0.4039     O
C      0.21206  0.51623  0.71074     C
H       0.2148   0.4704   0.0073     H
H       0.2183   0.5574   0.8829     H
O      0.21895  0.37388  0.77498     O
O      0.22269   0.5961   0.7113     O
O      0.22502  0.71895  0.12612     O
H       0.2259    0.327   0.9843     H
K      0.23753  0.23753  0.23753     K
C      0.23853  0.44492  0.95364     C
H       0.2416   0.1308    0.555     H
C      0.24482  0.46344  0.78979     C
C      0.25518  0.53656  0.28979     C
H       0.2584   0.8692    0.055     H
C      0.26147  0.55508  0.45364     C
K      0.26247  0.76247  0.73753     K
H       0.2741    0.673   0.4843     H
O      0.27498  0.28105  0.62612     O
O      0.27731   0.4039   0.2113     O
O      0.28105  0.62612  0.27498     O
H       0.2817   0.4426   0.3829     H
H       0.2852   0.5296   0.5073     H
C      0.28794  0.48377  0.21074     C
O       0.2887  0.72269   0.9039     O
C      0.28926  0.71206  0.98377     C
C      0.28979  0.25518  0.53656     C
H         0.29    0.647    0.314     H
O      0.29321  0.64282  0.44439     O
C      0.29514  0.15569  0.53197     C
C      0.29539  0.50396  0.37534     C
H       0.3006   0.1378   0.4715     H
H        0.314     0.29    0.647     H
O      0.32316  0.52519  0.14865     O
H        0.327   0.9843   0.2259     H
C      0.33876  0.44698  0.95753     C
Co    0.342746 0.657254 0.157254    Co
C      0.34431  0.46803  0.79514     C
O      0.35135  0.67684  0.02519     O
H        0.353    0.814     0.21     H
H       0.3547   0.4113   0.0729     H
H        0.355   0.8643   0.3629     H
O      0.35718  0.94439  0.20679     O
H        0.358   0.5069   0.9694     H
H       0.3584   0.5096   0.3723     H
H       0.3622   0.5285   0.8006     H
H       0.3629    0.355   0.8643     H
H       0.3643   0.1371    0.645     H
H       0.3692    0.445   0.7416     H
O      0.36931  0.39129  0.02547     O
H       0.3723   0.3584   0.5096     H
C      0.37274  0.12055  0.58378     C
O      0.37388  0.77498  0.21895     O
C      0.37534  0.29539  0.50396     C
O      0.37634  0.02717  0.57978     O
C      0.37945  0.41622  0.87274     C
H       0.3829   0.2817   0.4426     H
H       0.3842   0.0118   0.5291     H
O      0.39129  0.02547  0.36931     O
O       0.4039   0.2113  0.27731     O
H       0.4113   0.0729   0.3547     H
C      0.41622  0.87274  0.37945     C
O      0.42022  0.87634  0.47283     O
H       0.4271   0.6453   0.9113     H
H       0.4426   0.3829   0.2817     H
O      0.44439  0.29321  0.64282     O
C      0.44492  0.95364  0.23853     C
H        0.445   0.7416   0.3692     H
C      0.44698  0.95753  0.33876     C
C      0.45364  0.26147  0.55508     C
C      0.45753  0.16124  0.55302     C
C      0.46344  0.78979  0.24482     C
C      0.46803  0.79514  0.34431     C
H       0.4694    0.142   0.4931     H
H       0.4704   0.0073   0.2148     H
H       0.4709   0.8842   0.4882     H
H       0.4715   0.3006   0.1378     H
O      0.47283  0.42022  0.87634     O
O      0.47453  0.63069  0.89129     O
O      0.47481  0.64865  0.17684     O
C      0.48377  0.21074  0.28794     C
H       0.4843   0.2741    0.673     H
H       0.4882   0.4709   0.8842     H
H       0.4904   0.8723   0.1416     H
H       0.4927   0.7852   0.9704     H
H       0.4931   0.4694    0.142     H
C      0.49604  0.87534  0.20461     C
C      0.50396  0.37534  0.29539     C
H       0.5069   0.9694    0.358     H
H       0.5073   0.2852   0.5296     H
H       0.5096   0.3723   0.3584     H
H       0.5118   0.9709   0.6158     H
H       0.5157   0.7741    0.827     H
C      0.51623  0.71074  0.21206     C
O      0.52519  0.14865  0.32316     O
O      0.52547  0.13069  0.60871     O
O      0.52717  0.92022  0.62366     O
H       0.5285   0.8006   0.3622     H
H       0.5291   0.3842   0.0118     H
H       0.5296   0.5073   0.2852     H
H       0.5306    0.642   0.0069     H
C      0.53197  0.29514  0.15569     C
C      0.53656  0.28979  0.25518     C
C      0.54247  0.66124  0.94698     C
C      0.54636  0.76147  0.94492     C
C      0.55302  0.45753  0.16124     C
H        0.555   0.2416   0.1308     H
C      0.55508  0.45364  0.26147     C
O      0.55561  0.79321  0.85718     O
H       0.5574   0.8829   0.2183     H
H       0.5729   0.1453   0.5887     H
O      0.57978  0.37634  0.02717     O
C      0.58378  0.37274  0.12055     C
H       0.5887   0.5729   0.1453     H
O       0.5961   0.7113  0.22269     O
O      0.60871  0.52547  0.13069     O
H       0.6158   0.5118   0.9709     H
H       0.6171   0.7817   0.0574     H
C      0.62055  0.91622  0.62726     C
O      0.62366  0.52717  0.92022     O
C      0.62466  0.79539  0.99604     C
O      0.62612  0.27498  0.28105     O
C      0.62726  0.62055  0.91622     C
H       0.6277   0.8584   0.9904     H
O      0.63069  0.89129  0.47453     O
H       0.6308    0.945   0.7584     H
H       0.6357   0.6371    0.855     H
H       0.6371    0.855   0.6357     H
H       0.6378   0.0285   0.6994     H
H       0.6416   0.0096   0.1277     H
H        0.642   0.0069   0.5306     H
O      0.64282  0.44439  0.29321     O
H        0.645   0.3643   0.1371     H
H       0.6453   0.9113   0.4271     H
H        0.647    0.314     0.29     H
O      0.64865  0.17684  0.47481     O
C      0.65569  0.96803  0.70486     C
Co    0.657254 0.157254 0.342746    Co
C      0.66124  0.94698  0.54247     C
H        0.673   0.4843   0.2741     H
O      0.67684  0.02519  0.35135     O
H        0.686     0.79    0.853     H
H       0.6994   0.6378   0.0285     H
C      0.70461  0.00396  0.12466     C
C      0.70486  0.65569  0.96803     C
O      0.70679  0.14282  0.05561     O
H         0.71    0.147    0.186     H
C      0.71021  0.75518  0.96344     C
C      0.71074  0.21206  0.51623     C
O       0.7113  0.22269   0.5961     O
C      0.71206  0.98377  0.28926     C
H       0.7148   0.0296   0.9927     H
H       0.7183   0.9426   0.1171     H
O      0.71895  0.12612  0.22502     O
O      0.72269   0.9039   0.2887     O
O      0.72502  0.78105  0.87388     O
H       0.7259    0.173   0.0157     H
K      0.73753  0.26247  0.76247     K
C      0.73853  0.05508  0.04636     C
H       0.7416   0.3692    0.445     H
C      0.74482  0.03656  0.21021     C
C      0.75518  0.96344  0.71021     C
H       0.7584   0.6308    0.945     H
C      0.76147  0.94492  0.54636     C
K      0.76247  0.73753  0.26247     K
H       0.7741    0.827   0.5157     H
O      0.77498  0.21895  0.37388     O
O      0.77731   0.0961   0.7887     O
O      0.78105  0.87388  0.72502     O
H       0.7817   0.0574   0.6171     H
H       0.7852   0.9704   0.4927     H
C      0.78794  0.01623  0.78926     C
O       0.7887  0.77731   0.0961     O
C      0.78926  0.78794  0.01623     C
C      0.78979  0.24482  0.46344     C
H         0.79    0.853    0.686     H
O      0.79321  0.85718  0.55561     O
C      0.79514  0.34431  0.46803     C
C      0.79539  0.99604  0.62466     C
H       0.8006   0.3622   0.5285     H
H        0.814     0.21    0.353     H
O      0.82316  0.97481  0.85135     O
H        0.827   0.5157   0.7741     H
C      0.83876  0.05302  0.04247     C
Co    0.842746 0.842746 0.842746    Co
C      0.84431  0.03197  0.20486     C
O      0.85135  0.82316  0.97481     O
H        0.853    0.686     0.79     H
H       0.8547   0.0887   0.9271     H
H        0.855   0.6357   0.6371     H
O      0.85718  0.55561  0.79321     O
H        0.858   0.9931   0.0306     H
H       0.8584   0.9904   0.6277     H
H       0.8622   0.9715   0.1994     H
H       0.8629    0.145   0.1357     H
H       0.8643   0.3629    0.355     H
H       0.8692    0.055   0.2584     H
O      0.86931  0.10871  0.97453     O
H       0.8723   0.1416   0.4904     H
C      0.87274  0.37945  0.41622     C
O      0.87388  0.72502  0.78105     O
C      0.87534  0.20461  0.49604     C
O      0.87634  0.47283  0.42022     O
C      0.87945  0.08378  0.12726     C
H       0.8829   0.2183   0.5574     H
H       0.8842   0.4882   0.4709     H
O      0.89129  0.47453  0.63069     O
O       0.9039   0.2887  0.72269     O
H       0.9113   0.4271   0.6453     H
C      0.91622  0.62726  0.62055     C
O      0.92022  0.62366  0.52717     O
H       0.9271   0.8547   0.0887     H
H       0.9426   0.1171   0.7183     H
O      0.94439  0.20679  0.35718     O
C      0.94492  0.54636  0.76147     C
H        0.945   0.7584   0.6308     H
C      0.94698  0.54247  0.66124     C
C      0.95364  0.23853  0.44492     C
C      0.95753  0.33876  0.44698     C
C      0.96344  0.71021  0.75518     C
C      0.96803  0.70486  0.65569     C
H       0.9694    0.358   0.5069     H
H       0.9704   0.4927   0.7852     H
H       0.9709   0.6158   0.5118     H
H       0.9715   0.1994   0.8622     H
O      0.97283  0.07978  0.12366     O
O      0.97453  0.86931  0.10871     O
O      0.97481  0.85135  0.82316     O
C      0.98377  0.28926  0.71206     C
H       0.9843   0.2259    0.327     H
H       0.9882   0.0291   0.1158     H
H       0.9904   0.6277   0.8584     H
H       0.9927   0.7148   0.0296     H
H       0.9931   0.0306    0.858     H
C      0.99604  0.62466  0.79539     C
