data_I
_chemical_name_common  '/Users/gianmarcoterrones/Research/MOFs/MOF_structures/water_stability_work_extra_structs/cleaned_from_CCDC/GECXUH03'
_cell_length_a  6.72300
_cell_length_b 12.43500
_cell_length_c 15.48100
_cell_angle_alpha 90.00000
_cell_angle_beta  90.00000
_cell_angle_gamma 102.82500
_space_group_name_H-M_alt      'P 1'


loop_
_space_group_symop_operation_xyz
  'x, y, z' 

loop_
_atom_site_label
_atom_site_fract_x
_atom_site_fract_y
_atom_site_fract_z
_atom_site_type_symbol
H       0.0109   0.5796   0.3001     H
O       0.0167   0.3425  0.52033     O
C       0.0336   0.6994   0.2109     C
H        0.037   0.6314   0.6694     H
H        0.047   0.7218     0.49     H
O       0.0605   0.1332  0.10507     O
C       0.0605   0.7516   0.7576     C
H        0.063    0.616     0.48     H
H       0.0771    0.264   0.2278     H
O       0.0876   0.1722  0.92002     O
C        0.092    0.857   0.1056     C
C       0.1019   0.6378   0.2741     C
H       0.1029   0.3182   0.8055     H
C       0.1201    0.899  0.87094     C
C       0.1283   0.6894   0.6956     C
C       0.1672   0.7873  0.17155     C
C       0.1946   0.8376  0.79888     C
Zn     0.20028  0.07717  0.00508    Zn
O       0.2158  0.94117  0.07943     O
O       0.2434  0.97918  0.90291     O
O       0.2566  0.52082  0.40291     O
O       0.2842  0.55883  0.57943     O
Zn     0.29972  0.42283  0.50508    Zn
C       0.3054   0.6624  0.29888     C
C       0.3328   0.7127  0.67155     C
C       0.3717   0.8106   0.1956     C
C       0.3799    0.601  0.37094     C
H       0.3971   0.1818   0.3055     H
C       0.3981   0.8622   0.7741     C
C        0.408    0.643   0.6056     C
O       0.4124   0.3278  0.42002     O
H       0.4229    0.236   0.7278     H
H        0.437    0.884     0.98     H
O       0.4395   0.3668  0.60507     O
C       0.4395   0.7484   0.2576     C
H        0.453   0.7782     0.99     H
H        0.463   0.8686   0.1694     H
C       0.4664   0.8006   0.7109     C
O       0.4833   0.1575  0.02033     O
H       0.4891   0.9204   0.8001     H
H       0.5109   0.0796   0.1999     H
O       0.5167   0.8425  0.97967     O
C       0.5336   0.1994   0.2891     C
H        0.537   0.1314   0.8306     H
H        0.547   0.2218     0.01     H
C       0.5605   0.2516   0.7424     C
O       0.5605   0.6332  0.39493     O
H        0.563    0.116     0.02     H
H       0.5771    0.764   0.2722     H
O       0.5876   0.6722  0.57998     O
C        0.592    0.357   0.3944     C
C       0.6019   0.1378   0.2259     C
H       0.6029   0.8182   0.6945     H
C       0.6201    0.399  0.62906     C
C       0.6283   0.1894   0.8044     C
C       0.6672   0.2873  0.32845     C
C       0.6946   0.3376  0.70112     C
Zn     0.70028  0.57717  0.49492    Zn
O       0.7158  0.44117  0.42057     O
O       0.7434  0.47918  0.59709     O
O       0.7566  0.02082  0.09709     O
O       0.7842  0.05883  0.92057     O
Zn     0.79972  0.92283  0.99492    Zn
C       0.8054   0.1624  0.20112     C
C       0.8328   0.2127  0.82845     C
C       0.8717   0.3106   0.3044     C
C       0.8799    0.101  0.12906     C
H       0.8971   0.6818   0.1945     H
C       0.8981   0.3622   0.7259     C
C        0.908    0.143   0.8944     C
O       0.9124   0.8278  0.07998     O
H       0.9229    0.736   0.7722     H
H        0.937    0.384     0.52     H
C       0.9395   0.2484   0.2424     C
O       0.9395   0.8668  0.89493     O
H        0.953   0.2782     0.51     H
H        0.963   0.3686   0.3306     H
C       0.9664   0.3006   0.7891     C
O       0.9833   0.6575  0.47967     O
H       0.9891   0.4204   0.6999     H
