data_I
_chemical_name_common  '/Users/gianmarcoterrones/Research/MOFs/MOF_structures/water_stability_work_extra_structs/cleaned_from_CCDC/GINTAA01'
_cell_length_a 10.30020
_cell_length_b 14.12980
_cell_length_c 14.86280
_cell_angle_alpha 90.00000
_cell_angle_beta  101.98900
_cell_angle_gamma 90.00000
_space_group_name_H-M_alt      'P 1'


loop_
_space_group_symop_operation_xyz
  'x, y, z' 

loop_
_atom_site_label
_atom_site_fract_x
_atom_site_fract_y
_atom_site_fract_z
_atom_site_type_symbol
C       0.0023   0.7219    0.007     C
C       0.0023   0.7781    0.507     C
O       0.0025   0.6371   0.9919     O
O       0.0025   0.8629   0.4919     O
H       0.0045   0.6411   0.8027     H
H       0.0045   0.8589   0.3027     H
H        0.011    0.621   0.7002     H
H        0.011    0.879   0.2002     H
H       0.0244   0.6954   0.2331     H
H       0.0244   0.8046   0.7331     H
C       0.0639   0.6251   0.7622     C
C       0.0639   0.8749   0.2622     C
O       0.1018   0.2329   0.9808     O
O       0.1018   0.2671   0.4808     O
H       0.1038   0.5161   0.9205     H
H       0.1038   0.9839   0.4205     H
C       0.1156   0.7056   0.2467     C
C       0.1156   0.7944   0.7467     C
H       0.1174   0.6797   0.4571     H
H       0.1174   0.8203   0.9571     H
N       0.1221   0.5319   0.7886     N
N       0.1221   0.9681   0.2886     N
C       0.1273    0.718   0.5122     C
C       0.1273    0.782   0.0122     C
C        0.136    0.009   0.3716     C
C        0.136    0.491   0.8716     C
H       0.1366   0.6755   0.5644     H
H       0.1366   0.8245   0.0644     H
C       0.1628   0.7043   0.7654     C
C       0.1628   0.7957   0.2654     C
H       0.1656   0.5692   0.2343     H
H       0.1656   0.9308   0.7343     H
C        0.182   0.0258   0.2349     C
C        0.182   0.4742   0.7349     C
H       0.1878    0.016    0.174     H
H       0.1878    0.484    0.674     H
C       0.2003   0.6296   0.2475     C
C       0.2003   0.8704   0.7475     C
N       0.2014   0.0894   0.3743     N
N       0.2014   0.4106   0.8743     N
H       0.2254   0.2106    0.687     H
H       0.2254   0.2894    0.187     H
C       0.2302   0.0993   0.2887     C
C       0.2302   0.4007   0.7887     C
H       0.2451   0.6819   0.9681     H
H       0.2451   0.8181   0.4681     H
Zn     0.24909   0.1774  0.48086    Zn
Zn     0.24909   0.3226  0.98086    Zn
C       0.2528   0.7221   0.0219     C
C       0.2528   0.7779   0.5219     C
H       0.2598   0.6813   0.0752     H
H       0.2598   0.8187   0.5752     H
C       0.2704   0.1542   0.6832     C
C       0.2704   0.3458   0.1832     C
H       0.2767   0.1498   0.2705     H
H       0.2767   0.3502   0.7705     H
C       0.3008   0.6919   0.7879     C
C       0.3008   0.8081   0.2879     C
N       0.3013   0.1175   0.6049     N
N       0.3013   0.3825   0.1049     N
H       0.3066   0.1028   0.8141     H
H       0.3066   0.3972   0.3141     H
C       0.3158   0.0953   0.7536     C
C       0.3158   0.4047   0.2536     C
H       0.3358   0.6319   0.8028     H
H       0.3358   0.8681   0.3028     H
C       0.3382   0.6429   0.2681     C
C       0.3382   0.8571   0.7681     C
C       0.3674   0.0388     0.63     C
C       0.3674   0.4612     0.13     C
H       0.3692   0.6756   0.4809     H
H       0.3692   0.8244   0.9809     H
N       0.3784   0.0217   0.7194     N
N       0.3784   0.4783   0.2194     N
C       0.3785   0.7193   0.5322     C
C       0.3785   0.7807   0.0322     C
C       0.3846    0.733   0.2881     C
C       0.3846    0.767   0.7881     C
H       0.3894   0.6822   0.5882     H
H       0.3894   0.8178   0.0882     H
O       0.3901   0.2326   0.9654     O
O       0.3901   0.2674   0.4654     O
H        0.402   0.5001   0.0902     H
H        0.402   0.9999   0.5902     H
C       0.4351   0.5637   0.2678     C
C       0.4351   0.9363   0.7678     C
H       0.4739   0.5471    0.331     H
H       0.4739   0.9529    0.831     H
H       0.4758   0.7433   0.3023     H
H       0.4758   0.7567   0.8023     H
H       0.4938   0.0863   0.2603     H
H       0.4938   0.4137   0.7603     H
O       0.4985   0.6352   0.0387     O
O       0.4985   0.8648   0.5387     O
C       0.4987   0.2216   0.4644     C
C       0.4987   0.2784   0.9644     C
C       0.5013   0.7216   0.0356     C
C       0.5013   0.7784   0.5356     C
O       0.5015   0.1352   0.4613     O
O       0.5015   0.3648   0.9613     O
H       0.5062   0.5863   0.2397     H
H       0.5062   0.9137   0.7397     H
H       0.5242   0.2433   0.1977     H
H       0.5242   0.2567   0.6977     H
H       0.5261   0.0471    0.169     H
H       0.5261   0.4529    0.669     H
C       0.5649   0.0637   0.2322     C
C       0.5649   0.4363   0.7322     C
H        0.598   0.0001   0.4098     H
H        0.598   0.4999   0.9098     H
O       0.6099   0.7326   0.5346     O
O       0.6099   0.7674   0.0346     O
H       0.6106   0.1822   0.9118     H
H       0.6106   0.3178   0.4118     H
C       0.6154    0.233   0.2119     C
C       0.6154    0.267   0.7119     C
C       0.6215   0.2193   0.9678     C
C       0.6215   0.2807   0.4678     C
N       0.6216   0.5217   0.7806     N
N       0.6216   0.9783   0.2806     N
H       0.6308   0.1756   0.0191     H
H       0.6308   0.3244   0.5191     H
C       0.6326   0.5388     0.87     C
C       0.6326   0.9612     0.37     C
C       0.6618   0.1429   0.2319     C
C       0.6618   0.3571   0.7319     C
H       0.6642   0.1319   0.6972     H
H       0.6642   0.3681   0.1972     H
C       0.6842   0.5953   0.7464     C
C       0.6842   0.9047   0.2464     C
H       0.6934   0.6028   0.6859     H
H       0.6934   0.8972   0.1859     H
N       0.6987   0.6175   0.8951     N
N       0.6987   0.8825   0.3951     N
C       0.6992   0.1919   0.7121     C
C       0.6992   0.3081   0.2121     C
H       0.7233   0.6498   0.2295     H
H       0.7233   0.8502   0.7295     H
C       0.7296   0.6542   0.8168     C
C       0.7296   0.8458   0.3168     C
H       0.7402   0.1813   0.4248     H
H       0.7402   0.3187   0.9248     H
C       0.7472   0.2221   0.4781     C
C       0.7472   0.2779   0.9781     C
Zn     0.75091   0.6774  0.01914    Zn
Zn     0.75091   0.8226  0.51914    Zn
H       0.7549   0.1819   0.5319     H
H       0.7549   0.3181   0.0319     H
C       0.7698   0.5993   0.2113     C
C       0.7698   0.9007   0.7113     C
H       0.7746   0.7106    0.813     H
H       0.7746   0.7894    0.313     H
N       0.7986   0.5894   0.1257     N
N       0.7986   0.9106   0.6257     N
C       0.7997   0.1296   0.2525     C
C       0.7997   0.3704   0.7525     C
H       0.8122    0.516    0.326     H
H       0.8122    0.984    0.826     H
C        0.818   0.5258   0.2651     C
C        0.818   0.9742   0.7651     C
H       0.8344   0.0692   0.2657     H
H       0.8344   0.4308   0.7657     H
C       0.8372   0.2043   0.7346     C
C       0.8372   0.2957   0.2346     C
H       0.8634   0.1755   0.9356     H
H       0.8634   0.3245   0.4356     H
C        0.864    0.509   0.1284     C
C        0.864    0.991   0.6284     C
C       0.8727    0.218   0.9878     C
C       0.8727    0.282   0.4878     C
N       0.8779   0.0319   0.7114     N
N       0.8779   0.4681   0.2114     N
H       0.8826   0.1797   0.0429     H
H       0.8826   0.3203   0.5429     H
C       0.8844   0.2056   0.2533     C
C       0.8844   0.2944   0.7533     C
H       0.8962   0.0161   0.5795     H
H       0.8962   0.4839   0.0795     H
O       0.8982   0.7329   0.5192     O
O       0.8982   0.7671   0.0192     O
C       0.9361   0.1251   0.7378     C
C       0.9361   0.3749   0.2378     C
H       0.9756   0.1954   0.2669     H
H       0.9756   0.3046   0.7669     H
H        0.989    0.121   0.7998     H
H        0.989    0.379   0.2998     H
H       0.9955   0.1411   0.6973     H
H       0.9955   0.3589   0.1973     H
O       0.9975   0.1371   0.5081     O
O       0.9975   0.3629   0.0081     O
C       0.9977   0.2219    0.493     C
C       0.9977   0.2781    0.993     C
