data_I
_chemical_name_common  '/Users/gianmarcoterrones/Research/MOFs/MOF_structures/water_stability_work_extra_structs/cleaned_from_CCDC/GIYTOY'
_cell_length_a  9.19090
_cell_length_b  9.19090
_cell_length_c 12.76600
_cell_angle_alpha 90.00000
_cell_angle_beta  90.00000
_cell_angle_gamma 120.00000
_space_group_name_H-M_alt      'P 1'


loop_
_space_group_symop_operation_xyz
  'x, y, z' 

loop_
_atom_site_label
_atom_site_fract_x
_atom_site_fract_y
_atom_site_fract_z
_atom_site_type_symbol
C          0.0   0.0941 0.33333333     C
N          0.0   0.3922 0.33333333     N
Cd         0.0   0.6374 0.33333333    Cd
C          0.0   0.9294 0.33333333     C
H       0.0358   0.8301    0.117     H
C       0.0706   0.0706 0.66666667     C
O       0.0755   0.1942 0.71056667     O
C       0.0941      0.0      0.0     C
C       0.0944   0.3692 0.40273333     C
C       0.1004   0.2202 0.40373333     C
O       0.1187   0.9245 0.37723333     O
C       0.1198   0.8996   0.0704     C
H       0.1699   0.2057 0.45033333     H
O       0.1834   0.6436 0.46483333     O
O       0.1942   0.0755 0.62276667     O
C       0.1972   0.5165 0.47763333     C
H       0.2057   0.1699    0.883     H
O        0.214    0.715   0.2097     O
C       0.2202   0.1004   0.9296     C
C       0.2748   0.9056   0.0694     C
O        0.285    0.499 0.54303333     O
C       0.3193   0.8028   0.1443     C
O       0.3564   0.5398 0.79816667     O
Cd      0.3626   0.3626 0.66666667    Cd
C       0.3692   0.0944   0.9306     C
N       0.3922      0.0      0.0     N
O       0.4602   0.8166   0.1315     O
C       0.4835   0.6807 0.81096667     C
O        0.499    0.285   0.7903     O
O        0.501    0.786 0.87636667     O
C       0.5165   0.1972   0.8557     C
O       0.5398   0.3564 0.53516667     O
N       0.6078   0.6078 0.66666667     N
C       0.6308   0.7252 0.73606667     C
Cd      0.6374      0.0      0.0    Cd
O       0.6436   0.1834   0.8685     O
C       0.6807   0.4835 0.52236667     C
O        0.715    0.214 0.12363333     O
C       0.7252   0.6308 0.59726667     C
C       0.7798   0.8802 0.73706667     C
O        0.786    0.501 0.45696667     O
H       0.7943   0.9642 0.78366667     H
C       0.8028   0.3193 0.18903333     C
O       0.8058   0.8813   0.0439     O
O       0.8166   0.4602 0.20183333     O
H       0.8301   0.0358 0.21633333     H
C       0.8802   0.7798 0.59626667     C
O       0.8813   0.8058 0.28943333     O
C       0.8996   0.1198 0.26293333     C
C       0.9056   0.2748 0.26393333     C
C       0.9059   0.9059 0.66666667     C
O       0.9245   0.1187   0.9561     O
C       0.9294      0.0      0.0     C
H       0.9642   0.7943 0.54966667     H
