data_I
_chemical_name_common  '/Users/gianmarcoterrones/Research/MOFs/MOF_structures/water_stability_work_extra_structs/cleaned_from_CCDC/GUVCIJ'
_cell_length_a 12.49720
_cell_length_b 13.70000
_cell_length_c 15.44200
_cell_angle_alpha 90.00000
_cell_angle_beta  104.40100
_cell_angle_gamma 90.00000
_space_group_name_H-M_alt      'P 1'


loop_
_space_group_symop_operation_xyz
  'x, y, z' 

loop_
_atom_site_label
_atom_site_fract_x
_atom_site_fract_y
_atom_site_fract_z
_atom_site_type_symbol
H       0.0746   0.2368   0.7442     H
H       0.0746   0.2632   0.2442     H
H       0.0784   0.6939   0.1554     H
H       0.0784   0.8061   0.6554     H
H       0.1062   0.0844   0.8007     H
H       0.1062   0.4156   0.3007     H
H       0.1281   0.6448   0.3028     H
H       0.1281   0.8552   0.8028     H
C        0.137    0.225   0.7907     C
C        0.137    0.275   0.2907     C
C        0.141    0.656   0.1767     C
C        0.141    0.844   0.6767     C
C       0.1563   0.1339   0.8233     C
C       0.1563   0.3661   0.3233     C
C        0.171   0.6241   0.2649     C
C        0.171   0.8759   0.7649     C
H        0.191   0.1362   0.3027     H
H        0.191   0.3638   0.8027     H
H       0.1934   0.6528    0.064     H
H       0.1934   0.8472    0.564     H
C        0.206   0.1992   0.3246     C
C        0.206   0.3008   0.8246     C
C        0.208   0.6305   0.1226     C
C        0.208   0.8695   0.6226     C
N       0.2472   0.1133    0.888     N
N       0.2472   0.3867    0.388     N
N       0.2558    0.566   0.2989     N
N       0.2558    0.934   0.7989     N
H       0.2599   0.0008   0.0787     H
H       0.2599   0.4992   0.5787     H
H       0.2752   0.7037   0.4475     H
H       0.2752   0.7963   0.9475     H
Pt     0.28863  0.52584  0.42691    Pt
Pt     0.28863  0.97416  0.92691    Pt
C       0.2963   0.2174   0.3893     C
C       0.2963   0.2826   0.8893     C
C        0.297   0.5717   0.1557     C
C        0.297   0.9283   0.6557     C
H        0.308   0.6919   0.5898     H
H        0.308   0.8081   0.0898     H
C       0.3136   0.1898   0.9197     C
C       0.3136   0.3102   0.4197     C
C        0.317   0.5437   0.2453     C
C        0.317   0.9563   0.7453     C
N       0.3223   0.0029   0.0598     N
N       0.3223   0.4971   0.5598     N
N       0.3329   0.6633   0.4673     N
N       0.3329   0.8367   0.9673     N
H        0.352   0.0628    0.071     H
H        0.352   0.4372    0.571     H
O       0.3525   0.6621   0.8407     O
O       0.3525   0.8379   0.3407     O
O       0.3547    0.054   0.3952     O
O       0.3547    0.446   0.8952     O
O       0.3572    0.583   0.0245     O
O       0.3572    0.917   0.5245     O
C        0.369   0.6685   0.5674     C
C        0.369   0.8315   0.0674     C
C        0.371   0.1376    0.428     C
C        0.371   0.3624    0.928     C
H       0.3759   0.1778   0.9659     H
H       0.3759   0.3222   0.4659     H
C        0.376   0.5409   0.1003     C
C        0.376   0.9591   0.6003     C
H       0.3794   0.5059   0.2683     H
H       0.3794   0.9941   0.7683     H
H       0.3884    0.683   0.4438     H
H       0.3884    0.817   0.9438     H
C        0.407   0.5772     0.61     C
C        0.407   0.9228     0.11     C
H       0.4074   0.5795    0.673     H
H       0.4074   0.9205    0.173     H
H       0.4285   0.7159    0.584     H
H       0.4285   0.7841    0.084     H
Cu      0.4451  0.56079  0.93746    Cu
Cu      0.4451  0.93921  0.43746    Cu
O       0.4467   0.1587   0.4963     O
O       0.4467   0.3413   0.9963     O
O       0.4479   0.0189   0.6289     O
O       0.4479   0.4811   0.1289     O
H        0.481   0.5626    0.605     H
H        0.481   0.9374    0.105     H
H        0.519   0.0626    0.895     H
H        0.519   0.4374    0.395     H
O       0.5521   0.5189   0.8711     O
O       0.5521   0.9811   0.3711     O
O       0.5533   0.6587   0.0037     O
O       0.5533   0.8413   0.5037     O
Cu      0.5549  0.06079  0.56254    Cu
Cu      0.5549  0.43921  0.06254    Cu
H       0.5715   0.2159    0.916     H
H       0.5715   0.2841    0.416     H
H       0.5926   0.0795    0.827     H
H       0.5926   0.4205    0.327     H
C        0.593   0.0772     0.89     C
C        0.593   0.4228     0.39     C
H       0.6116    0.183   0.0562     H
H       0.6116    0.317   0.5562     H
H       0.6206   0.0059   0.2317     H
H       0.6206   0.4941   0.7317     H
C        0.624   0.0409   0.3997     C
C        0.624   0.4591   0.8997     C
H       0.6241   0.6778   0.5341     H
H       0.6241   0.8222   0.0341     H
C        0.629   0.6376    0.072     C
C        0.629   0.8624    0.572     C
C        0.631   0.1685   0.9326     C
C        0.631   0.3315   0.4326     C
O       0.6428    0.083   0.4755     O
O       0.6428    0.417   0.9755     O
O       0.6453    0.554   0.1048     O
O       0.6453    0.946   0.6048     O
O       0.6475   0.1621   0.6593     O
O       0.6475   0.3379   0.1593     O
H        0.648   0.5628    0.429     H
H        0.648   0.9372    0.929     H
N       0.6671   0.1633   0.0327     N
N       0.6671   0.3367   0.5327     N
N       0.6777   0.5029   0.4402     N
N       0.6777   0.9971   0.9402     N
C        0.683   0.0437   0.2547     C
C        0.683   0.4563   0.7547     C
C       0.6864   0.6898   0.5803     C
C       0.6864   0.8102   0.0803     C
H        0.692   0.1919   0.9102     H
H        0.692   0.3081   0.4102     H
C        0.703   0.0717   0.3443     C
C        0.703   0.4283   0.8443     C
C       0.7037   0.7174   0.1107     C
C       0.7037   0.7826   0.6107     C
Pt     0.71137  0.02584  0.07309    Pt
Pt     0.71137  0.47416  0.57309    Pt
H       0.7248   0.2037   0.0525     H
H       0.7248   0.2963   0.5525     H
H       0.7401   0.5008   0.4213     H
H       0.7401   0.9992   0.9213     H
N       0.7442    0.066   0.2011     N
N       0.7442    0.434   0.7011     N
N       0.7528   0.6133    0.612     N
N       0.7528   0.8867    0.112     N
C        0.792   0.1305   0.3774     C
C        0.792   0.3695   0.8774     C
C        0.794   0.6992   0.1754     C
C        0.794   0.8008   0.6754     C
H       0.8066   0.1528    0.436     H
H       0.8066   0.3472    0.936     H
H        0.809   0.6362   0.1973     H
H        0.809   0.8638   0.6973     H
C        0.829   0.1241   0.2351     C
C        0.829   0.3759   0.7351     C
C       0.8437   0.6339   0.6767     C
C       0.8437   0.8661   0.1767     C
C        0.859    0.156   0.3233     C
C        0.859    0.344   0.8233     C
C        0.863    0.725   0.7093     C
C        0.863    0.775   0.2093     C
H       0.8719   0.1448   0.1972     H
H       0.8719   0.3552   0.6972     H
H       0.8938   0.5844   0.6993     H
H       0.8938   0.9156   0.1993     H
H       0.9216   0.1939   0.3446     H
H       0.9216   0.3061   0.8446     H
H       0.9254   0.7368   0.7558     H
H       0.9254   0.7632   0.2558     H
