data_I
_chemical_name_common  '/Users/gianmarcoterrones/Research/MOFs/MOF_structures/water_stability_work_extra_structs/cleaned_from_CoRE/HACDOH_clean'
_cell_length_a 17.42306
_cell_length_b 17.42306
_cell_length_c 17.42306
_cell_angle_alpha 64.93800
_cell_angle_beta  64.93800
_cell_angle_gamma 64.93800
_space_group_name_H-M_alt      'P 1'


loop_
_space_group_symop_operation_xyz
  'x, y, z' 

loop_
_atom_site_label
_atom_site_fract_x
_atom_site_fract_y
_atom_site_fract_z
_atom_site_type_symbol
O      0.01762  0.60822  0.86982     O
O      0.01762  0.86982  0.60822     O
H       0.0303   0.2016   0.5765     H
H       0.0303   0.5765   0.2016     H
H       0.0379  0.74085  0.74085     H
O      0.04658  0.42788  0.89818     O
O      0.04658  0.89818  0.42788     O
Co     0.05509  0.05509  0.47519    Co
Co     0.05509  0.47519  0.05509    Co
H       0.0618     0.33   0.5624     H
H       0.0618   0.5624     0.33     H
H       0.0626   0.2767   0.4592     H
H       0.0626   0.4592   0.2767     H
C      0.07543  0.61983  0.88593     C
C      0.07543  0.88593  0.61983     C
C       0.0818    0.751    0.751     C
H       0.0836   0.2008   0.6797     H
H       0.0836   0.6797   0.2008     H
C       0.0902   0.2691   0.5652     C
C       0.0902   0.5652   0.2691     C
C       0.0906   0.2375    0.504     C
C       0.0906    0.504   0.2375     C
C       0.0911   0.1733   0.5737     C
C       0.0911   0.5737   0.1733     C
O       0.0946   0.3347   0.6767     O
O       0.0946   0.6767   0.3347     O
O      0.10182  0.57212  0.95342     O
O      0.10182  0.95342  0.57212     O
H       0.1079   0.3277   0.8084     H
H       0.1079   0.8084   0.3277     H
C      0.11311  0.69461  0.82201     C
C      0.11311  0.82201  0.69461     C
C      0.11407  0.38017  0.92457     C
C      0.11407  0.92457  0.38017     C
C       0.1228   0.1728   0.6349     C
C       0.1228   0.6349   0.1728     C
O      0.12911  0.12911  0.44716     O
O      0.12911  0.44716  0.12911     O
O      0.13018  0.39178  0.98238     O
O      0.13018  0.98238  0.39178     O
N      0.13216  0.14846  0.50816     N
N      0.13216  0.50816  0.14846     N
C       0.1353   0.2537   0.6885     C
C       0.1353   0.6885   0.2537     C
H        0.156   0.2399   0.7092     H
H        0.156   0.7092   0.2399     H
C       0.1592   0.2903   0.8269     C
C       0.1592   0.8269   0.2903     C
C       0.1728   0.1228   0.6349     C
C       0.1728   0.6349   0.1228     C
C       0.1731   0.7097   0.8408     C
C       0.1731   0.8408   0.7097     C
C       0.1733   0.0911   0.5737     C
C       0.1733   0.5737   0.0911     C
C      0.17799  0.30539  0.88689     C
C      0.17799  0.88689  0.30539     C
H       0.1916   0.6723   0.8921     H
H       0.1916   0.8921   0.6723     H
H       0.2008   0.0836   0.6797     H
H       0.2008   0.6797   0.0836     H
H       0.2016   0.0303   0.5765     H
H       0.2016   0.5765   0.0303     H
N      0.20255  0.20255    0.727     N
N      0.20255    0.727  0.20255     N
C       0.2079   0.7823   0.7823     C
C       0.2177   0.2177   0.7921     C
C       0.2177   0.7921   0.2177     C
C       0.2375   0.0906    0.504     C
C       0.2375    0.504   0.0906     C
H       0.2399    0.156   0.7092     H
H       0.2399   0.7092    0.156     H
C        0.249    0.249   0.9182     C
C        0.249   0.9182    0.249     C
C       0.2537   0.1353   0.6885     C
C       0.2537   0.6885   0.1353     C
H      0.25915  0.25915   0.9621     H
H      0.25915   0.9621  0.25915     H
C       0.2691   0.0902   0.5652     C
C       0.2691   0.5652   0.0902     C
N        0.273  0.79745  0.79745     N
H       0.2767   0.0626   0.4592     H
H       0.2767   0.4592   0.0626     H
C       0.2903   0.1592   0.8269     C
C       0.2903   0.8269   0.1592     C
H       0.2908   0.7601    0.844     H
H       0.2908    0.844   0.7601     H
C      0.30539  0.17799  0.88689     C
C      0.30539  0.88689  0.17799     C
C       0.3115   0.7463   0.8647     C
C       0.3115   0.8647   0.7463     C
H       0.3203   0.7992   0.9164     H
H       0.3203   0.9164   0.7992     H
O       0.3233   0.6653   0.9054     O
O       0.3233   0.9054   0.6653     O
H       0.3277   0.1079   0.8084     H
H       0.3277   0.8084   0.1079     H
H         0.33   0.0618   0.5624     H
H         0.33   0.5624   0.0618     H
O       0.3347   0.0946   0.6767     O
O       0.3347   0.6767   0.0946     O
C       0.3651   0.8272   0.8772     C
C       0.3651   0.8772   0.8272     C
C      0.38017  0.11407  0.92457     C
C      0.38017  0.92457  0.11407     C
O      0.39178  0.13018  0.98238     O
O      0.39178  0.98238  0.13018     O
H       0.4235   0.7984   0.9697     H
H       0.4235   0.9697   0.7984     H
C       0.4263   0.8267   0.9089     C
C       0.4263   0.9089   0.8267     C
O      0.42788  0.04658  0.89818     O
O      0.42788  0.89818  0.04658     O
C       0.4348   0.7309   0.9098     C
C       0.4348   0.9098   0.7309     C
H       0.4376     0.67   0.9382     H
H       0.4376   0.9382     0.67     H
O      0.44716  0.12911  0.12911     O
H       0.4592   0.0626   0.2767     H
H       0.4592   0.2767   0.0626     H
Co     0.47519  0.05509  0.05509    Co
N      0.49184  0.85154  0.86784     N
C        0.496   0.7625   0.9094     C
C        0.496   0.9094   0.7625     C
C        0.504   0.0906   0.2375     C
C        0.504   0.2375   0.0906     C
N      0.50816  0.13216  0.14846     N
Co     0.52481  0.94491  0.94491    Co
H       0.5408   0.7233   0.9374     H
H       0.5408   0.9374   0.7233     H
O      0.55284  0.87089  0.87089     O
H       0.5624   0.0618     0.33     H
H       0.5624     0.33   0.0618     H
C       0.5652   0.0902   0.2691     C
C       0.5652   0.2691   0.0902     C
O      0.57212  0.10182  0.95342     O
O      0.57212  0.95342  0.10182     O
C       0.5737   0.0911   0.1733     C
C       0.5737   0.1733   0.0911     C
H       0.5765   0.0303   0.2016     H
H       0.5765   0.2016   0.0303     H
O      0.60822  0.01762  0.86982     O
O      0.60822  0.86982  0.01762     O
C      0.61983  0.07543  0.88593     C
C      0.61983  0.88593  0.07543     C
C       0.6307   0.1312   0.2118     C
C       0.6307   0.2118   0.1312     C
O       0.6653   0.3233   0.9054     O
O       0.6653   0.9054   0.3233     O
H         0.67   0.4376   0.9382     H
H         0.67   0.9382   0.4376     H
H       0.6723   0.1916   0.8921     H
H       0.6723   0.8921   0.1916     H
O       0.6767   0.0946   0.3347     O
O       0.6767   0.3347   0.0946     O
H       0.6797   0.0836   0.2008     H
H       0.6797   0.2008   0.0836     H
C       0.6885   0.1353   0.2537     C
C       0.6885   0.2537   0.1353     C
C      0.69461  0.11311  0.82201     C
C      0.69461  0.82201  0.11311     C
H       0.7092    0.156   0.2399     H
H       0.7092   0.2399    0.156     H
C       0.7097   0.1731   0.8408     C
C       0.7097   0.8408   0.1731     C
H       0.7233   0.5408   0.9374     H
H       0.7233   0.9374   0.5408     H
N        0.727  0.20255  0.20255     N
C       0.7309   0.4348   0.9098     C
C       0.7309   0.9098   0.4348     C
H      0.74085   0.0379  0.74085     H
H      0.74085  0.74085   0.0379     H
C       0.7463   0.3115   0.8647     C
C       0.7463   0.8647   0.3115     C
C        0.751   0.0818    0.751     C
C        0.751    0.751   0.0818     C
H       0.7601   0.2908    0.844     H
H       0.7601    0.844   0.2908     H
C       0.7625    0.496   0.9094     C
C       0.7625   0.9094    0.496     C
C       0.7823   0.2079   0.7823     C
C       0.7823   0.7823   0.2079     C
C       0.7882   0.3693   0.8688     C
C       0.7882   0.8688   0.3693     C
C       0.7921   0.2177   0.2177     C
N      0.79745    0.273  0.79745     N
N      0.79745  0.79745    0.273     N
H       0.7984   0.4235   0.9697     H
H       0.7984   0.9697   0.4235     H
H       0.7992   0.3203   0.9164     H
H       0.7992   0.9164   0.3203     H
H       0.8084   0.1079   0.3277     H
H       0.8084   0.3277   0.1079     H
C      0.82201  0.11311  0.69461     C
C      0.82201  0.69461  0.11311     C
C       0.8267   0.4263   0.9089     C
C       0.8267   0.9089   0.4263     C
C       0.8269   0.1592   0.2903     C
C       0.8269   0.2903   0.1592     C
C       0.8408   0.1731   0.7097     C
C       0.8408   0.7097   0.1731     C
H        0.844   0.2908   0.7601     H
H        0.844   0.7601   0.2908     H
N      0.85154  0.49184  0.86784     N
N      0.85154  0.86784  0.49184     N
C       0.8647   0.3115   0.7463     C
C       0.8647   0.7463   0.3115     C
C       0.8688   0.3693   0.7882     C
C       0.8688   0.7882   0.3693     C
O      0.86982  0.01762  0.60822     O
O      0.86982  0.60822  0.01762     O
O      0.87089  0.55284  0.87089     O
O      0.87089  0.87089  0.55284     O
C      0.88593  0.07543  0.61983     C
C      0.88593  0.61983  0.07543     C
C      0.88689  0.17799  0.30539     C
C      0.88689  0.30539  0.17799     C
H       0.8921   0.1916   0.6723     H
H       0.8921   0.6723   0.1916     H
O      0.89818  0.04658  0.42788     O
O      0.89818  0.42788  0.04658     O
O       0.9054   0.3233   0.6653     O
O       0.9054   0.6653   0.3233     O
C       0.9089   0.4263   0.8267     C
C       0.9089   0.8267   0.4263     C
C       0.9094    0.496   0.7625     C
C       0.9094   0.7625    0.496     C
C       0.9098   0.4348   0.7309     C
C       0.9098   0.7309   0.4348     C
H       0.9164   0.3203   0.7992     H
H       0.9164   0.7992   0.3203     H
C       0.9182    0.249    0.249     C
C      0.92457  0.11407  0.38017     C
C      0.92457  0.38017  0.11407     C
H       0.9374   0.5408   0.7233     H
H       0.9374   0.7233   0.5408     H
H       0.9382   0.4376     0.67     H
H       0.9382     0.67   0.4376     H
Co     0.94491  0.52481  0.94491    Co
Co     0.94491  0.94491  0.52481    Co
O      0.95342  0.10182  0.57212     O
O      0.95342  0.57212  0.10182     O
H       0.9621  0.25915  0.25915     H
H       0.9697   0.4235   0.7984     H
H       0.9697   0.7984   0.4235     H
O      0.98238  0.13018  0.39178     O
O      0.98238  0.39178  0.13018     O
