data_I
_chemical_name_common  '/Users/gianmarcoterrones/Research/MOFs/MOF_structures/water_stability_work_extra_structs/cleaned_from_CoRE/HACRAH_clean'
_cell_length_a 19.47240
_cell_length_b 19.47240
_cell_length_c 37.75400
_cell_angle_alpha 90.00000
_cell_angle_beta  90.00000
_cell_angle_gamma 120.00000
_space_group_name_H-M_alt      'P 1'


loop_
_space_group_symop_operation_xyz
  'x, y, z' 

loop_
_atom_site_label
_atom_site_fract_x
_atom_site_fract_y
_atom_site_fract_z
_atom_site_type_symbol
N      0.00383  0.50191  0.71577     N
H      0.00863  0.27616  0.68897     H
H      0.00863  0.73246  0.68897     H
C      0.01327  0.45834  0.30393     C
C      0.01327  0.55494  0.30393     C
H      0.01843  0.25666  0.74957     H
H      0.01843  0.76176  0.74957     H
H      0.01977  0.43584  0.34063     H
H      0.01977  0.58394  0.34063     H
C       0.0225   0.2335  0.85107     C
C       0.0225    0.789  0.85107     C
C      0.03137  0.47894  0.35593     C
C      0.03137  0.55244  0.35593     C
O       0.0342   0.2179  0.82005     O
O       0.0342   0.8163  0.82005     O
H       0.0391   0.2876   0.0894     H
H       0.0391   0.7515   0.0894     H
H      0.03937  0.42614  0.40113     H
H      0.03937  0.61324  0.40113     H
C      0.04043  0.52021  0.75007     C
C      0.04297  0.47314  0.39193     C
C      0.04297  0.56984  0.39193     C
O      0.04353  0.44886  0.53659     O
O      0.04353  0.59466  0.53659     O
Co     0.04434  0.52217  0.46842    Co
H      0.04573  0.41816  0.75607     H
H      0.04573  0.62756  0.75607     H
H      0.05343  0.29396  0.73447     H
H      0.05343  0.75946  0.73447     H
C      0.05347  0.44254  0.36493     C
C      0.05347  0.61094  0.36493     C
C      0.05573  0.27986  0.69827     C
C      0.05573  0.77586  0.69827     C
C       0.0565   0.2357  0.13247     C
C       0.0565   0.8208  0.13247     C
H      0.05717  0.39914  0.35563     H
H      0.05717  0.65804  0.35563     H
C      0.05933  0.46736  0.76685     C
C      0.05933  0.59196  0.76685     C
N      0.05987  0.52354  0.41436     N
C      0.06153  0.26826  0.73417     C
C      0.06153  0.79326  0.73417     C
H       0.0658   0.3905   0.9777     H
H       0.0658   0.6753   0.9777     H
O        0.072   0.2898  0.86992     O
O        0.072   0.7822  0.86992     O
C       0.0747    0.274  0.10018     C
C       0.0747   0.8007  0.10018     C
H      0.08273  0.31356  0.67397     H
H      0.08273  0.76916  0.67397     H
H      0.08483  0.37906  0.57727     H
H      0.08483  0.70576  0.57727     H
H       0.0928   0.3727   0.9322     H
H       0.0928   0.7201   0.9322     H
H       0.0951     0.41   0.9171     H
H       0.0951   0.6851   0.9171     H
H       0.0971   0.1942    0.172     H
H       0.0971   0.9029    0.172     H
C      0.09763  0.48746  0.79914     C
C      0.09763  0.61016  0.79914     C
C      0.09983  0.45566  0.51774     C
C      0.09983  0.64416  0.51774     C
H       0.1025   0.3531   0.9927     H
H       0.1025   0.7494   0.9927     H
C      0.10905   0.2181   0.1493     C
C      0.10905  0.89095   0.1493     C
C       0.1092   0.3868   0.9684     C
C       0.1092   0.7224   0.9684     C
C      0.11173  0.32006  0.63727     C
C      0.11173  0.79166  0.63727     C
C      0.11423  0.30196  0.68927     C
C      0.11423  0.81226  0.68927     C
C      0.11523  0.55761  0.81597     C
O      0.11543  0.48296  0.48672     O
O      0.11543  0.63246  0.48672     O
O      0.11553  0.37686  0.79675     O
O      0.11553  0.73866  0.79675     O
C      0.12233  0.43316   0.8156     C
C      0.12233  0.68916   0.8156     C
C        0.125   0.3466   0.0294     C
C        0.125   0.7784   0.0294     C
C       0.1266   0.3984   0.9325     C
C       0.1266   0.7282   0.9325     C
N      0.13033  0.27346   0.7477     N
N      0.13033  0.85686   0.7477     N
C      0.13403  0.39266  0.56649     C
C      0.13403  0.74136  0.56649     C
H      0.13913  0.56956  0.83867     H
Co      0.1445    0.289  0.80176    Co
Co      0.1445   0.8555  0.80176    Co
C       0.1456   0.3647   0.9774     C
C       0.1456   0.7809   0.9774     C
C      0.14645   0.2929   0.0834     C
C      0.14645  0.85355   0.0834     C
O      0.14963  0.44876  0.84662     O
O      0.14963  0.70086  0.84662     O
C      0.15413  0.43096   0.5342     C
C      0.15413  0.72316   0.5342     C
N      0.16475   0.3295   0.0491     N
N      0.16475  0.83525   0.0491     N
N      0.16858  0.33716  0.61757     N
N      0.16858  0.83141  0.61757     N
C      0.17783  0.29666  0.67578     C
C      0.17783  0.88116  0.67578     C
C       0.1792   0.2357  0.13247     C
C       0.1792   0.9435  0.13247     C
O       0.1837   0.2179  0.82005     O
O       0.1837   0.9658  0.82005     O
C      0.18688  0.37376  0.58327     C
C      0.18688  0.81311  0.58327     C
Co     0.18883  0.37766  0.86491    Co
Co     0.18883  0.81116  0.86491    Co
N       0.1902   0.3932  0.91897     N
N       0.1902    0.797  0.91897     N
C      0.19353  0.29036  0.72527     C
C      0.19353  0.90316  0.72527     C
H       0.1942   0.0971    0.828     H
C       0.1993    0.274  0.10018     C
C       0.1993   0.9253  0.10018     C
C      0.20833  0.32006  0.63727     C
C      0.20833  0.88826  0.63727     C
C        0.211   0.2335  0.85107     C
C        0.211   0.9775  0.85107     C
C       0.2145     0.37  0.99089     C
C       0.2145   0.8445  0.99089     C
O       0.2178   0.2898  0.86992     O
O       0.2178    0.928  0.86992     O
O       0.2179   0.0342  0.17995     O
O       0.2179   0.1837  0.17995     O
C       0.2181  0.10905   0.8507     C
C       0.2216   0.3466   0.0294     C
C       0.2216    0.875   0.0294     C
C      0.22413  0.27986  0.69827     C
C      0.22413  0.94426  0.69827     C
C      0.22428  0.44856  0.51737     C
C      0.22428  0.77571  0.51737     C
H      0.23083  0.31356  0.67397     H
H      0.23083  0.91726  0.67397     H
C       0.2335   0.0225  0.14893     C
C       0.2335    0.211  0.14893     C
C       0.2357   0.0565  0.86753     C
C       0.2357   0.1792  0.86753     C
H      0.23623  0.47246  0.49467     H
H      0.23623  0.76376  0.49467     H
C       0.2365   0.3763   0.9414     C
C       0.2365   0.8602   0.9414     C
H      0.24053  0.29396  0.73447     H
H      0.24053  0.94656  0.73447     H
H       0.2485   0.2876   0.0894     H
H       0.2485   0.9609   0.0894     H
H       0.2506   0.3531   0.9927     H
H       0.2506   0.8975   0.9927     H
H      0.25667  0.01844  0.25043     H
H      0.25667  0.23824  0.25043     H
C      0.25863  0.39266  0.56649     C
C      0.25863  0.86596  0.56649     C
O      0.26133  0.37686  0.79675     O
O      0.26133  0.88446  0.79675     O
H      0.26753  0.27616  0.68897     H
H      0.26753  0.99136  0.68897     H
C      0.26827  0.06154  0.26583     C
C      0.26827  0.20674  0.26583     C
N      0.27347  0.13034   0.2523     N
C        0.274   0.0747  0.89982     C
C        0.274   0.1993  0.89982     C
H      0.27617  0.00864  0.31103     H
H      0.27617  0.26754  0.31103     H
C      0.27683  0.43096   0.5342     C
C      0.27683  0.84586   0.5342     C
C       0.2776   0.3868   0.9684     C
C       0.2776   0.8908   0.9684     C
C      0.27987  0.05574  0.30173     C
C      0.27987  0.22414  0.30173     C
H       0.2799   0.3727   0.9322     H
H       0.2799   0.9072   0.9322     H
H       0.2876   0.0391   0.9106     H
H       0.2876   0.2485   0.9106     H
Co       0.289   0.1445  0.19824    Co
O       0.2898    0.072  0.13008     O
O       0.2898   0.2178  0.13008     O
C       0.2929  0.14645   0.9166     C
H      0.29397  0.05344  0.26553     H
H      0.29397  0.24054  0.26553     H
H      0.29423  0.37906  0.57727     H
H      0.29423  0.91516  0.57727     H
C      0.29667  0.11884  0.32422     C
C      0.29667  0.17784  0.32422     C
O      0.29913  0.44876  0.84662     O
O      0.29913  0.85036  0.84662     O
C      0.31083  0.43316   0.8156     C
C      0.31083  0.87766   0.8156     C
H      0.31357  0.08274  0.32603     H
H      0.31357  0.23084  0.32603     H
C      0.32007  0.11174  0.36273     C
C      0.32007  0.20834  0.36273     C
H       0.3247   0.3905   0.9777     H
H       0.3247   0.9342   0.9777     H
N       0.3295  0.16475   0.9509     N
N      0.33717  0.16859  0.38243     N
H      0.34197  0.39914  0.35563     H
H      0.34197  0.94284  0.35563     H
C       0.3466    0.125   0.9706     C
C       0.3466   0.2216   0.9706     C
H      0.35177  0.42844  0.41623     H
H      0.35177  0.92334  0.41623     H
H       0.3531   0.1025   0.0073     H
H       0.3531   0.2506   0.0073     H
C      0.35583  0.45566  0.51774     C
C      0.35583  0.90016  0.51774     C
C       0.3647   0.1456   0.0226     C
C       0.3647   0.2191   0.0226     C
O      0.36753  0.48296  0.48672     O
O      0.36753  0.88456  0.48672     O
H      0.37243  0.41816  0.75607     H
H      0.37243  0.95426  0.75607     H
H       0.3727   0.0928   0.0678     H
H       0.3727   0.2799   0.0678     H
C      0.37377  0.18689  0.41673     C
C       0.3763   0.1398   0.0586     C
C       0.3763   0.2365   0.0586     C
O      0.37687  0.11554  0.20325     O
O      0.37687  0.26134  0.20325     O
Co     0.37767  0.18884  0.13509    Co
H      0.37907  0.08484  0.42273     H
H      0.37907  0.29424  0.42273     H
H      0.38677  0.42614  0.40113     H
H      0.38677  0.96064  0.40113     H
C       0.3868   0.1092   0.0316     C
C       0.3868   0.2776   0.0316     C
C      0.38907  0.44254  0.36493     C
C      0.38907  0.94654  0.36493     C
C      0.38983  0.48746  0.79914     C
C      0.38983  0.90236  0.79914     C
H       0.3905   0.0658   0.0223     H
H       0.3905   0.3247   0.0223     H
C      0.39267  0.13404  0.43351     C
C      0.39267  0.25864  0.43351     C
N       0.3932   0.1902  0.08103     N
C      0.39487  0.45994  0.40083     C
C      0.39487  0.93494  0.40083     C
H      0.39913  0.05716  0.64437     H
H      0.39913  0.34196  0.64437     H
O      0.40533  0.44886  0.53659     O
O      0.40533  0.95646  0.53659     O
C      0.40803  0.46736  0.76685     C
C      0.40803  0.94066  0.76685     C
H      0.41607  0.43584  0.34063     H
H      0.41607  0.98024  0.34063     H
H      0.41817  0.04574  0.24393     H
H      0.41817  0.37244  0.24393     H
H      0.42613  0.03936  0.59887     H
H      0.42613  0.38676  0.59887     H
H      0.42843  0.07666  0.58377     H
H      0.42843  0.35176  0.58377     H
H      0.43043  0.56956  0.83867     H
H      0.43043  0.86086  0.83867     H
C      0.43097  0.15414   0.4658     C
C      0.43097  0.27684   0.4658     C
C      0.43317  0.12234   0.1844     C
C      0.43317  0.31084   0.1844     C
H      0.43583  0.01976  0.65937     H
H      0.43583  0.41606  0.65937     H
C      0.44238  0.55761  0.81597     C
C      0.44238  0.88476  0.81597     C
C      0.44253  0.05346  0.63507     C
C      0.44253  0.38906  0.63507     C
C      0.44507  0.45834  0.30393     C
C      0.44507  0.98674  0.30393     C
C      0.44757  0.47894  0.35593     C
C      0.44757  0.96864  0.35593     C
C      0.44857  0.22429  0.48263     C
O      0.44877  0.14964  0.15338     O
O      0.44877  0.29914  0.15338     O
O      0.44887  0.04354  0.46341     O
O      0.44887  0.40534  0.46341     O
C      0.45567  0.09984  0.48226     C
C      0.45567  0.35584  0.48226     C
C      0.45833  0.01326  0.69607     C
C      0.45833  0.44506  0.69607     C
C      0.45993  0.06506  0.59917     C
C      0.45993  0.39486  0.59917     C
N      0.46367  0.52354  0.41436     N
N      0.46367  0.94014  0.41436     N
C      0.46737  0.05934  0.23315     C
C      0.46737  0.40804  0.23315     C
H      0.47247  0.23624  0.50533     H
Co     0.47783  0.52217  0.46842    Co
Co     0.47783  0.95566  0.46842    Co
C      0.47893  0.03136  0.64407     C
C      0.47893  0.44756  0.64407     C
C      0.47978  0.52021  0.75007     C
C      0.47978  0.95956  0.75007     C
O      0.48297  0.11544  0.51328     O
O      0.48297  0.36754  0.51328     O
C      0.48747  0.09764  0.20086     C
C      0.48747  0.38984  0.20086     C
N      0.49808  0.50191  0.71577     N
N      0.49808  0.99616  0.71577     N
N      0.50192  0.00384  0.28423     N
N      0.50192  0.49809  0.28423     N
C      0.51117  0.54784  0.34244     C
C      0.51117  0.96334  0.34244     C
C      0.51253  0.61016  0.79914     C
C      0.51253  0.90236  0.79914     C
O      0.51703  0.63246  0.48672     O
O      0.51703  0.88456  0.48672     O
C      0.52022  0.04044  0.24993     C
C      0.52022  0.47979  0.24993     C
Co     0.52217  0.04434  0.53158    Co
Co     0.52217  0.47783  0.53158    Co
N      0.52353  0.05986  0.58564     N
N      0.52353  0.46366  0.58564     N
C      0.52687  0.56984  0.39193     C
C      0.52687  0.95704  0.39193     C
H      0.52753  0.76376  0.49467     H
C      0.53263  0.59196  0.76685     C
C      0.53263  0.94066  0.76685     C
C      0.54167  0.55494  0.30393     C
C      0.54167  0.98674  0.30393     C
C      0.54433  0.64416  0.51774     C
C      0.54433  0.90016  0.51774     C
C      0.54783  0.03666  0.65756     C
C      0.54783  0.51116  0.65756     C
O      0.55113  0.59466  0.53659     O
O      0.55113  0.95646  0.53659     O
O      0.55123  0.70086  0.84662     O
O      0.55123  0.85036  0.84662     O
C      0.55143  0.77571  0.51737     C
C      0.55493  0.01326  0.69607     C
C      0.55493  0.54166  0.69607     C
C      0.55747  0.61094  0.36493     C
C      0.55747  0.94654  0.36493     C
C      0.55762  0.11524  0.18403     C
C      0.55762  0.44239  0.18403     C
H      0.56417  0.58394  0.34063     H
H      0.56417  0.98024  0.34063     H
C      0.56683  0.68916   0.8156     C
C      0.56683  0.87766   0.8156     C
C      0.56903  0.72316   0.5342     C
C      0.56903  0.84586   0.5342     C
H      0.56957  0.13914  0.16133     H
H      0.56957  0.43044  0.16133     H
C      0.56983  0.04296  0.60807     C
C      0.56983  0.52686  0.60807     C
H      0.57387  0.61324  0.40113     H
H      0.57387  0.96064  0.40113     H
H      0.58183  0.62756  0.75607     H
H      0.58183  0.95426  0.75607     H
H      0.58393  0.01976  0.65937     H
H      0.58393  0.56416  0.65937     H
H         0.59   0.6851   0.9171     H
H         0.59   0.9049   0.9171     H
C      0.59197  0.05934  0.23315     C
C      0.59197  0.53264  0.23315     C
O      0.59467  0.04354  0.46341     O
O      0.59467  0.55114  0.46341     O
H      0.60087  0.65804  0.35563     H
H      0.60087  0.94284  0.35563     H
C       0.6016   0.7282   0.9325     C
C       0.6016   0.8734   0.9325     C
N       0.6068    0.797  0.91897     N
C      0.60733  0.74136  0.56649     C
C      0.60733  0.86596  0.56649     C
H       0.6095   0.6753   0.9777     H
H       0.6095   0.9342   0.9777     H
C      0.61017  0.09764  0.20086     C
C      0.61017  0.51254  0.20086     C
C      0.61093  0.05346  0.63507     C
C      0.61093  0.55746  0.63507     C
C       0.6132   0.7224   0.9684     C
C       0.6132   0.8908   0.9684     C
H      0.61323  0.03936  0.59887     H
H      0.61323  0.57386  0.59887     H
H      0.62093  0.70576  0.57727     H
H      0.62093  0.91516  0.57727     H
Co     0.62233  0.81116  0.86491    Co
O      0.62313  0.73866  0.79675     O
O      0.62313  0.88446  0.79675     O
C      0.62623  0.81311  0.58327     C
H       0.6273   0.7201   0.9322     H
H       0.6273   0.9072   0.9322     H
H      0.62757  0.04574  0.24393     H
H      0.62757  0.58184  0.24393     H
C         0.63   0.7855  0.99089     C
C         0.63   0.8445  0.99089     C
O      0.63247  0.11544  0.51328     O
O      0.63247  0.51704  0.51328     O
C      0.64417  0.09984  0.48226     C
C      0.64417  0.54434  0.48226     C
H       0.6469   0.7494   0.9927     H
H       0.6469   0.8975   0.9927     H
C       0.6534   0.7784   0.0294     C
C       0.6534    0.875   0.0294     C
H      0.65803  0.05716  0.64437     H
H      0.65803  0.60086  0.64437     H
N      0.66283  0.83141  0.61757     N
N       0.6705  0.83525   0.0491     N
H       0.6753   0.0658   0.0223     H
H       0.6753   0.6095   0.0223     H
C      0.67993  0.79166  0.63727     C
C      0.67993  0.88826  0.63727     C
H       0.6851   0.0951   0.0829     H
H       0.6851     0.59   0.0829     H
H      0.68643  0.76916  0.67397     H
H      0.68643  0.91726  0.67397     H
C      0.68917  0.12234   0.1844     C
C      0.68917  0.56684   0.1844     C
C      0.69803  0.81226  0.68927     C
C      0.69803  0.88576  0.68927     C
O      0.70087  0.14964  0.15338     O
O      0.70087  0.55124  0.15338     O
H      0.70577  0.08484  0.42273     H
H      0.70577  0.62094  0.42273     H
H      0.70603  0.75946  0.73447     H
H      0.70603  0.94656  0.73447     H
C       0.7071  0.85355   0.0834     C
C      0.70963  0.80646  0.72527     C
C      0.70963  0.90316  0.72527     C
O       0.7102   0.7822  0.86992     O
O       0.7102    0.928  0.86992     O
Co       0.711   0.8555  0.80176    Co
H       0.7124   0.7515   0.0894     H
H       0.7124   0.9609   0.0894     H
H       0.7201   0.0928   0.0678     H
H       0.7201   0.6273   0.0678     H
C      0.72013  0.77586  0.69827     C
C      0.72013  0.94426  0.69827     C
C       0.7224   0.1092   0.0316     C
C       0.7224   0.6132   0.0316     C
C      0.72317  0.15414   0.4658     C
C      0.72317  0.56904   0.4658     C
H      0.72383  0.73246  0.68897     H
H      0.72383  0.99136  0.68897     H
C        0.726   0.8007  0.10018     C
C        0.726   0.9253  0.10018     C
N      0.72653  0.85686   0.7477     N
C       0.7282   0.1266   0.0675     C
C       0.7282   0.6016   0.0675     C
H      0.73247  0.00864  0.31103     H
H      0.73247  0.72384  0.31103     H
O      0.73867  0.11554  0.20325     O
O      0.73867  0.62314  0.20325     O
C      0.74137  0.13404  0.43351     C
C      0.74137  0.60734  0.43351     C
H       0.7494   0.1025   0.0073     H
H       0.7494   0.6469   0.0073     H
H       0.7515   0.0391   0.9106     H
H       0.7515   0.7124   0.9106     H
H      0.75947  0.05344  0.26553     H
H      0.75947  0.70604  0.26553     H
H      0.76177  0.01844  0.25043     H
H      0.76177  0.74334  0.25043     H
H      0.76377  0.23624  0.50533     H
H      0.76377  0.52754  0.50533     H
C       0.7643   0.8208  0.13247     C
C       0.7643   0.9435  0.13247     C
C       0.7665    0.789  0.85107     C
C       0.7665   0.9775  0.85107     C
H      0.76917  0.08274  0.32603     H
H      0.76917  0.68644  0.32603     H
C      0.77572  0.22429  0.48263     C
C      0.77572  0.55144  0.48263     C
C      0.77587  0.05574  0.30173     C
C      0.77587  0.72014  0.30173     C
C       0.7784    0.125   0.9706     C
C       0.7784   0.6534   0.9706     C
C       0.7809   0.1456   0.0226     C
C       0.7809   0.6353   0.0226     C
C       0.7819  0.89095   0.1493     C
O       0.7821   0.8163  0.82005     O
O       0.7821   0.9658  0.82005     O
O       0.7822    0.072  0.13008     O
O       0.7822   0.7102  0.13008     O
C        0.789   0.0225  0.14893     C
C        0.789   0.7665  0.14893     C
C      0.79167  0.11174  0.36273     C
C      0.79167  0.67994  0.36273     C
C      0.79327  0.06154  0.26583     C
C      0.79327  0.73174  0.26583     C
N        0.797   0.1902  0.08103     N
N        0.797   0.6068  0.08103     N
C       0.8007   0.0747  0.89982     C
C       0.8007    0.726  0.89982     C
H       0.8058   0.9029    0.172     H
Co     0.81117  0.18884  0.13509    Co
Co     0.81117  0.62234  0.13509    Co
C      0.81227  0.11424  0.31073     C
C      0.81227  0.69804  0.31073     C
C      0.81312  0.18689  0.41673     C
C      0.81312  0.62624  0.41673     C
O       0.8163   0.0342  0.17995     O
O       0.8163   0.7821  0.17995     O
C       0.8208   0.0565  0.86753     C
C       0.8208   0.7643  0.86753     C
N      0.83142  0.16859  0.38243     N
N      0.83142  0.66284  0.38243     N
N      0.83525  0.16475   0.9509     N
N      0.83525   0.6705   0.9509     N
C       0.8445   0.2145  0.00911     C
C       0.8445     0.63  0.00911     C
C      0.84587  0.27684   0.4658     C
C      0.84587  0.56904   0.4658     C
O      0.85037  0.29914  0.15338     O
O      0.85037  0.55124  0.15338     O
C      0.85355  0.14645   0.9166     C
C      0.85355   0.7071   0.9166     C
Co      0.8555   0.1445  0.19824    Co
Co      0.8555    0.711  0.19824    Co
N      0.85687  0.13034   0.2523     N
N      0.85687  0.72654   0.2523     N
C       0.8602   0.2365   0.0586     C
C       0.8602   0.6237   0.0586     C
H      0.86087  0.43044  0.16133     H
C      0.86597  0.25864  0.43351     C
C      0.86597  0.60734  0.43351     C
C        0.875   0.2216   0.9706     C
C        0.875   0.6534   0.9706     C
C      0.87767  0.31084   0.1844     C
C      0.87767  0.56684   0.1844     C
C      0.88117  0.17784  0.32422     C
C      0.88117  0.70334  0.32422     C
O      0.88447  0.26134  0.20325     O
O      0.88447  0.62314  0.20325     O
O      0.88457  0.36754  0.51328     O
O      0.88457  0.51704  0.51328     O
C      0.88477  0.44239  0.18403     C
C      0.88827  0.20834  0.36273     C
C      0.88827  0.67994  0.36273     C
C       0.8908   0.2776   0.0316     C
C       0.8908   0.6132   0.0316     C
C      0.89095  0.10905   0.8507     C
C      0.89095   0.7819   0.8507     C
H       0.8975   0.2506   0.0073     H
H       0.8975   0.6469   0.0073     H
C      0.90017  0.35584  0.48226     C
C      0.90017  0.54434  0.48226     C
C      0.90237  0.38984  0.20086     C
C      0.90237  0.51254  0.20086     C
H       0.9029   0.0971    0.828     H
H       0.9029   0.8058    0.828     H
C      0.90317  0.19354  0.27473     C
C      0.90317  0.70964  0.27473     C
H       0.9072   0.2799   0.0678     H
H       0.9072   0.6273   0.0678     H
H      0.91517  0.29424  0.42273     H
H      0.91517  0.62094  0.42273     H
H      0.91727  0.23084  0.32603     H
H      0.91727  0.68644  0.32603     H
H      0.92333  0.35176  0.58377     H
H      0.92333  0.57156  0.58377     H
C       0.9253   0.1993  0.89982     C
C       0.9253    0.726  0.89982     C
O        0.928   0.2178  0.13008     O
O        0.928   0.7102  0.13008     O
H       0.9342   0.3247   0.0223     H
H       0.9342   0.6095   0.0223     H
C      0.93493  0.39486  0.59917     C
C      0.93493  0.54006  0.59917     C
N      0.94013  0.46366  0.58564     N
C      0.94067  0.40804  0.23315     C
C      0.94067  0.53264  0.23315     C
H      0.94283  0.34196  0.64437     H
H      0.94283  0.60086  0.64437     H
C       0.9435   0.1792  0.86753     C
C       0.9435   0.7643  0.86753     C
C      0.94427  0.22414  0.30173     C
C      0.94427  0.72014  0.30173     C
C      0.94653  0.38906  0.63507     C
C      0.94653  0.55746  0.63507     C
H      0.94657  0.24054  0.26553     H
H      0.94657  0.70604  0.26553     H
H      0.95427  0.37244  0.24393     H
H      0.95427  0.58184  0.24393     H
Co     0.95566  0.47783  0.53158    Co
O      0.95647  0.40534  0.46341     O
O      0.95647  0.55114  0.46341     O
C      0.95957  0.47979  0.24993     C
H      0.96063  0.38676  0.59887     H
H      0.96063  0.57386  0.59887     H
H       0.9609   0.2485   0.9106     H
H       0.9609   0.7124   0.9106     H
C      0.96333  0.45216  0.65756     C
C      0.96333  0.51116  0.65756     C
O       0.9658   0.1837  0.17995     O
O       0.9658   0.7821  0.17995     O
C       0.9775    0.211  0.14893     C
C       0.9775   0.7665  0.14893     C
H      0.98023  0.41606  0.65937     H
H      0.98023  0.56416  0.65937     H
C      0.98673  0.44506  0.69607     C
C      0.98673  0.54166  0.69607     C
H      0.99137  0.26754  0.31103     H
H      0.99137  0.72384  0.31103     H
N      0.99617  0.49809  0.28423     N
