data_I
_chemical_name_common  '/Users/gianmarcoterrones/Research/MOFs/MOF_structures/water_stability_work_extra_structs/cleaned_from_CCDC/HEBHED'
_cell_length_a  9.13930
_cell_length_b 13.80150
_cell_length_c 17.04500
_cell_angle_alpha 111.03700
_cell_angle_beta  90.00000
_cell_angle_gamma 90.00000
_space_group_name_H-M_alt      'P 1'


loop_
_space_group_symop_operation_xyz
  'x, y, z' 

loop_
_atom_site_label
_atom_site_fract_x
_atom_site_fract_y
_atom_site_fract_z
_atom_site_type_symbol
C       0.0071   0.1961   0.5457     C
H       0.0127   0.6383   0.7253     H
C       0.0131   0.0957   0.7999     C
C       0.0178    0.926   0.1223     C
H       0.0211   0.5864   0.4807     H
C       0.0323   0.4328   0.9212     C
C       0.0353   0.2189   0.2754     C
H       0.0383   0.8165   0.7614     H
C       0.0465   0.2927   0.5493     C
C       0.0474   0.6522   0.4825     C
C       0.0501   0.3246   0.2965     C
C       0.0509   0.5999   0.0259     C
O       0.0514   0.0032  0.89058     O
C       0.0523   0.8229   0.2988     C
H       0.0541   0.3864   0.8676     H
C       0.0678   0.1308   0.6526     C
C       0.0771   0.8404   0.2254     C
C       0.0845    0.534   0.9466     C
H       0.0849   0.6679   0.0444     H
O        0.085  0.16656  0.06324     O
Co     0.10241  0.91708  0.97176    Co
O       0.1032   0.1411  0.57761     O
O       0.1112   0.8692  0.07095     O
H        0.114    0.699     0.92     H
H        0.115   0.7808   0.3155     H
H       0.1178   0.0951   0.2937     H
C       0.1204   0.8498   0.4922     C
C       0.1276   0.1665    0.308     C
C       0.1332   0.0513   0.7506     C
H       0.1356   0.3211   0.5727     H
H       0.1431   0.9173   0.4967     H
H       0.1564   0.8085   0.1919     H
H       0.1573   0.5222   0.8307     H
C       0.1596   0.3729   0.3503     C
C       0.1612   0.0694   0.6781     C
N       0.1686   0.6729   0.8988     N
H       0.1708   0.4441   0.3645     H
C       0.1803   0.6943   0.5169     C
C       0.1816   0.5644   0.8883     C
H       0.1956   0.0087   0.7668     H
H       0.1989   0.3246   0.0492     H
C       0.2087   0.1281   0.0385     C
C       0.2143   0.7944   0.5235     C
H       0.2176   0.0499   0.3981     H
C       0.2382   0.2205   0.3636     C
H       0.2433   0.0403   0.6461     H
O       0.2436  0.03516  0.02373     O
N       0.2471   0.8233  0.88432     N
N       0.2529   0.3233  0.38432     N
O       0.2564  0.53516  0.52373     O
H       0.2567   0.5403   0.1461     H
C       0.2618   0.7205   0.8636     C
H       0.2824   0.5499   0.8981     H
C       0.2857   0.2944   0.0235     C
C       0.2913   0.6281   0.5385     C
H       0.3011   0.8246   0.5492     H
H       0.3044   0.5087   0.2668     H
C       0.3184   0.0644   0.3883     C
C       0.3197   0.1943   0.0169     C
H       0.3292   0.9441   0.8645     H
N       0.3314   0.1729   0.3988     N
C       0.3388   0.5694   0.1781     C
C       0.3404   0.8729   0.8503     C
H       0.3427   0.0222   0.3307     H
H       0.3436   0.3085   0.6919     H
H       0.3569   0.4173   0.9967     H
H       0.3644   0.8211   0.0727     H
C       0.3668   0.5513   0.2506     C
C       0.3724   0.6665    0.808     C
C       0.3796   0.3498   0.9922     C
H       0.3822   0.5951   0.7937     H
H        0.385   0.2808   0.8155     H
H        0.386    0.199     0.42     H
O       0.3888   0.3692  0.57095     O
O       0.3968   0.6411  0.07761     O
Co     0.39759  0.41708  0.47176    Co
O        0.415  0.66656  0.56324     O
H       0.4151   0.1679   0.5444     H
C       0.4155    0.034   0.4466     C
C       0.4229   0.3404   0.7254     C
C       0.4322   0.6308   0.1526     C
H       0.4459   0.8864   0.3676     H
C       0.4477   0.3229   0.7988     C
O       0.4486   0.5032  0.39058     O
C       0.4491   0.0999   0.5259     C
C       0.4499   0.8246   0.7965     C
C       0.4526   0.1522   0.9825     C
C       0.4535   0.7927   0.0493     C
H       0.4617   0.3165   0.2614     H
C       0.4647   0.7189   0.7754     C
C       0.4677   0.9328   0.4212     C
H       0.4789   0.0864   0.9807     H
C       0.4822    0.426   0.6223     C
C       0.4869   0.5957   0.2999     C
H       0.4873   0.1383   0.2253     H
C       0.4929   0.6961   0.0457     C
C       0.5071   0.3039   0.9543     C
H       0.5127   0.8617   0.7747     H
C       0.5131   0.4043   0.7001     C
C       0.5178    0.574   0.3777     C
H       0.5211   0.9136   0.0193     H
C       0.5323   0.0672   0.5788     C
C       0.5353   0.2811   0.2246     C
H       0.5383   0.6835   0.7386     H
C       0.5465   0.2073   0.9507     C
C       0.5474   0.8478   0.0175     C
C       0.5501   0.1754   0.2035     C
C       0.5509   0.9001   0.4741     C
O       0.5514   0.4968  0.60942     O
C       0.5523   0.6771   0.2012     C
H       0.5541   0.1136   0.6324     H
C       0.5678   0.3692   0.8474     C
C       0.5771   0.6596   0.2746     C
C       0.5845    0.966   0.5534     C
H       0.5849   0.8321   0.4556     H
O        0.585  0.33344  0.43676     O
Co     0.60241  0.58292  0.52824    Co
O       0.6032   0.3589  0.92239     O
O       0.6112   0.6308  0.42905     O
H        0.614    0.801     0.58     H
H        0.615   0.7192   0.1845     H
H       0.6178   0.4049   0.2063     H
C       0.6204   0.6502   0.0078     C
C       0.6276   0.3335    0.192     C
C       0.6332   0.4487   0.7494     C
H       0.6356   0.1789   0.9273     H
H       0.6431   0.5827   0.0033     H
H       0.6564   0.6915   0.3081     H
H       0.6573   0.9778   0.6693     H
C       0.6596   0.1271   0.1497     C
C       0.6612   0.4306   0.8219     C
N       0.6686   0.8271   0.6012     N
H       0.6708   0.0559   0.1355     H
C       0.6803   0.8057   0.9831     C
C       0.6816   0.9356   0.6117     C
H       0.6956   0.4913   0.7332     H
H       0.6989   0.1754   0.4508     H
C       0.7087   0.3719   0.4615     C
C       0.7143   0.7056   0.9765     C
H       0.7176   0.4501   0.1019     H
C       0.7382   0.2795   0.1364     C
H       0.7433   0.4597   0.8539     H
O       0.7436  0.46484  0.47627     O
N       0.7471   0.6767  0.61568     N
N       0.7529   0.1767  0.11568     N
O       0.7564  0.96484  0.97627     O
H       0.7567   0.9597   0.3539     H
C       0.7618   0.7795   0.6364     C
H       0.7824   0.9501   0.6019     H
C       0.7857   0.2056   0.4765     C
C       0.7913   0.8719   0.9615     C
H       0.8011   0.6754   0.9508     H
H       0.8044   0.9913   0.2332     H
C       0.8184   0.4356   0.1117     C
C       0.8197   0.3057   0.4831     C
H       0.8292   0.5559   0.6355     H
N       0.8314   0.3271   0.1012     N
C       0.8388   0.9306   0.3219     C
C       0.8404   0.6271   0.6497     C
H       0.8427   0.4778   0.1693     H
H       0.8436   0.1915   0.8081     H
H       0.8569   0.0827   0.5033     H
H       0.8644   0.6789   0.4273     H
C       0.8668   0.9487   0.2494     C
C       0.8724   0.8335    0.692     C
C       0.8796   0.1502   0.5078     C
H       0.8822   0.9049   0.7063     H
H        0.885   0.2192   0.6845     H
H        0.886    0.301     0.08     H
O       0.8888   0.1308  0.92905     O
O       0.8968   0.8589  0.42239     O
Co     0.89759  0.08292  0.02824    Co
O        0.915  0.83344  0.93676     O
H       0.9151   0.3321   0.9556     H
C       0.9155    0.466   0.0534     C
C       0.9229   0.1596   0.7746     C
C       0.9322   0.8692   0.3474     C
H       0.9459   0.6136   0.1324     H
C       0.9477   0.1771   0.7012     C
O       0.9486   0.9968  0.10942     O
C       0.9491   0.4001   0.9741     C
C       0.9499   0.6754   0.7035     C
C       0.9526   0.3478   0.5175     C
C       0.9535   0.7073   0.4507     C
H       0.9617   0.1835   0.2386     H
C       0.9647   0.7811   0.7246     C
C       0.9677   0.5672   0.0788     C
H       0.9789   0.4136   0.5193     H
C       0.9822    0.074   0.8777     C
C       0.9869   0.9043   0.2001     C
H       0.9873   0.3617   0.2747     H
C       0.9929   0.8039   0.4543     C
