data_I
_chemical_name_common  '/Users/gianmarcoterrones/Research/MOFs/MOF_structures/water_stability_work_extra_structs/cleaned_from_CCDC/HEBJIJ'
_cell_length_a  8.28000
_cell_length_b 10.18400
_cell_length_c 15.67900
_cell_angle_alpha 81.10200
_cell_angle_beta  85.71900
_cell_angle_gamma 74.98500
_space_group_name_H-M_alt      'P 1'


loop_
_space_group_symop_operation_xyz
  'x, y, z' 

loop_
_atom_site_label
_atom_site_fract_x
_atom_site_fract_y
_atom_site_fract_z
_atom_site_type_symbol
Co         0.0      0.5      0.5    Co
C       0.0075   0.7353   0.7716     C
C       0.0202    0.507   0.2124     C
O       0.0206   0.1561   0.1943     O
Co     0.03269  0.02186  0.74982    Co
H       0.0399   0.4828   0.7355     H
O       0.0403    0.232  0.72912     O
C       0.0509   0.7469   0.2017     C
C       0.0528   0.3832   0.1786     C
O       0.0533   0.6745   0.5379     O
H       0.0635   0.6769   0.5913     H
C       0.0791   0.6147   0.1668     C
O       0.0823   0.7202   0.6993     O
H       0.0994   0.9238   0.9366     H
O       0.1115   0.8426   0.1627     O
C       0.1372   0.3693   0.0999     C
H       0.1422   0.6911   0.5082     H
H       0.1452   0.3413    0.649     H
O       0.1511   0.3783   0.5939     O
H       0.1545   0.9771   0.3801     H
H       0.1567   0.2869   0.0775     H
O       0.1611   0.9315   0.3349     O
C       0.1644   0.6029   0.0876     C
H       0.1654   0.8592    0.644     H
H       0.1927   0.8428   0.3618     H
C       0.1935   0.4793   0.0535     C
O       0.1951   0.9369   0.6496     O
C       0.1965   0.9529   0.9215     C
H       0.2019   0.6762   0.0575     H
O        0.208   0.4769   0.4155     O
H       0.2229   0.6471   0.9152     H
N         0.23   0.9898    0.837     N
H       0.2401   0.3136   0.5788     H
H       0.2655   0.9305    0.043     H
O       0.2771   0.4561   0.9768     O
O       0.2934   0.6674   0.4168     O
C       0.2954   0.5597   0.3854     C
C       0.2961   0.9557   0.9857     C
H       0.3011   0.9179    0.673     H
C       0.3226   0.5733   0.9277     C
H       0.3661   0.3494   0.8446     H
H       0.3666   0.3361   0.3091     H
C        0.373   0.0253   0.8178     C
H       0.3949   0.6056    0.961     H
H       0.4014   0.0482   0.7599     H
C       0.4077   0.5235   0.3083     C
C       0.4121    0.535   0.8444     C
C       0.4201   0.3994   0.2782     C
C       0.4209    0.412    0.814     C
H       0.4209   0.9436   0.1393     H
C       0.4438   0.9964   0.9659     C
H       0.4803   0.7143   0.8149     H
C       0.4807   0.0303   0.8781     C
H        0.483   0.7003   0.2813     H
C       0.4892   0.6175   0.2615     C
C       0.4898   0.6302   0.7962     C
C       0.5102   0.3698   0.2038     C
C       0.5108   0.3825   0.7385     C
H        0.517   0.2997   0.7187     H
C       0.5193   0.9697   0.1219     C
H       0.5197   0.2857   0.1851     H
C       0.5562   0.0036   0.0341     C
H       0.5791   0.0564   0.8607     H
C       0.5791    0.588    0.186     C
C       0.5799   0.6006   0.7218     C
C       0.5879    0.465   0.1556     C
C       0.5923   0.4765   0.6917     C
H       0.5986   0.9518   0.2401     H
H       0.6051   0.3944    0.039     H
C        0.627   0.9747   0.1822     C
H       0.6334   0.6639   0.6909     H
H       0.6339   0.6506   0.1554     H
C       0.6774   0.4267   0.0723     C
H       0.6989   0.0821    0.327     H
C       0.7039   0.0443   0.0143     C
C       0.7046   0.4403   0.6146     C
O       0.7066   0.3326   0.5832     O
O       0.7229   0.5439   0.0232     O
H       0.7345   0.0695    0.957     H
H       0.7599   0.6864   0.4212     H
N         0.77   0.0102    0.163     N
H       0.7771   0.3529   0.0848     H
O        0.792   0.5231   0.5845     O
H       0.7981   0.3238   0.9425     H
C       0.8035   0.0471   0.0785     C
O       0.8049   0.0631   0.3504     O
C       0.8065   0.5207   0.9465     C
H       0.8073   0.1572   0.6382     H
H       0.8346   0.1408    0.356     H
C       0.8356   0.3971   0.9124     C
O       0.8389   0.0685   0.6651     O
H       0.8433   0.7131   0.9225     H
H       0.8455   0.0229   0.6199     H
O       0.8489   0.6217   0.4061     O
H       0.8548   0.6587    0.351     H
H       0.8578   0.3089   0.4918     H
C       0.8628   0.6307   0.9001     C
O       0.8885   0.1574   0.8373     O
H       0.9006   0.0762   0.0634     H
O       0.9177   0.2798   0.3007     O
C       0.9209   0.3853   0.8332     C
H       0.9365   0.3231   0.4087     H
O       0.9467   0.3255   0.4621     O
C       0.9472   0.6168   0.8214     C
C       0.9491   0.2531   0.7983     C
O       0.9597    0.768  0.27088     O
H       0.9601   0.5172   0.2645     H
Co     0.96731  0.97814  0.25018    Co
O       0.9794   0.8439   0.8057     O
C       0.9798    0.493   0.7876     C
C       0.9925   0.2647   0.2284     C
