data_I
_chemical_name_common  '/Users/gianmarcoterrones/Research/MOFs/MOF_structures/water_stability_work_extra_structs/cleaned_from_CCDC/HEBJEF'
_cell_length_a 10.02200
_cell_length_b 10.82647
_cell_length_c 21.90400
_cell_angle_alpha 90.17197
_cell_angle_beta  90.00000
_cell_angle_gamma 117.57097
_space_group_name_H-M_alt      'P 1'


loop_
_space_group_symop_operation_xyz
  'x, y, z' 

loop_
_atom_site_label
_atom_site_fract_x
_atom_site_fract_y
_atom_site_fract_z
_atom_site_type_symbol
Mn         0.0      0.5      0.0    Mn
O      0.01087  0.43274  0.91061     O
Mn     0.04552  0.19002  0.98548    Mn
C       0.0492   0.5642   0.5986     C
H       0.0504   0.7092   0.3719     H
C       0.0554   0.3498   0.6341     C
H       0.0588   0.4846   0.4014     H
O      0.06121  0.80762  0.49302     O
H       0.0726   0.3864    0.675     H
O         0.08   0.9922  0.44251     O
H       0.0835   0.6302   0.5658     H
H       0.0842   0.6126   0.6368     H
O       0.0878   0.0078  0.05749     O
H       0.0937   0.4786   0.2144     H
C       0.0978   0.3946  0.88461     C
H       0.0993   0.3378   0.2926     H
N      0.10867  0.46454  0.59065     N
H       0.1089   0.2966    0.628     H
O      0.11614  0.29108  0.90076     O
C       0.1341   0.9118  0.45871     C
O      0.14181  0.40042  0.03479     O
Mn      0.1445  0.19002  0.48548    Mn
O      0.14507  0.85214  0.96152     O
H       0.1636   0.6514    0.852     H
C       0.1717    0.514   0.2427     C
O      0.17494  0.29108  0.40076     O
C       0.1757    0.429   0.2894     C
C       0.1866   0.4798   0.8313     C
H       0.1877   0.2966    0.128     H
H       0.1972   0.6916   0.1593     H
C       0.2026     0.48   0.5472     C
O       0.2051   0.6828  0.98476     O
C       0.2102    0.617  0.82501     C
H       0.2199   0.8986   0.1177     H
C       0.2223   0.0882  0.04129     C
H       0.2316   0.5582   0.5226     H
C      0.23523  0.80126  0.96375     C
H       0.2385   0.3378   0.7926     H
H       0.2425   0.8112   0.2082     H
C       0.2533    0.429   0.7894     C
O      0.25359  0.19238  0.00698     O
O      0.25861  0.40042  0.53479     O
C        0.272    0.746   0.1896     C
C       0.2774     0.48   0.0472     C
C       0.2827   0.6514   0.2378     C
C      0.28672  0.93844  0.43637     C
O      0.29293  0.14786  0.53848     O
C       0.2932   0.4798   0.3313     C
H       0.2942    0.779   0.4813     H
C       0.2944   0.3498   0.1341     C
C       0.2968   0.3946  0.38461     C
C       0.3017   0.7024   0.7794     C
H       0.3138   0.3864    0.175     H
C      0.31728  0.95256  0.10344     C
H       0.3183    0.794   0.7767     H
H       0.3213   0.1014   0.3823     H
H       0.3254   0.9794   0.6089     H
H       0.3266   0.5582   0.0226     H
H       0.3412   0.2908   0.1281     H
C       0.3423    0.514   0.7427     C
H        0.346   0.0206   0.8911     H
C      0.34828  0.06156  0.06363     C
C      0.34953  0.85566  0.45657     C
N      0.35587  0.46454  0.09065     N
C      0.36472  0.04744  0.39656     C
C       0.3687   0.6514   0.7378     C
H       0.3849   0.4786   0.7144     H
C      0.39215   0.8875  0.93977     C
C       0.4007   0.7024   0.2794     C
O      0.40372  0.82004  0.66164     O
C       0.4068    0.617  0.32501     C
O      0.41632  0.82004  0.16164     O
O      0.42187  0.43274  0.41061     O
C      0.42209  0.99798  0.90137     C
C      0.42411  0.00202  0.59863     C
H       0.4258   0.4846   0.9014     H
H       0.4313   0.1888   0.2918     H
C       0.4338   0.9248  0.12188     C
C      0.43397  0.19874  0.53625     C
H       0.4533   0.3698   0.9342     H
H       0.4716   0.3874   0.8632     H
C        0.474    0.746   0.6896     C
H       0.4757    0.794   0.2767     H
O       0.4777   0.6828  0.48476     O
H       0.4848    0.779   0.9813     H
C        0.485   0.4358   0.9014     C
H       0.4878   0.6514    0.352     H
C        0.491   0.9248  0.62188     C
C      0.49387  0.14434  0.04343     C
H       0.4944   0.6916   0.6593     H
C      0.49535   0.8875  0.43977     C
Mn         0.5      0.5      0.5    Mn
C      0.50465   0.1125  0.56023     C
H       0.5056   0.3084   0.3407     H
C      0.50613  0.85566  0.95657     C
C        0.509   0.0752  0.37812     C
H       0.5122   0.3486    0.648     H
C        0.515   0.5642   0.0986     C
H       0.5152    0.221   0.0187     H
O       0.5223   0.3172  0.51524     O
H       0.5243    0.206   0.7233     H
C        0.526    0.254   0.3104     C
H       0.5284   0.6126   0.1368     H
H       0.5467   0.6302   0.0658     H
C      0.56603  0.80126  0.46375     C
C       0.5662   0.0752  0.87812     C
H       0.5687   0.8112   0.7082     H
H       0.5742   0.5154   0.0986     H
C      0.57589  0.99798  0.40137     C
C      0.57791  0.00202  0.09863     C
O      0.57813  0.56726  0.58939     O
O      0.58368  0.17996  0.83836     O
C       0.5932    0.383  0.67499     C
O      0.59628  0.17996  0.33836     O
C       0.5993   0.2976   0.7206     C
C      0.60785   0.1125  0.06023     C
H       0.6151   0.5214   0.2856     H
C       0.6313   0.3486   0.2622     C
C      0.63528  0.95256  0.60344     C
N      0.64413  0.53546  0.90935     N
C      0.65047  0.14434  0.54343     C
C      0.65172  0.93844  0.93637     C
H        0.654   0.9794   0.1089     H
C       0.6577    0.486   0.2573     C
H       0.6588   0.7092   0.8719     H
H       0.6734   0.4418   0.9774     H
H       0.6746   0.0206   0.3911     H
H       0.6787   0.8986   0.6177     H
H       0.6817    0.206   0.2233     H
C      0.68272  0.04744  0.89656     C
H       0.6862   0.6136    0.825     H
C       0.6983   0.2976   0.2206     C
C       0.7032   0.6054  0.61539     C
C       0.7056   0.6502   0.8659     C
H       0.7058    0.221   0.5187     H
C       0.7068   0.5202   0.6687     C
O      0.70707  0.85214  0.46152     O
C      0.71328  0.06156  0.56363     C
C       0.7173   0.3486   0.7622     C
C       0.7226     0.52   0.9528     C
C        0.728    0.254   0.8104     C
O      0.74139  0.59958  0.46521     O
O      0.74641  0.80762  0.99302     O
C       0.7467    0.571   0.2106     C
H       0.7575   0.1888   0.7918     H
H       0.7615   0.6622   0.2074     H
C      0.76477  0.19874  0.03625     C
H       0.7684   0.4418   0.4774     H
C       0.7777   0.9118  0.95871     C
H       0.7801   0.1014   0.8823     H
C       0.7898    0.383  0.17499     C
O       0.7949   0.3172  0.01524     O
C       0.7974     0.52   0.4528     C
H       0.8028   0.3084   0.8407     H
H       0.8123   0.7034    0.872     H
C       0.8134   0.5202   0.1687     C
C       0.8243    0.571   0.7106     C
O      0.82506  0.70892  0.59924     O
C       0.8283    0.486   0.7573     C
H       0.8364   0.3486    0.148     H
O      0.85493  0.14786  0.03848     O
Mn      0.8555  0.80998  0.51452    Mn
O      0.85819  0.59958  0.96521     O
C       0.8659   0.0882  0.54129     C
O      0.88386  0.70892  0.09924     O
H       0.8911   0.7034    0.372     H
N      0.89133  0.53546  0.40935     N
H       0.9007   0.6622   0.7074     H
C       0.9022   0.6054  0.11539     C
H       0.9063   0.5214   0.7856     H
O       0.9122   0.9922  0.94251     O
H       0.9158   0.3874   0.3632     H
H       0.9165   0.3698   0.4342     H
O         0.92   0.0078  0.55749     O
H       0.9274   0.6136    0.325     H
O      0.93879  0.19238  0.50698     O
H       0.9412   0.5154   0.5986     H
C       0.9446   0.6502   0.3659     C
H       0.9496   0.2908   0.6281     H
C       0.9508   0.4358   0.4014     C
Mn     0.95448  0.80998  0.01452    Mn
O      0.98913  0.56726  0.08939     O
