data_I
_chemical_name_common  '/Users/gianmarcoterrones/Research/MOFs/MOF_structures/water_stability_work_extra_structs/cleaned_from_CoRE/HISGAT_clean'
_cell_length_a 13.35530
_cell_length_b 14.56120
_cell_length_c 23.34000
_cell_angle_alpha 107.94600
_cell_angle_beta  90.00000
_cell_angle_gamma 117.29600
_space_group_name_H-M_alt      'P 1'


loop_
_space_group_symop_operation_xyz
  'x, y, z' 

loop_
_atom_site_label
_atom_site_fract_x
_atom_site_fract_y
_atom_site_fract_z
_atom_site_type_symbol
K          0.0      0.0      0.0     K
K          0.0      0.0      0.5     K
K      0.01402      0.0     0.25     K
O      0.02592  0.80004  0.99827     O
O      0.04373  0.80706  0.24773     O
H       0.0503   0.6334   0.9819     H
O      0.05063  0.84686  0.91491     O
O      0.05145   0.8569  0.67346     O
O      0.05188  0.82736  0.76174     O
C      0.05285   0.7919    0.947     C
H       0.0544   0.6452   0.7403     H
O         0.06   0.8434  0.16143     O
C      0.06384  0.80868  0.70704     C
C      0.06548  0.79356   0.1953     C
O      0.06651  0.86042  0.42407     O
O      0.06894  0.83348  0.51308     O
H       0.0738   0.6436   0.2357     H
H       0.0744   0.6528   0.4925     H
C      0.07869  0.81338   0.4579     C
C      0.08515   0.6347   0.9475     C
C      0.08694  0.64508  0.70508     C
C      0.09474  0.70928   0.9197     C
C      0.09811  0.72102  0.67832     C
C      0.10317  0.65034  0.45613     C
C      0.10335   0.6401  0.19952     C
C      0.10501  0.70782  0.16873     C
C      0.11046  0.72412  0.42843     C
K      0.11125  0.24012   0.6796     K
K      0.11603  0.24354  0.43014     K
H       0.1174   0.5184   0.6984     H
H       0.1206   0.5104    0.942     H
C      0.12394  0.56868   0.6799     C
K      0.12751  0.24354  0.93014     K
C      0.12761  0.56122  0.92384     C
K      0.12887  0.24012   0.1796     K
H        0.133   0.5224   0.4487     H
C      0.13863  0.57226  0.43014     C
C      0.14277  0.71714   0.6245     C
H       0.1445   0.5222   0.1983     H
H       0.1446    0.744   0.0923     H
C      0.14505   0.7095   0.8683     C
C      0.14512  0.56724  0.17724     C
C      0.14568  0.70016   0.1138     C
H       0.1475    0.766   0.6053     H
H       0.1499   0.7586   0.8493     H
C      0.15052  0.71764   0.3731     C
H       0.1524   0.7648   0.3533     H
C      0.17059  0.56818  0.62704     C
C      0.18009  0.56558  0.87311     C
C      0.18034  0.64168   0.5986     C
C       0.1822   0.5704  0.37599     C
O      0.18345   0.3931    0.623     O
C      0.18778  0.64156   0.3471     C
C      0.18796  0.62772   0.0907     C
C      0.18811  0.56242  0.12264     C
K      0.18854  0.99488  0.87073     K
C      0.18876  0.63832   0.8442     C
K      0.19366  0.00512  0.62927     K
O      0.19455   0.1431  0.82654     O
O      0.19482  0.39524  0.37196     O
O      0.20042  0.39524  0.87196     O
O      0.20377  0.15314  0.58509     O
O      0.20609  0.13958  0.07593     O
O      0.20722  0.44664  0.53052     O
O      0.20965   0.3931    0.123     O
H       0.2116   0.6406   0.5629     H
H       0.2159   0.6232    0.054     H
H       0.2162   0.6388   0.3106     H
O       0.2166   0.1566  0.33857     O
O      0.21973  0.44966   0.2797     O
H        0.223   0.6394   0.8095     H
O      0.22452  0.17264  0.73826     O
O      0.22588  0.19996  0.50173     O
S      0.22615   0.4773  0.59603     S
O      0.22993  0.44966   0.7797     O
O      0.23546  0.16652  0.98692     O
O      0.23667  0.19294  0.25227     O
S      0.23734  0.47964  0.34524     S
O      0.23942  0.44664  0.03052     O
S       0.2423  0.47964  0.84524     S
S      0.25115   0.4773  0.09603     S
C      0.25516  0.19132  0.79296     C
C      0.26095   0.2081    0.553     C
C      0.26531  0.18662   0.0421     C
C      0.27192  0.20644   0.3047     C
C      0.37431  0.56242  0.62264     C
C      0.37709  0.27898  0.82168     C
H       0.3777   0.5222   0.6983     H
H       0.3815    0.234   0.8947     H
C      0.38546  0.29072   0.5803     C
C      0.38549  0.56558  0.37311     C
C      0.38634  0.27588  0.07157     C
H       0.3876   0.2352   0.1467     H
C       0.3882   0.5704  0.87599     C
H       0.3894   0.5224   0.9487     H
H       0.3898   0.5104    0.442     H
H       0.3913   0.2414   0.6507     H
C      0.39719  0.29218  0.33127     C
C      0.39759  0.56818  0.12704     C
H       0.4006    0.256   0.4077     H
H        0.401   0.5184   0.1984     H
H       0.4073   0.6232    0.554     H
H       0.4092   0.3548   0.7597     H
H       0.4164   0.6394   0.3095     H
H       0.4169   0.3666   0.5181     H
H       0.4216   0.3472   0.0075     H
C      0.42212  0.56724  0.67724     C
H       0.4226   0.6388   0.8106     H
C      0.42563  0.28286   0.8755     C
H        0.429   0.6406   0.0629     H
H       0.4302   0.3564   0.2643     H
C      0.43288  0.28236   0.1269     C
C      0.43361  0.56122  0.42384     C
C      0.43363  0.57226  0.93014     C
C      0.43555   0.2905   0.6317     C
C      0.43976  0.62772   0.5907     C
C      0.44186  0.35492  0.79492     C
C      0.44474  0.56868   0.1799     C
C      0.44552  0.29984   0.3862     C
C      0.44956  0.63832   0.3442     C
C      0.45045   0.3653   0.5525     C
C      0.45283  0.34966  0.04387     C
C      0.45378  0.64156   0.8471     C
C      0.46134  0.64168   0.0986     C
C      0.46325   0.3599  0.30048     C
C      0.53675   0.6401  0.69952     C
C      0.53866  0.35832   0.9014     C
C      0.54622  0.35844   0.1529     C
C      0.54717  0.65034  0.95613     C
C      0.54955   0.6347   0.4475     C
C      0.55044  0.36168   0.6558     C
C      0.55448  0.70016   0.6138     C
C      0.55526  0.43132   0.8201     C
C      0.55814  0.64508  0.20508     C
C      0.56024  0.37228   0.4093     C
C      0.56445   0.7095   0.3683     C
C      0.56637  0.42774  0.06986     C
C      0.56639  0.43878  0.57616     C
C      0.56712  0.71764   0.8731     C
H       0.5698   0.6436   0.7357     H
H        0.571   0.3594   0.9371     H
C      0.57437  0.71714   0.1245     C
H       0.5774   0.3612   0.1894     H
C      0.57788  0.43276  0.32276     C
H       0.5784   0.6528   0.9925     H
H       0.5831   0.6334   0.4819     H
H       0.5836   0.3606   0.6905     H
H       0.5908   0.6452   0.2403     H
H       0.5927   0.3768    0.446     H
H        0.599   0.4816   0.8016     H
H       0.5994    0.744   0.5923     H
C      0.60241  0.43182  0.87296     C
C      0.60281  0.70782  0.66873     C
H       0.6087   0.7586   0.3493     H
H       0.6102   0.4896    0.558     H
H       0.6106   0.4776   0.0513     H
C       0.6118   0.4296  0.12401     C
H       0.6124   0.7648   0.8533     H
C      0.61366  0.72412  0.92843     C
C      0.61451  0.43442  0.62689     C
C      0.61454  0.70928   0.4197     C
H       0.6185    0.766   0.1053     H
H       0.6223   0.4778   0.3017     H
C      0.62291  0.72102  0.17832     C
C      0.62569  0.43758  0.37736     C
C      0.72808  0.79356   0.6953     C
C      0.73469  0.81338   0.9579     C
C      0.73905   0.7919    0.447     C
C      0.74484  0.80868  0.20704     C
S      0.74885   0.5227  0.90397     S
S       0.7577  0.52036  0.15476     S
O      0.76058  0.55336  0.96948     O
S      0.76266  0.52036  0.65476     S
O      0.76333  0.80706  0.74773     O
O      0.76454  0.83348  0.01308     O
O      0.77007  0.55034   0.2203     O
S      0.77385   0.5227  0.40397     S
O      0.77412  0.80004  0.49827     O
O      0.77548  0.82736  0.26174     O
H        0.777   0.3606   0.1905     H
O      0.78027  0.55034   0.7203     O
O       0.7834   0.8434  0.66143     O
H       0.7838   0.3612   0.6894     H
H       0.7841   0.3768    0.946     H
H       0.7884   0.3594   0.4371     H
O      0.79035   0.6069    0.877     O
O      0.79278  0.55336  0.46948     O
O      0.79391  0.86042  0.92407     O
O      0.79623  0.84686  0.41491     O
O      0.79958  0.60476  0.12804     O
O      0.80518  0.60476  0.62804     O
O      0.80545   0.8569  0.17346     O
K      0.80634  0.99488  0.37073     K
C      0.81124  0.36168   0.1558     C
K      0.81146  0.00512  0.12927     K
C      0.81189  0.43758  0.87736     C
C      0.81204  0.37228   0.9093     C
C      0.81222  0.35844   0.6529     C
O      0.81655   0.6069    0.377     O
C       0.8178   0.4296  0.62401     C
C      0.81966  0.35832   0.4014     C
C      0.81991  0.43442  0.12689     C
C      0.82941  0.43182  0.37296     C
H       0.8476   0.2352   0.6467     H
C      0.84948  0.28236   0.6269     C
H       0.8501   0.2414   0.1507     H
H       0.8525    0.234   0.3947     H
C      0.85432  0.29984   0.8862     C
C      0.85488  0.43276  0.82276     C
C      0.85495   0.2905   0.1317     C
H       0.8554    0.256   0.9077     H
H       0.8555   0.4778   0.8017     H
C      0.85723  0.28286   0.3755     C
C      0.86137  0.42774  0.56986     C
H        0.867   0.4776   0.5513     H
K      0.87113  0.75988   0.8204     K
C      0.87239  0.43878  0.07616     C
K      0.87249  0.75646  0.06986     K
C      0.87606  0.43132   0.3201     C
H       0.8794   0.4896    0.058     H
H       0.8826   0.4816   0.3016     H
K      0.88397  0.75646  0.56986     K
K      0.88875  0.75988   0.3204     K
C      0.88954  0.27588  0.57157     C
C      0.89499  0.29218  0.83127     C
C      0.89665   0.3599  0.80048     C
C      0.89683  0.34966  0.54387     C
C      0.90189  0.27898  0.32168     C
C      0.90526  0.29072   0.0803     C
C      0.91306  0.35492  0.29492     C
C      0.91485   0.3653   0.0525     C
C      0.92131  0.18662   0.5421     C
H       0.9256   0.3472   0.5075     H
H       0.9262   0.3564   0.7643     H
O      0.93106  0.16652  0.48692     O
O      0.93349  0.13958  0.57593     O
C      0.93452  0.20644   0.8047     C
C      0.93616  0.19132  0.29296     C
O         0.94   0.1566  0.83857     O
H       0.9456   0.3548   0.2597     H
C      0.94715   0.2081    0.053     C
O      0.94812  0.17264  0.23826     O
O      0.94855   0.1431  0.32654     O
O      0.94937  0.15314  0.08509     O
H       0.9497   0.3666   0.0181     H
O      0.95627  0.19294  0.75227     O
O      0.97408  0.19996  0.00173     O
K      0.98598      0.0     0.75     K
