data_I
_chemical_name_common  '/Users/gianmarcoterrones/Research/MOFs/MOF_structures/water_stability_work_extra_structs/cleaned_from_CCDC/HISGEX'
_cell_length_a  4.81830
_cell_length_b 12.15260
_cell_length_c 12.30550
_cell_angle_alpha 109.22200
_cell_angle_beta  90.00000
_cell_angle_gamma 90.00000
_space_group_name_H-M_alt      'P 1'


loop_
_space_group_symop_operation_xyz
  'x, y, z' 

loop_
_atom_site_label
_atom_site_fract_x
_atom_site_fract_y
_atom_site_fract_z
_atom_site_type_symbol
S       0.1074      0.0     0.25     S
C       0.1162   0.1141   0.8281     C
C       0.1162   0.8859   0.6719     C
H       0.1248   0.1961   0.7089     H
H       0.1248   0.8039   0.7911     H
H         0.16   0.0609   0.9658     H
H         0.16   0.9391   0.5342     H
Rb     0.18937      0.5     0.25    Rb
O       0.1919   0.4346   0.4519     O
O       0.1919   0.5654   0.0481     O
C       0.1939   0.1978     0.78     C
C       0.1939   0.8022     0.72     C
C       0.2142   0.1175   0.9345     C
C       0.2142   0.8825   0.5655     C
O       0.2551   0.0394   0.1687     O
O       0.2551   0.9606   0.3313     O
O       0.2786   0.3988   0.6149     O
O       0.2786   0.6012   0.8851     O
C       0.3184   0.3804   0.5115     C
C       0.3184   0.6196   0.9885     C
C       0.3766    0.284   0.8403     C
C       0.3766    0.716   0.6597     C
C       0.3919   0.2048   0.9936     C
C       0.3919   0.7952   0.5064     C
H       0.4324   0.3402   0.8086     H
H       0.4324   0.6598   0.6914     H
H       0.4555   0.2079   0.0659     H
H       0.4555   0.7921   0.4341     H
C       0.4779   0.2885   0.9466     C
C       0.4779   0.7115   0.5534     C
C       0.5221   0.2885   0.4466     C
C       0.5221   0.7115   0.0534     C
H       0.5445   0.2079   0.5659     H
H       0.5445   0.7921   0.9341     H
H       0.5676   0.3402   0.3086     H
H       0.5676   0.6598   0.1914     H
C       0.6081   0.2048   0.4936     C
C       0.6081   0.7952   0.0064     C
C       0.6234    0.284   0.3403     C
C       0.6234    0.716   0.1597     C
C       0.6816   0.3804   0.0115     C
C       0.6816   0.6196   0.4885     C
O       0.7214   0.3988   0.1149     O
O       0.7214   0.6012   0.3851     O
O       0.7449   0.0394   0.6687     O
O       0.7449   0.9606   0.8313     O
C       0.7858   0.1175   0.4345     C
C       0.7858   0.8825   0.0655     C
C       0.8061   0.1978     0.28     C
C       0.8061   0.8022     0.22     C
O       0.8081   0.4346   0.9519     O
O       0.8081   0.5654   0.5481     O
Rb     0.81063      0.5     0.75    Rb
H         0.84   0.0609   0.4658     H
H         0.84   0.9391   0.0342     H
H       0.8752   0.1961   0.2089     H
H       0.8752   0.8039   0.2911     H
C       0.8838   0.1141   0.3281     C
C       0.8838   0.8859   0.1719     C
S       0.8926      0.0     0.75     S
