data_I
_chemical_name_common  '/Users/gianmarcoterrones/Downloads/HKUST-1'
_cell_length_a 18.59484
_cell_length_b 18.59490
_cell_length_c 18.59496
_cell_angle_alpha 59.99992
_cell_angle_beta  60.00001
_cell_angle_gamma 60.00034
_space_group_name_H-M_alt      'P 1'


loop_
_space_group_symop_operation_xyz
  'x, y, z' 

loop_
_atom_site_label
_atom_site_fract_x
_atom_site_fract_y
_atom_site_fract_z
_atom_site_type_symbol
Cu       2e-06    2e-06 0.434802    Cu
Cu       3e-06 0.434803 0.999999    Cu
Cu       5e-06 0.434805 0.565195    Cu
O     0.020501 0.613726 0.874416     O
O     0.020502 0.613727 0.491354     O
O     0.020502 0.874414 0.613726     O
O     0.020507 0.491354 0.874414     O
O     0.020508 0.491356 0.613725     O
O     0.020509 0.874415 0.491353     O
C     0.023831 0.837747 0.569208     C
C     0.023832  0.56921 0.837747     C
C     0.023832 0.569212 0.569209     C
H     0.028085 0.734615 0.734615     H
H     0.028085 0.734617 0.502682     H
H     0.028086 0.502685 0.734615     H
C     0.029631 0.743404 0.613481     C
C     0.029632 0.613482 0.613481     C
C     0.029632 0.613482 0.743403     C
C     0.029702 0.700151 0.700152     C
C     0.029702 0.700153 0.569994     C
C     0.029704 0.569994 0.700152     C
O     0.125583 0.508646 0.386273     O
O     0.125585 0.508645 0.979496     O
O     0.125585 0.979492 0.508647     O
O     0.125586 0.979499 0.386273     O
O     0.125588 0.386274 0.979496     O
O     0.125588 0.386275 0.508644     O
C     0.162253 0.976169 0.430791     C
C     0.162254 0.430791 0.430788     C
C     0.162254 0.430791 0.976169     C
C     0.256595 0.386518  0.97037     C
C     0.256595 0.386519 0.386518     C
C     0.256595  0.97037 0.386518     C
H     0.265383 0.971915 0.497318     H
H     0.265384 0.497318 0.265383     H
H     0.265384 0.497318 0.971915     H
H     0.265385 0.265385 0.497315     H
H     0.265385 0.265385 0.971915     H
H     0.265385 0.971915 0.265385     H
C     0.299847 0.430006 0.970299     C
C     0.299847 0.970299 0.430006     C
C     0.299848 0.299847 0.970299     C
C     0.299848 0.430006 0.299847     C
C     0.299848 0.970299 0.299847     C
C     0.299849 0.299848 0.430006     C
O     0.386273 0.125586 0.979496     O
O     0.386273 0.979496 0.125586     O
O     0.386274 0.979496 0.508645     O
O     0.386275 0.125586 0.508646     O
O     0.386276 0.508647 0.125585     O
O     0.386276 0.508647 0.979492     O
C     0.386517 0.386519 0.256595     C
C     0.386517  0.97037 0.386518     C
C     0.386518 0.256595 0.970369     C
C     0.386518 0.256596 0.386518     C
C     0.386518 0.386518  0.97037     C
C     0.386518 0.970369 0.256595     C
C     0.430004 0.970299 0.299847     C
C     0.430005 0.299847 0.970299     C
C     0.430005 0.299848 0.299849     C
C     0.430788 0.430791 0.976169     C
C     0.430788 0.430792 0.162253     C
C     0.430788 0.976169 0.430791     C
C      0.43079 0.162253  0.43079     C
C      0.43079 0.162253 0.976168     C
C      0.43079 0.976168 0.162253     C
Cu    0.434804      1.0      0.0    Cu
Cu    0.434805    1e-06 0.565197    Cu
Cu    0.434806 0.565198 0.999998    Cu
O     0.491355 0.020504 0.874414     O
O     0.491355 0.874414 0.020504     O
O     0.491356 0.874416 0.613726     O
O     0.491358 0.020504 0.613726     O
O     0.491359 0.613726 0.874414     O
O     0.491359 0.613727 0.020501     O
H     0.497314 0.265385 0.265385     H
H     0.497314 0.265385 0.971915     H
H     0.497315 0.971915 0.265385     H
H     0.502685 0.028085 0.734615     H
H     0.502686 0.734614 0.028085     H
H     0.502686 0.734615 0.734615     H
O     0.508641 0.386273 0.979499     O
O     0.508641 0.386274 0.125586     O
O     0.508642 0.979496 0.386274     O
O     0.508644 0.125584 0.386274     O
O     0.508645 0.125586 0.979496     O
O     0.508645 0.979496 0.125586     O
Cu    0.565194 0.434802    2e-06    Cu
Cu    0.565195 0.999999 0.434803    Cu
Cu    0.565196      0.0      1.0    Cu
C      0.56921 0.023832 0.837747     C
C      0.56921 0.837747 0.023832     C
C      0.56921 0.837747  0.56921     C
C     0.569212 0.023831 0.569209     C
C     0.569212 0.569208 0.837747     C
C     0.569212 0.569209 0.023831     C
C     0.569995 0.700152 0.700151     C
C     0.569995 0.700153 0.029701     C
C     0.569996 0.029701 0.700153     C
C     0.613482 0.029631 0.743403     C
C     0.613482 0.613482  0.02963     C
C     0.613482 0.743403 0.029631     C
C     0.613482 0.743403 0.613482     C
C     0.613483  0.02963 0.613482     C
C     0.613483 0.613481 0.743404     C
O     0.613724 0.491353 0.020508     O
O     0.613724 0.491353 0.874415     O
O     0.613725 0.874414 0.491354     O
O     0.613726 0.020504 0.491355     O
O     0.613727 0.020504 0.874414     O
O     0.613727 0.874414 0.020504     O
C     0.700151 0.700152 0.569994     C
C     0.700152 0.029701 0.700153     C
C     0.700152 0.569994 0.700153     C
C     0.700152 0.700153 0.029701     C
C     0.700153 0.029701 0.569994     C
C     0.700153 0.569994 0.029701     C
H     0.734615 0.028085 0.734614     H
H     0.734615 0.734615 0.028085     H
H     0.734615 0.734615 0.502685     H
H     0.734616 0.502682 0.028085     H
H     0.734616 0.502682 0.734617     H
H     0.734617 0.028085 0.502682     H
C     0.743404  0.02963 0.613482     C
C     0.743404 0.613481 0.613482     C
C     0.743404 0.613482  0.02963     C
C     0.837746 0.569209 0.023831     C
C     0.837746 0.569209 0.569212     C
C     0.837747 0.023831 0.569209     C
O     0.874412 0.613725 0.491356     O
O     0.874412 0.613726 0.020504     O
O     0.874414 0.020501 0.613727     O
O     0.874415 0.020508 0.491353     O
O     0.874415 0.491355 0.020504     O
O     0.874417 0.491354 0.613727     O
C     0.970296 0.430006 0.299848     C
C     0.970298 0.299847 0.430006     C
C     0.970298 0.299849 0.299848     C
C     0.970368 0.386518 0.256596     C
C     0.970368 0.386518 0.386519     C
C     0.970369 0.256595 0.386519     C
H     0.971914 0.497315 0.265385     H
H     0.971915 0.265383 0.497318     H
H     0.971915 0.265385 0.265385     H
C     0.976168 0.430788 0.430791     C
C     0.976168  0.43079 0.162253     C
C     0.976169 0.162253 0.430792     C
O     0.979491 0.125585 0.508647     O
O     0.979492 0.508644 0.386275     O
O     0.979492 0.508646 0.125586     O
O     0.979498 0.125586 0.386274     O
O     0.979498 0.386273 0.508646     O
O     0.979499 0.386274 0.125584     O
Cu    0.999995 0.565195 0.434805    Cu
Cu    0.999997 0.565197    1e-06    Cu
Cu    0.999998 0.999998 0.565198    Cu
