data_I
_chemical_name_common  '/Users/gianmarcoterrones/Research/MOFs/MOF_structures/water_stability_work_extra_structs/cleaned_from_CCDC/HOWRUI'
_cell_length_a 11.07490
_cell_length_b 12.20944
_cell_length_c 19.50740
_cell_angle_alpha 92.45962
_cell_angle_beta  90.00000
_cell_angle_gamma 116.97094
_space_group_name_H-M_alt      'P 1'


loop_
_space_group_symop_operation_xyz
  'x, y, z' 

loop_
_atom_site_label
_atom_site_fract_x
_atom_site_fract_y
_atom_site_fract_z
_atom_site_type_symbol
O       0.0081   0.2782  0.75717     O
C       0.0231    0.351   0.6457     C
C       0.0267   0.4606   0.5445     C
H       0.0305    0.529   0.9928     H
H       0.0336   0.1012   0.2695     H
N       0.0389   0.6412   0.4925     N
C       0.0417   0.8114   0.7633     C
H       0.0417   0.8862   0.4452     H
C       0.0498   0.7022   0.9944     C
O      0.05532  0.76184  0.22733     O
Cu     0.05674  0.24372   0.8503    Cu
O       0.0608   0.3956   0.8906     O
C       0.0627    0.866   0.2188     C
C       0.0651   0.6008   0.9688     C
H       0.0655   0.7504   0.7425     H
H       0.0663   0.9646   0.3341     H
H       0.0841   0.2388     0.48     H
H       0.0858    0.876   0.9744     H
O      0.08609  0.10958  0.80935     O
C       0.0875   0.3426   0.7122     C
C       0.0884   0.4512   0.6053     C
C       0.0959   0.7436    0.446     C
C       0.0966    0.567   0.5001     C
H       0.0975   0.7122   0.3991     H
C       0.0975    0.809   0.9576     C
H       0.1017   0.0354   0.6659     H
C       0.1207   0.9726    0.685     C
C       0.1238    0.132   0.2896     C
C       0.1313   0.6064   0.9079     C
H       0.1347   0.1914   0.3268     H
C       0.1481   0.0274    0.315     C
C       0.1495   0.5004   0.8783     C
H       0.1555   0.1138   0.5548     H
O        0.157   0.2368  0.93213     O
H       0.1615     0.17   0.4462     H
C       0.1623   0.8152   0.8963     C
H       0.1625   0.9426   0.6502     H
N      0.16322  0.91944   0.7928     N
H        0.165    0.239   0.5859     H
C       0.1685   0.2328   0.4803     C
H       0.1738   0.5128   0.6185     H
C       0.1821   0.7162    0.872     C
C       0.1889   0.9764   0.2509     C
C       0.1967    0.134   0.7812     C
C       0.1976    0.202   0.5501     C
O      0.20006  0.58372   0.4696     O
H       0.2009   0.2264    0.202     H
H       0.2098    0.124   0.0256     H
C       0.2125   0.0236   0.7491     C
O      0.21455   0.4017  0.71815     O
C       0.2151   0.9298   0.8565     C
H       0.2199   0.0574   0.3498     H
H       0.2291    0.722   0.8317     H
C       0.2303   0.1886   0.2367     C
C       0.2374   0.8406   0.4684     C
N      0.24378  0.08056   0.2072     N
O      0.25241  0.52482  0.84284     O
H       0.2587   0.9516   0.2626     H
H       0.2669   0.4232   0.4787     H
O      0.26911  0.85262  0.53136     O
O      0.27287  0.97214   0.1192     O
C       0.2829   0.3058   0.9391     C
C       0.2853   0.0702   0.1435     C
C       0.2867   0.3558   0.4654     C
C       0.2885    0.191   0.0424     C
O      0.29348  0.23816  0.77267     O
Cu     0.29903  0.39584  0.80516    Cu
O      0.30073  0.02786   0.8808     O
H       0.3071   0.0484   0.7374     H
H       0.3082   0.3598   0.4171     H
O      0.30865   0.9029  0.42163     O
H       0.3114     0.74   0.7104     H
H       0.3151   0.2496   0.2575     H
H       0.3172    0.723   0.6311     H
C       0.3471   0.1848   0.1037     C
C       0.3476   0.2978   0.0056     C
C       0.3523   0.2564    0.554     C
O      0.35708  0.37796    0.897     O
C       0.3722   0.7626    0.672     C
H       0.3853   0.2878   0.6009     H
C       0.3968   0.1594   0.5316     C
N       0.3977   0.3588   0.5075     N
H       0.4034    0.627   0.6916     H
O      0.40575   0.0971  0.57837     O
O      0.41649  0.14738  0.46864     O
O      0.42326  0.88972  0.66618     O
Cu     0.45415  0.96174  0.56235    Cu
C       0.4561   0.7124   0.6804     C
H       0.4634   0.9364   0.7638     H
C       0.4643   0.3992   0.0312     C
C       0.4659   0.2838    0.128     C
H       0.4895   0.6284   0.5168     H
Cu     0.49241  0.03826  0.43765    Cu
H       0.5008   0.7136   0.6375     H
H       0.5015    0.471   0.0072     H
H       0.5071    0.278   0.1683     H
O      0.50756  0.52252   0.7799     O
O      0.50872  0.84064  0.52159     O
C       0.5131   0.9508   0.7214     C
H       0.5186   0.9612   0.2849     H
C       0.5249   0.3936   0.0921     C
H        0.527   0.0636   0.2362     H
C       0.5296    0.433   0.4999     C
O      0.53354  0.11028  0.33382     O
C       0.5363   0.6338   0.4765     C
C       0.5474   0.8412   0.4613     C
O       0.5535   0.7728   0.7315     O
H       0.5574   0.0388   0.7151     H
O      0.56208  0.91936   0.4181     O
C       0.5623   0.0492   0.2786     C
C       0.5661   0.5394   0.4555     C
H       0.5714     0.26   0.2896     H
C       0.5765   0.7376   0.4372     C
H       0.5942    0.277   0.3689     H
C       0.6096   0.2374    0.328     C
O      0.61634  0.41628   0.5304     O
C       0.6199    0.904   0.7262     C
C       0.6372   0.5488   0.3947     C
C       0.6421   0.7438   0.3748     C
O      0.64272  0.08064   0.5819     O
C       0.6491   0.4996   0.1217     C
H        0.661   0.4872   0.3815     H
H       0.6649   0.8106   0.3475     H
O       0.6652   0.6044   0.1094     O
O      0.66808  0.15936  0.47841     O
C       0.6721    0.649   0.3543     C
H       0.6754   0.9254   0.6857     H
H       0.6787   0.9428   0.7661     H
O       0.7056   0.8568    0.125     O
C       0.7062   0.1588   0.5387     C
C       0.7159    0.096   0.2738     C
O      0.72759  0.47518  0.15716     O
O       0.7299   0.7218  0.24283     O
H       0.7359   0.0572   0.2339     H
C       0.7437   0.2876   0.3196     C
C       0.7449   0.6574   0.2878     C
H         0.75   0.0746   0.3143     H
H       0.7764    0.373   0.3084     H
O       0.7807   0.2272   0.2685     O
H       0.7872   0.2864   0.3625     H
O      0.81285   0.5983  0.28185     O
Cu     0.81302  0.75628   0.1497    Cu
C       0.8389   0.2624   0.5628     C
H       0.8437   0.5768   0.5213     H
H       0.8453   0.7612     0.52     H
O       0.8488   0.1432    0.875     O
H       0.8543   0.1894   0.6525     H
H       0.8611   0.3716   0.4832     H
C       0.8983   0.2562   0.6252     C
C       0.9025   0.3662   0.5235     C
Cu     0.90319  0.60416  0.19484    Cu
O       0.9202   0.7632  0.06787     O
H        0.926    0.761   0.4141     H
C       0.9309   0.6442   0.5346     C
H       0.9324   0.8988   0.7305     H
C       0.9357   0.7672   0.5197     C
H       0.9433   0.8086   0.6732     H
H       0.9484   0.6402   0.5829     H
H       0.9745   0.7736    0.798     H
O      0.97651  0.89042  0.19065     O
C       0.9771   0.6942   0.0609     C
O      0.97912  0.62204    0.103     O
O      0.98504  0.47748   0.2201     O
H       0.9915     0.83   0.5538     H
C       0.9918    0.868   0.7104     C
C       0.9956    0.798   0.4499     C
