data_I
_chemical_name_common  '/Users/gianmarcoterrones/Research/MOFs/MOF_structures/water_stability_work_extra_structs/cleaned_from_CCDC/HOWRIW'
_cell_length_a 10.42720
_cell_length_b 13.68760
_cell_length_c 15.00050
_cell_angle_alpha 100.25600
_cell_angle_beta  90.00000
_cell_angle_gamma 90.00000
_space_group_name_H-M_alt      'P 1'


loop_
_space_group_symop_operation_xyz
  'x, y, z' 

loop_
_atom_site_label
_atom_site_fract_x
_atom_site_fract_y
_atom_site_fract_z
_atom_site_type_symbol
C       0.0112   0.1845   0.4417     C
H       0.0129   0.4228   0.4962     H
C       0.0262   0.8316   0.2097     C
Sr      0.0275  0.41162  0.08423    Sr
O        0.028   0.0721    0.943     O
C        0.028   0.7973   0.2912     C
O       0.0293   0.5017   0.7497     O
C       0.0306    0.722   0.5195     C
H       0.0331   0.5166   0.2858     H
H       0.0371   0.8707   0.5512     H
C       0.0418   0.3598   0.4707     C
H       0.0433   0.6333   0.0631     H
Sr     0.04723  0.10322  0.13163    Sr
C       0.0621   0.1599   0.9408     C
H       0.0719   0.2822   0.6334     H
C       0.0743   0.2567   0.6868     C
C       0.0775   0.1888   0.8489     C
O       0.0807   0.2236   0.0104     O
H       0.0908   0.4612    0.735     H
H       0.0948   0.8685    0.194     H
H       0.0975   0.8107   0.3303     H
O       0.0977   0.6047   0.0919     O
O       0.0996   0.2843   0.2007     O
H          0.1   0.6338   0.1469     H
H        0.107   0.7141    0.487     H
C        0.123   0.1717   0.3927     C
O       0.1277   0.9025   0.7478     O
H       0.1493   0.8474   0.7157     H
O       0.1519   0.4483   0.9396     O
C       0.1568   0.0688   0.3475     C
C       0.1568   0.3496   0.4236     C
O       0.1615   0.0049   0.3987     O
H       0.1627   0.8943   0.9857     H
O        0.169   0.5118   0.3923     O
O       0.1787    0.049   0.2634     O
C       0.1801    0.274   0.7418     C
H       0.1821   0.0447   0.5297     H
O       0.1828   0.6622   0.8742     O
C       0.1833   0.2408   0.8251     C
O       0.1864   0.8612    0.935     O
H       0.1938   0.0177   0.6186     H
C       0.1983   0.2545   0.3821     C
H       0.2043   0.9235   0.7559     H
C       0.2094    0.325   0.2058     C
H       0.2097   0.7198   0.8971     H
O       0.2267   0.0446   0.5771     O
H        0.229   0.6137   0.8831     H
C       0.2313   0.4431    0.417     C
O       0.2333   0.4035   0.1749     O
H       0.2422   0.9006     0.92     H
H       0.2578   0.9006     0.42     H
O       0.2667   0.4035   0.6749     O
C       0.2687   0.4431    0.917     C
H        0.271   0.6137   0.3831     H
O       0.2733   0.0446   0.0771     O
H       0.2903   0.7198   0.3971     H
C       0.2906    0.325   0.7058     C
H       0.2957   0.9235   0.2559     H
C       0.3017   0.2545   0.8821     C
H       0.3062   0.0177   0.1186     H
O       0.3136   0.8612    0.435     O
C       0.3167   0.2408   0.3251     C
O       0.3172   0.6622   0.3742     O
H       0.3179   0.0447   0.0297     H
C       0.3199    0.274   0.2418     C
O       0.3213    0.049   0.7634     O
O        0.331   0.5118   0.8923     O
H       0.3373   0.8943   0.4857     H
O       0.3385   0.0049   0.8987     O
C       0.3432   0.0688   0.8475     C
C       0.3432   0.3496   0.9236     C
O       0.3481   0.4483   0.4396     O
H       0.3507   0.8474   0.2157     H
O       0.3723   0.9025   0.2478     O
C        0.377   0.1717   0.8927     C
H        0.393   0.7141    0.987     H
H          0.4   0.6338   0.6469     H
O       0.4004   0.2843   0.7007     O
O       0.4023   0.6047   0.5919     O
H       0.4025   0.8107   0.8303     H
H       0.4052   0.8685    0.694     H
H       0.4092   0.4612    0.235     H
O       0.4193   0.2236   0.5104     O
C       0.4225   0.1888   0.3489     C
C       0.4257   0.2567   0.1868     C
H       0.4281   0.2822   0.1334     H
C       0.4379   0.1599   0.4408     C
Sr     0.45277  0.10322  0.63163    Sr
H       0.4567   0.6333   0.5631     H
C       0.4582   0.3598   0.9707     C
H       0.4629   0.8707   0.0512     H
H       0.4669   0.5166   0.7858     H
C       0.4694    0.722   0.0195     C
O       0.4707   0.5017   0.2497     O
O        0.472   0.0721    0.443     O
C        0.472   0.7973   0.7912     C
Sr      0.4725  0.41162  0.58423    Sr
C       0.4738   0.8316   0.7097     C
H       0.4871   0.4228   0.9962     H
C       0.4888   0.1845   0.9417     C
C       0.5112   0.8155   0.0583     C
H       0.5129   0.5772   0.0038     H
C       0.5262   0.1684   0.2903     C
Sr      0.5275  0.58838  0.41577    Sr
C        0.528   0.2027   0.2088     C
O        0.528   0.9279    0.557     O
O       0.5293   0.4983   0.7503     O
C       0.5306    0.278   0.9805     C
H       0.5331   0.4834   0.2142     H
H       0.5371   0.1293   0.9488     H
C       0.5418   0.6402   0.0293     C
H       0.5433   0.3667   0.4369     H
Sr     0.54723  0.89678  0.36837    Sr
C       0.5621   0.8401   0.5592     C
H       0.5719   0.7178   0.8666     H
C       0.5743   0.7433   0.8132     C
C       0.5775   0.8112   0.6511     C
O       0.5807   0.7764   0.4896     O
H       0.5908   0.5388    0.765     H
H       0.5948   0.1315    0.306     H
H       0.5975   0.1893   0.1697     H
O       0.5977   0.3953   0.4081     O
O       0.5996   0.7157   0.2993     O
H          0.6   0.3662   0.3531     H
H        0.607   0.2859    0.013     H
C        0.623   0.8283   0.1073     C
O       0.6277   0.0975   0.7522     O
H       0.6493   0.1526   0.7843     H
O       0.6519   0.5517   0.5604     O
C       0.6568   0.6504   0.0764     C
C       0.6568   0.9312   0.1525     C
O       0.6615   0.9951   0.1013     O
H       0.6627   0.1057   0.5143     H
O        0.669   0.4882   0.1077     O
O       0.6787    0.951   0.2366     O
C       0.6801    0.726   0.7582     C
H       0.6821   0.9553   0.9703     H
O       0.6828   0.3378   0.6258     O
C       0.6833   0.7592   0.6749     C
O       0.6864   0.1388    0.565     O
H       0.6938   0.9823   0.8814     H
C       0.6983   0.7455   0.1179     C
H       0.7043   0.0765   0.7441     H
C       0.7094    0.675   0.2942     C
H       0.7097   0.2802   0.6029     H
O       0.7267   0.9554   0.9229     O
H        0.729   0.3863   0.6169     H
C       0.7313   0.5569    0.083     C
O       0.7333   0.5965   0.3251     O
H       0.7422   0.0994     0.58     H
H       0.7578   0.0994     0.08     H
O       0.7667   0.5965   0.8251     O
C       0.7687   0.5569    0.583     C
H        0.771   0.3863   0.1169     H
O       0.7733   0.9554   0.4229     O
H       0.7903   0.2802   0.1029     H
C       0.7906    0.675   0.7942     C
H       0.7957   0.0765   0.2441     H
C       0.8017   0.7455   0.6179     C
H       0.8062   0.9823   0.3814     H
O       0.8136   0.1388    0.065     O
C       0.8167   0.7592   0.1749     C
O       0.8172   0.3378   0.1258     O
H       0.8179   0.9553   0.4703     H
C       0.8199    0.726   0.2582     C
O       0.8213    0.951   0.7366     O
O        0.831   0.4882   0.6077     O
H       0.8373   0.1057   0.0143     H
O       0.8385   0.9951   0.6013     O
C       0.8432   0.6504   0.5764     C
C       0.8432   0.9312   0.6525     C
O       0.8481   0.5517   0.0604     O
H       0.8507   0.1526   0.2843     H
O       0.8723   0.0975   0.2522     O
C        0.877   0.8283   0.6073     C
H        0.893   0.2859    0.513     H
H          0.9   0.3662   0.8531     H
O       0.9004   0.7157   0.7993     O
O       0.9023   0.3953   0.9081     O
H       0.9025   0.1893   0.6697     H
H       0.9052   0.1315    0.806     H
H       0.9092   0.5388    0.265     H
O       0.9193   0.7764   0.9896     O
C       0.9225   0.8112   0.1511     C
C       0.9257   0.7433   0.3132     C
H       0.9281   0.7178   0.3666     H
C       0.9379   0.8401   0.0592     C
Sr     0.95277  0.89678  0.86837    Sr
H       0.9567   0.3667   0.9369     H
C       0.9582   0.6402   0.5293     C
H       0.9629   0.1293   0.4488     H
H       0.9669   0.4834   0.7142     H
C       0.9694    0.278   0.4805     C
O       0.9707   0.4983   0.2503     O
C        0.972   0.2027   0.7088     C
O        0.972   0.9279    0.057     O
Sr      0.9725  0.58838  0.91577    Sr
C       0.9738   0.1684   0.7903     C
H       0.9871   0.5772   0.5038     H
C       0.9888   0.8155   0.5583     C
