data_I
_chemical_name_common  '/Users/gianmarcoterrones/Research/MOFs/MOF_structures/water_stability_work_extra_structs/cleaned_from_CCDC/HUKZIW02'
_cell_length_a  8.33410
_cell_length_b 10.49977
_cell_length_c 10.49977
_cell_angle_alpha 100.71933
_cell_angle_beta  109.80879
_cell_angle_gamma 109.80879
_space_group_name_H-M_alt      'P 1'


loop_
_space_group_symop_operation_xyz
  'x, y, z' 

loop_
_atom_site_label
_atom_site_fract_x
_atom_site_fract_y
_atom_site_fract_z
_atom_site_type_symbol
C          0.0  0.77901  0.22099     C
C          0.0  0.87349  0.12651     C
H       0.0117   0.8314   0.3138     H
O       0.0304  0.96869  0.85473     O
H       0.0407   0.4585   0.2029     H
C       0.0644  0.93937  0.74533     C
C       0.0902  0.38798  0.18506     C
H        0.107   0.7544   0.2368     H
H       0.1187    0.827   0.3094     H
H       0.1339   0.3624   0.2714     H
O      0.15799  0.96784  0.14988     O
H       0.1767   0.6387   0.4999     H
H       0.1964   0.4296   0.1616     H
O      0.21729  0.00642  0.74166     O
Mg      0.2263  0.12203  0.06043    Mg
H       0.2288   0.6305   0.6587     H
C       0.2756  0.67988  0.59912     C
H       0.3093   0.7826   0.6372     H
O      0.30959  0.30046  0.00638     O
H        0.368   0.2347   0.3273     H
H       0.3712   0.5376    0.885     H
H       0.3819   0.5538   0.0426     H
H       0.3861   0.7992   0.0576     H
H       0.3873   0.8686    0.127     H
O       0.4009  0.25489  0.27323     O
C       0.4037  0.37217  0.95273     C
H       0.4149   0.5573   0.5661     H
H       0.4294   0.9803   0.4101     H
C       0.4346  0.52702  0.97718     C
O      0.44572  0.08108  0.03566     O
C       0.4479  0.66118   0.6016     C
O      0.47737  0.32525  0.87931     O
H       0.4904   0.7056   0.5366     H
H       0.4988   0.8014   0.0598     H
Mg         0.5  0.13858  0.86142    Mg
C          0.5  0.89101  0.10899     C
C          0.5  0.98313  0.01687     C
H       0.5012   0.9402   0.1986     H
H       0.5096   0.4634   0.2944     H
O      0.52263  0.12069  0.67475     O
C       0.5521   0.3984  0.33882     C
O      0.55428  0.96434  0.91892     O
C       0.5654  0.02282  0.47298     C
H       0.5706   0.5899   0.0197     H
H       0.5851   0.4339   0.4427     H
C       0.5963  0.04727  0.62783     C
O       0.5991  0.72677  0.74511     O
H       0.6127    0.873   0.1314     H
H       0.6139   0.9424   0.2008     H
H       0.6181   0.9574   0.4462     H
H       0.6288    0.115   0.4624     H
H        0.632   0.6727   0.7653     H
O      0.69041  0.99362  0.69954     O
H       0.6907   0.3628   0.2174     H
C       0.7244  0.40088  0.32012     C
H       0.7712   0.3413   0.3695     H
Mg      0.7737  0.93957  0.87797    Mg
O      0.78271  0.25834  0.99358     O
H       0.8036   0.8384   0.5704     H
H       0.8233   0.5001   0.3613     H
O      0.84201  0.85012  0.03216     O
H       0.8661   0.7286   0.6376     H
H       0.8813   0.6906    0.173     H
H        0.893   0.7632   0.2456     H
C       0.9098  0.81494  0.61202     C
C       0.9356  0.25467  0.06063     C
H       0.9593   0.7971   0.5415     H
O       0.9696  0.14527  0.03131     O
H       0.9883   0.6862   0.1686     H
