data_I
_chemical_name_common  '/Users/gianmarcoterrones/Research/MOFs/MOF_structures/water_stability_work_extra_structs/cleaned_from_CoRE/HUXHUF_clean'
_cell_length_a 13.90230
_cell_length_b 15.91250
_cell_length_c 20.94860
_cell_angle_alpha 90.00000
_cell_angle_beta  90.00000
_cell_angle_gamma 90.00000
_space_group_name_H-M_alt      'P 1'


loop_
_space_group_symop_operation_xyz
  'x, y, z' 

loop_
_atom_site_label
_atom_site_fract_x
_atom_site_fract_y
_atom_site_fract_z
_atom_site_type_symbol
C       0.0349   0.2852   0.6093     C
C       0.0349   0.7148   0.3907     C
H       0.0473    0.339   0.5271     H
H       0.0473    0.661   0.4729     H
H        0.056   0.2175   0.6903     H
H        0.056   0.7825   0.3097     H
C       0.0598   0.0203   0.4796     C
C       0.0598   0.9797   0.5204     C
C       0.0731   0.2064   0.1088     C
C       0.0731   0.7936   0.8912     C
C       0.0811   0.3123   0.5596     C
C       0.0811   0.6877   0.4404     C
C       0.0872   0.2418   0.6556     C
C       0.0872   0.7582   0.3444     C
H       0.0901   0.1562   0.0851     H
H       0.0901   0.8438   0.9149     H
H       0.0951   0.1988   0.1524     H
H       0.0951   0.8012   0.8476     H
H       0.1015   0.2834    0.038     H
H       0.1015   0.7166    0.962     H
H       0.1053   0.3265   0.1051     H
H       0.1053   0.6735   0.8949     H
C         0.11   0.0534   0.5376     C
C         0.11   0.9466   0.4624     C
C       0.1231   0.2762   0.0817     C
C       0.1231   0.7238   0.9183     C
H       0.1701   0.2307   0.3276     H
H       0.1701   0.7693   0.6724     H
C        0.182    0.302   0.5537     C
C        0.182    0.698   0.4463     C
C       0.1853   0.2353   0.6494     C
C       0.1853   0.7647   0.3506     C
C       0.2052   0.0506   0.5388     C
C       0.2052   0.9494   0.4612     C
C        0.209      0.5      0.0     C
H        0.213    0.322   0.5173     H
H        0.213    0.678   0.4827     H
H       0.2195   0.2093   0.6821     H
H       0.2195   0.7907   0.3179     H
C       0.2318   0.2689   0.0816     C
C       0.2318   0.7311   0.9184     C
N       0.2339   0.2639   0.5997     N
N       0.2339   0.7361   0.4003     N
H       0.2345   0.1702   0.4136     H
H       0.2345   0.8298   0.5864     H
C       0.2369   0.2157    0.321     C
C       0.2369   0.7843    0.679     C
H       0.2387   0.0846   0.5673     H
H       0.2387   0.9154   0.4327     H
H       0.2428   0.1859   0.2808     H
H       0.2428   0.8141   0.7192     H
H       0.2478   0.2646   0.1759     H
H       0.2478   0.7354   0.8241     H
N       0.2534      0.0      0.5     N
H       0.2584   0.2621   0.9873     H
H       0.2584   0.7379   0.0127     H
C       0.2626    0.465   0.9511     C
C       0.2626    0.535   0.0489     C
H       0.2724   0.3384    0.347     H
H       0.2724   0.6616    0.653     H
H       0.2742   0.1037   0.3648     H
H       0.2742   0.8963   0.6352     H
C       0.2752   0.1627   0.3764     C
C       0.2752   0.8373   0.6236     C
C       0.2807   0.2679   0.1373     C
C       0.2807   0.7321   0.8627     C
C       0.2868   0.2638   0.0275     C
C       0.2868   0.7362   0.9725     C
C       0.3015   0.2937    0.322     C
C       0.3015   0.7063    0.678     C
H       0.3133   0.3141   0.2791     H
H       0.3133   0.6859   0.7209     H
C        0.364   0.4655   0.9521     C
C        0.364   0.5345   0.0479     C
O       0.3723  0.12622  0.63989     O
O       0.3723  0.87378  0.36011     O
C       0.3755   0.1886    0.392     C
C       0.3755   0.8114    0.608     C
O       0.3797   0.2789  0.48188     O
O       0.3797   0.7211  0.51812     O
C       0.3811    0.272   0.1366     C
C       0.3811    0.728   0.8634     C
C       0.3849   0.2612   0.0342     C
C       0.3849   0.7388   0.9658     C
C        0.391   0.2051   0.4618     C
C        0.391   0.7949   0.5382     C
N       0.3947   0.2634   0.3531     N
N       0.3947   0.7366   0.6469     N
H       0.3965   0.4408   0.9181     H
H       0.3965   0.5592   0.0819     H
Cd     0.40039  0.25138  0.59068    Cd
Cd     0.40039  0.74862  0.40932    Cd
O       0.4097   0.1454  0.49822     O
O       0.4097   0.8546  0.50178     O
H       0.4125   0.2833   0.1748     H
H       0.4125   0.7167   0.8252     H
O       0.4167   0.3928  0.60862     O
O       0.4167   0.6072  0.39138     O
N        0.417      0.5      0.0     N
H       0.4194   0.1437   0.3786     H
H       0.4194   0.8563   0.6214     H
Cd     0.41958      0.0      0.5    Cd
C       0.4206   0.0609   0.6496     C
C       0.4206   0.9391   0.3504     C
H       0.4211   0.2592   0.9969     H
H       0.4211   0.7408   0.0031     H
H       0.4281   0.4523   0.3763     H
H       0.4281   0.5477   0.6237     H
O       0.4297   0.3263  0.69991     O
O       0.4297   0.6737  0.30009     O
N       0.4316   0.2612   0.0875     N
N       0.4316   0.7388   0.9125     N
O        0.434   0.0027  0.61104     O
O        0.434   0.9973  0.38896     O
C       0.4351   0.3917   0.6679     C
C       0.4351   0.6083   0.3321     C
H       0.4445   0.1765   0.7393     H
H       0.4445   0.8235   0.2607     H
O       0.4504   0.2313   0.8793     O
O       0.4504   0.7687   0.1207     O
C       0.4575   0.4518   0.3364     C
C       0.4575   0.5482   0.6636     C
C       0.4634   0.0537   0.7155     C
C       0.4634   0.9463   0.2845     C
C       0.4656   0.4731   0.6978     C
C       0.4656   0.5269   0.3022     C
C       0.4686   0.1256   0.7542     C
C       0.4686   0.8744   0.2458     C
C       0.4813   0.2982   0.3509     C
C       0.4813   0.7018   0.6491     C
C       0.4916   0.3787   0.3127     C
C       0.4916   0.6213   0.6873     C
H       0.4976   0.0709   0.2854     H
H       0.4976   0.9291   0.7146     H
C       0.4984   0.0229   0.2601     C
C       0.4984   0.9771   0.7399     C
C       0.5016   0.4771   0.7601     C
C       0.5016   0.5229   0.2399     C
H       0.5024   0.4291   0.7854     H
H       0.5024   0.5709   0.2146     H
C       0.5084   0.1213   0.8127     C
C       0.5084   0.8787   0.1873     C
C       0.5187   0.2018   0.8509     C
C       0.5187   0.7982   0.1491     C
C       0.5314   0.3744   0.2542     C
C       0.5314   0.6256   0.7458     C
C       0.5344   0.0269   0.1978     C
C       0.5344   0.9731   0.8022     C
C       0.5366   0.4463   0.2155     C
C       0.5366   0.5537   0.7845     C
C       0.5425   0.0482   0.8364     C
C       0.5425   0.9518   0.1636     C
O       0.5496   0.2687   0.3793     O
O       0.5496   0.7313   0.6207     O
H       0.5555   0.3235   0.2393     H
H       0.5555   0.6765   0.7607     H
C       0.5649   0.1083   0.1679     C
C       0.5649   0.8917   0.8321     C
O        0.566   0.4973  0.11104     O
O        0.566   0.5027  0.88896     O
N       0.5684   0.2388   0.5875     N
N       0.5684   0.7612   0.4125     N
O       0.5703   0.1737  0.19991     O
O       0.5703   0.8263  0.80009     O
H       0.5719   0.0477   0.8763     H
H       0.5719   0.9523   0.1237     H
H       0.5789   0.2408   0.4969     H
H       0.5789   0.7592   0.5031     H
C       0.5794   0.4391   0.1496     C
C       0.5794   0.5609   0.8504     C
Cd     0.58042      0.5      0.0    Cd
H       0.5806   0.3563   0.8786     H
H       0.5806   0.6437   0.1214     H
N        0.583      0.0      0.5     N
O       0.5833   0.1072  0.10862     O
O       0.5833   0.8928  0.89138     O
H       0.5875   0.2167   0.6748     H
H       0.5875   0.7833   0.3252     H
O       0.5903   0.3546  0.99822     O
O       0.5903   0.6454  0.00178     O
Cd     0.59961  0.24862  0.09068    Cd
Cd     0.59961  0.75138  0.90932    Cd
H       0.6035   0.0592   0.4181     H
H       0.6035   0.9408   0.5819     H
N       0.6053   0.2366   0.8531     N
N       0.6053   0.7634   0.1469     N
C        0.609   0.2949   0.9618     C
C        0.609   0.7051   0.0382     C
C       0.6151   0.2388   0.5342     C
C       0.6151   0.7612   0.4658     C
C       0.6189    0.228   0.6366     C
C       0.6189    0.772   0.3634     C
O       0.6203   0.2211  0.98188     O
O       0.6203   0.7789  0.01812     O
C       0.6245   0.3114    0.892     C
C       0.6245   0.6886    0.108     C
O       0.6277  0.37378  0.13989     O
O       0.6277  0.62622  0.86011     O
C        0.636   0.0345   0.4521     C
C        0.636   0.9655   0.5479     C
H       0.6867   0.1859   0.7791     H
H       0.6867   0.8141   0.2209     H
C       0.6985   0.2063    0.822     C
C       0.6985   0.7937    0.178     C
C       0.7132   0.2362   0.5275     C
C       0.7132   0.7638   0.4725     C
C       0.7193   0.2321   0.6373     C
C       0.7193   0.7679   0.3627     C
C       0.7248   0.3373   0.8764     C
C       0.7248   0.6627   0.1236     C
H       0.7258   0.3963   0.8648     H
H       0.7258   0.6037   0.1352     H
H       0.7276   0.1616    0.847     H
H       0.7276   0.8384    0.153     H
C       0.7374    0.035   0.4511     C
C       0.7374    0.965   0.5489     C
H       0.7416   0.2379   0.4873     H
H       0.7416   0.7621   0.5127     H
N       0.7466      0.5      0.0     N
H       0.7522   0.2354   0.6759     H
H       0.7522   0.7646   0.3241     H
H       0.7572   0.3141   0.7808     H
H       0.7572   0.6859   0.2192     H
H       0.7613   0.4154   0.0673     H
H       0.7613   0.5846   0.9327     H
C       0.7631   0.2843    0.821     C
C       0.7631   0.7157    0.179     C
H       0.7655   0.3298   0.9136     H
H       0.7655   0.6702   0.0864     H
N       0.7661   0.2361   0.0997     N
N       0.7661   0.7639   0.9003     N
C       0.7682   0.2311   0.5816     C
C       0.7682   0.7689   0.4184     C
H       0.7805   0.2907   0.1821     H
H       0.7805   0.7093   0.8179     H
C       0.7809   0.0103   0.4851     C
H        0.787    0.178   0.0173     H
H        0.787    0.822   0.9827     H
C       0.7948   0.4494   0.0388     C
C       0.7948   0.5506   0.9612     C
C       0.8147   0.2647   0.1494     C
C       0.8147   0.7353   0.8506     C
C        0.818    0.198   0.0537     C
C        0.818    0.802   0.9463     C
H       0.8299   0.2693   0.8276     H
H       0.8299   0.7307   0.1724     H
C       0.8769   0.2238   0.5817     C
C       0.8769   0.7762   0.4183     C
C         0.89   0.4466   0.0376     C
C         0.89   0.5534   0.9624     C
H       0.8947   0.1735   0.6051     H
H       0.8947   0.8265   0.3949     H
H       0.8985   0.2166    0.538     H
H       0.8985   0.7834    0.462     H
H       0.9049   0.3012   0.6524     H
H       0.9049   0.6988   0.3476     H
H       0.9099   0.3438   0.5851     H
H       0.9099   0.6562   0.4149     H
C       0.9128   0.2582   0.1556     C
C       0.9128   0.7418   0.8444     C
C       0.9189   0.1877   0.0596     C
C       0.9189   0.8123   0.9404     C
C       0.9269   0.2936   0.6088     C
C       0.9269   0.7064   0.3912     C
C       0.9402   0.4797   0.9796     C
C       0.9402   0.5203   0.0204     C
H        0.944   0.2825   0.1903     H
H        0.944   0.7175   0.8097     H
H       0.9527    0.161   0.0271     H
H       0.9527    0.839   0.9729     H
C       0.9651   0.2148   0.1093     C
C       0.9651   0.7852   0.8907     C
