data_I
_chemical_name_common  '/Users/gianmarcoterrones/Research/MOFs/MOF_structures/water_stability_work_extra_structs/cleaned_from_CCDC/IHOTAC'
_cell_length_a  6.45310
_cell_length_b  9.31290
_cell_length_c 47.80400
_cell_angle_alpha 90.00000
_cell_angle_beta  90.00000
_cell_angle_gamma 90.00000
_space_group_name_H-M_alt      'P 1'


loop_
_space_group_symop_operation_xyz
  'x, y, z' 

loop_
_atom_site_label
_atom_site_fract_x
_atom_site_fract_y
_atom_site_fract_z
_atom_site_type_symbol
C          0.0    0.036  0.18864     C
C          0.0   0.0487  0.42212     C
Mg         0.0  0.07695  0.33713    Mg
Mg         0.0  0.07697  0.92322    Mg
O          0.0   0.1302  0.29715     O
O          0.0     0.25  0.35911     O
C          0.0     0.25    0.707     C
O          0.0     0.25  0.90099     O
O          0.0   0.3698  0.29715     O
Mg         0.0  0.42303  0.92322    Mg
Mg         0.0  0.42305  0.33713    Mg
C          0.0   0.4513  0.42212     C
C          0.0    0.464  0.18864     C
C          0.0    0.536  0.81136     C
C          0.0   0.5364  0.44866     C
C          0.0   0.5487  0.57788     C
O          0.0   0.6302  0.70285     O
C          0.0     0.75  0.02463     C
O          0.0     0.75  0.09901     O
C          0.0     0.75    0.293     C
C          0.0     0.75   0.3252     C
C          0.0     0.75   0.3469     C
O          0.0     0.75  0.64089     O
C          0.0     0.75  0.71485     C
C          0.0     0.75  0.91267     C
O          0.0   0.8698  0.70285     O
C          0.0   0.9513  0.57788     C
C          0.0   0.9636  0.44866     C
C          0.0    0.964  0.81136     C
H       0.0239   0.1588   0.0145     H
H       0.0239   0.3412   0.0145     H
H       0.0239   0.6588   0.9855     H
H       0.0239   0.8412   0.9855     H
H       0.0264   0.1525   0.7138     H
H       0.0264   0.3475   0.7138     H
H       0.0264   0.6525   0.2862     H
H       0.0264   0.8475   0.2862     H
C        0.027     0.25   0.0068     C
C        0.027     0.75   0.9932     C
H       0.0345    0.209   0.1301     H
H       0.0345    0.291   0.1301     H
H       0.0345    0.709   0.8699     H
H       0.0345    0.791   0.8699     H
H       0.0363   0.2253   0.6102     H
H       0.0363   0.2747   0.6102     H
H       0.0363   0.7253   0.3898     H
H       0.0363   0.7747   0.3898     H
H        0.046   0.0247   0.4641     H
H        0.046   0.4753   0.4641     H
H        0.046   0.5247   0.5359     H
H        0.046   0.9753   0.5359     H
C        0.052     0.25  0.25422     C
C        0.052     0.75  0.74578     C
H       0.0653    0.212   0.2436     H
H       0.0653    0.288   0.2436     H
H       0.0653    0.712   0.7564     H
H       0.0653    0.788   0.7564     H
H       0.0682   0.0196   0.7966     H
H       0.0682   0.4804   0.7966     H
H       0.0682   0.5196   0.2034     H
H       0.0682   0.9804   0.2034     H
H       0.0749   0.1263   0.1857     H
H       0.0749   0.3737   0.1857     H
H       0.0749   0.6263   0.8143     H
H       0.0749   0.8737   0.8143     H
C        0.078     0.25   0.6228     C
C        0.078     0.75   0.3772     C
H       0.0819   0.1516   0.2481     H
H       0.0819   0.3484   0.2481     H
H       0.0819   0.6516   0.7519     H
H       0.0819   0.8484   0.7519     H
H       0.0944   0.1182   0.5533     H
H       0.0944   0.3818   0.5533     H
H       0.0944   0.6182   0.4467     H
H       0.0944   0.8818   0.4467     H
H       0.1086   0.1854   0.7138     H
H       0.1086   0.3146   0.7138     H
H       0.1086   0.6854   0.2862     H
H       0.1086   0.8146   0.2862     H
C        0.121     0.25   0.1153     C
C        0.121     0.75   0.8847     C
H       0.1311   0.1544    0.618     H
H       0.1311   0.3456    0.618     H
H       0.1311   0.6544    0.382     H
H       0.1311   0.8456    0.382     H
H       0.1351   0.2171   0.7138     H
H       0.1351   0.2829   0.7138     H
H       0.1351   0.7171   0.2862     H
H       0.1351   0.7829   0.2862     H
H       0.1404   0.0714   0.5475     H
H       0.1404   0.4286   0.5475     H
H       0.1404   0.5714   0.4525     H
H       0.1404   0.9286   0.4525     H
H       0.1431   0.0568   0.1942     H
H       0.1431   0.4432   0.1942     H
H       0.1431   0.5568   0.8058     H
H       0.1431   0.9432   0.8058     H
H       0.1591   0.1513   0.1203     H
H       0.1591   0.3487   0.1203     H
H       0.1591   0.6513   0.8797     H
H       0.1591   0.8487   0.8797     H
O       0.1718  0.08459  0.84881     O
O       0.1718  0.41541  0.84881     O
O       0.1718  0.58459  0.15119     O
O       0.1718  0.91541  0.15119     O
O        0.172  0.08491  0.41136     O
O        0.172  0.41509  0.41136     O
O        0.172  0.58491  0.58864     O
O        0.172  0.91509  0.58864     O
H       0.1735   0.2383   0.0114     H
H       0.1735   0.7383   0.9886     H
H       0.1744   0.1896    0.251     H
H       0.1744   0.3104    0.251     H
H       0.1744   0.6896    0.749     H
H       0.1744   0.8104    0.749     H
H       0.1893   0.1791   0.6208     H
H       0.1893   0.3209   0.6208     H
H       0.1893   0.6791   0.3792     H
H       0.1893   0.8209   0.3792     H
H       0.2475   0.1922   0.1133     H
H       0.2475   0.3078   0.1133     H
H       0.2475   0.6922   0.8867     H
H       0.2475   0.8078   0.8867     H
Mg     0.24947     0.25  0.38029    Mg
Mg     0.24947     0.75  0.61971    Mg
Mg     0.25053     0.25  0.88029    Mg
Mg     0.25053     0.75  0.11971    Mg
H       0.2525   0.1922   0.6133     H
H       0.2525   0.3078   0.6133     H
H       0.2525   0.6922   0.3867     H
H       0.2525   0.8078   0.3867     H
H       0.3107   0.1791   0.1208     H
H       0.3107   0.3209   0.1208     H
H       0.3107   0.6791   0.8792     H
H       0.3107   0.8209   0.8792     H
H       0.3256   0.1896    0.751     H
H       0.3256   0.3104    0.751     H
H       0.3256   0.6896    0.249     H
H       0.3256   0.8104    0.249     H
H       0.3265   0.2383   0.5114     H
H       0.3265   0.7383   0.4886     H
O        0.328  0.08491  0.91136     O
O        0.328  0.41509  0.91136     O
O        0.328  0.58491  0.08864     O
O        0.328  0.91509  0.08864     O
O       0.3282  0.08459  0.34881     O
O       0.3282  0.41541  0.34881     O
O       0.3282  0.58459  0.65119     O
O       0.3282  0.91541  0.65119     O
H       0.3409   0.1513   0.6203     H
H       0.3409   0.3487   0.6203     H
H       0.3409   0.6513   0.3797     H
H       0.3409   0.8487   0.3797     H
H       0.3569   0.0568   0.6942     H
H       0.3569   0.4432   0.6942     H
H       0.3569   0.5568   0.3058     H
H       0.3569   0.9432   0.3058     H
H       0.3596   0.0714   0.0475     H
H       0.3596   0.4286   0.0475     H
H       0.3596   0.5714   0.9525     H
H       0.3596   0.9286   0.9525     H
H       0.3649   0.2171   0.2138     H
H       0.3649   0.2829   0.2138     H
H       0.3649   0.7171   0.7862     H
H       0.3649   0.7829   0.7862     H
H       0.3689   0.1544    0.118     H
H       0.3689   0.3456    0.118     H
H       0.3689   0.6544    0.882     H
H       0.3689   0.8456    0.882     H
C        0.379     0.25   0.6153     C
C        0.379     0.75   0.3847     C
H       0.3914   0.1854   0.2138     H
H       0.3914   0.3146   0.2138     H
H       0.3914   0.6854   0.7862     H
H       0.3914   0.8146   0.7862     H
H       0.4056   0.1182   0.0533     H
H       0.4056   0.3818   0.0533     H
H       0.4056   0.6182   0.9467     H
H       0.4056   0.8818   0.9467     H
H       0.4181   0.1516   0.7481     H
H       0.4181   0.3484   0.7481     H
H       0.4181   0.6516   0.2519     H
H       0.4181   0.8484   0.2519     H
C        0.422     0.25   0.1228     C
C        0.422     0.75   0.8772     C
H       0.4251   0.1263   0.6857     H
H       0.4251   0.3737   0.6857     H
H       0.4251   0.6263   0.3143     H
H       0.4251   0.8737   0.3143     H
H       0.4318   0.0196   0.2966     H
H       0.4318   0.4804   0.2966     H
H       0.4318   0.5196   0.7034     H
H       0.4318   0.9804   0.7034     H
H       0.4347    0.212   0.7436     H
H       0.4347    0.288   0.7436     H
H       0.4347    0.712   0.2564     H
H       0.4347    0.788   0.2564     H
H       0.4471   0.1705   0.5149     H
H       0.4471   0.3295   0.5149     H
H       0.4471   0.6705   0.4851     H
H       0.4471   0.8295   0.4851     H
C        0.448     0.25  0.75422     C
C        0.448     0.75  0.24578     C
H        0.454   0.0247   0.9641     H
H        0.454   0.4753   0.9641     H
H        0.454   0.5247   0.0359     H
H        0.454   0.9753   0.0359     H
H       0.4637   0.2253   0.1102     H
H       0.4637   0.2747   0.1102     H
H       0.4637   0.7253   0.8898     H
H       0.4637   0.7747   0.8898     H
H       0.4655    0.209   0.6301     H
H       0.4655    0.291   0.6301     H
H       0.4655    0.709   0.3699     H
H       0.4655    0.791   0.3699     H
C        0.473     0.25   0.5068     C
C        0.473     0.75   0.4932     C
H       0.4736   0.1525   0.2138     H
H       0.4736   0.3475   0.2138     H
H       0.4736   0.6525   0.7862     H
H       0.4736   0.8475   0.7862     H
C          0.5    0.036  0.68864     C
C          0.5   0.0364  0.05134     C
C          0.5   0.0487  0.92212     C
C          0.5   0.0497  0.33822     C
Mg         0.5  0.07695  0.83713    Mg
Mg         0.5  0.07697  0.42322    Mg
O          0.5   0.1299  0.46305     O
O          0.5   0.1302  0.79715     O
O          0.5   0.1319  0.57597     O
O          0.5   0.1325  0.16385     O
C          0.5     0.25   0.1531     C
C          0.5     0.25   0.1748     C
C          0.5     0.25    0.207     C
O          0.5     0.25  0.40099     O
C          0.5     0.25  0.47537     C
C          0.5     0.25  0.58733     C
C          0.5     0.25  0.78515     C
O          0.5     0.25  0.85911     O
O          0.5   0.3675  0.16385     O
O          0.5   0.3681  0.57597     O
O          0.5   0.3698  0.79715     O
O          0.5   0.3701  0.46305     O
Mg         0.5  0.42303  0.42322    Mg
Mg         0.5  0.42305  0.83713    Mg
C          0.5   0.4503  0.33822     C
C          0.5   0.4513  0.92212     C
C          0.5   0.4636  0.05134     C
C          0.5    0.464  0.68864     C
C          0.5    0.536  0.31136     C
C          0.5   0.5364  0.94866     C
C          0.5   0.5487  0.07788     C
C          0.5   0.5497  0.66178     C
Mg         0.5  0.57695  0.16287    Mg
Mg         0.5  0.57697  0.57678    Mg
O          0.5   0.6299  0.53695     O
O          0.5   0.6302  0.20285     O
O          0.5   0.6319  0.42403     O
O          0.5   0.6325  0.83615     O
O          0.5     0.75  0.14089     O
C          0.5     0.75  0.21485     C
C          0.5     0.75  0.41267     C
C          0.5     0.75  0.52463     C
O          0.5     0.75  0.59901     O
C          0.5     0.75    0.793     C
C          0.5     0.75   0.8252     C
C          0.5     0.75   0.8469     C
O          0.5   0.8675  0.83615     O
O          0.5   0.8681  0.42403     O
O          0.5   0.8698  0.20285     O
O          0.5   0.8701  0.53695     O
Mg         0.5  0.92303  0.57678    Mg
Mg         0.5  0.92305  0.16287    Mg
C          0.5   0.9503  0.66178     C
C          0.5   0.9513  0.07788     C
C          0.5   0.9636  0.94866     C
C          0.5    0.964  0.31136     C
H       0.5239   0.1588   0.5145     H
H       0.5239   0.3412   0.5145     H
H       0.5239   0.6588   0.4855     H
H       0.5239   0.8412   0.4855     H
H       0.5264   0.1525   0.2138     H
H       0.5264   0.3475   0.2138     H
H       0.5264   0.6525   0.7862     H
H       0.5264   0.8475   0.7862     H
H       0.5345    0.209   0.6301     H
H       0.5345    0.291   0.6301     H
H       0.5345    0.709   0.3699     H
H       0.5345    0.791   0.3699     H
H       0.5363   0.2253   0.1102     H
H       0.5363   0.2747   0.1102     H
H       0.5363   0.7253   0.8898     H
H       0.5363   0.7747   0.8898     H
H        0.546   0.0247   0.9641     H
H        0.546   0.4753   0.9641     H
H        0.546   0.5247   0.0359     H
H        0.546   0.9753   0.0359     H
H       0.5653    0.212   0.7436     H
H       0.5653    0.288   0.7436     H
H       0.5653    0.712   0.2564     H
H       0.5653    0.788   0.2564     H
H       0.5682   0.0196   0.2966     H
H       0.5682   0.4804   0.2966     H
H       0.5682   0.5196   0.7034     H
H       0.5682   0.9804   0.7034     H
H       0.5749   0.1263   0.6857     H
H       0.5749   0.3737   0.6857     H
H       0.5749   0.6263   0.3143     H
H       0.5749   0.8737   0.3143     H
C        0.578     0.25   0.1228     C
C        0.578     0.75   0.8772     C
H       0.5819   0.1516   0.7481     H
H       0.5819   0.3484   0.7481     H
H       0.5819   0.6516   0.2519     H
H       0.5819   0.8484   0.2519     H
H       0.5944   0.1182   0.0533     H
H       0.5944   0.3818   0.0533     H
H       0.5944   0.6182   0.9467     H
H       0.5944   0.8818   0.9467     H
H       0.6086   0.1854   0.2138     H
H       0.6086   0.3146   0.2138     H
H       0.6086   0.6854   0.7862     H
H       0.6086   0.8146   0.7862     H
C        0.621     0.25   0.6153     C
C        0.621     0.75   0.3847     C
H       0.6311   0.1544    0.118     H
H       0.6311   0.3456    0.118     H
H       0.6311   0.6544    0.882     H
H       0.6311   0.8456    0.882     H
H       0.6351   0.2171   0.2138     H
H       0.6351   0.2829   0.2138     H
H       0.6351   0.7171   0.7862     H
H       0.6351   0.7829   0.7862     H
H       0.6404   0.0714   0.0475     H
H       0.6404   0.4286   0.0475     H
H       0.6404   0.5714   0.9525     H
H       0.6404   0.9286   0.9525     H
H       0.6431   0.0568   0.6942     H
H       0.6431   0.4432   0.6942     H
H       0.6431   0.5568   0.3058     H
H       0.6431   0.9432   0.3058     H
H       0.6591   0.1513   0.6203     H
H       0.6591   0.3487   0.6203     H
H       0.6591   0.6513   0.3797     H
H       0.6591   0.8487   0.3797     H
O       0.6718  0.08459  0.34881     O
O       0.6718  0.41541  0.34881     O
O       0.6718  0.58459  0.65119     O
O       0.6718  0.91541  0.65119     O
O        0.672  0.08491  0.91136     O
O        0.672  0.41509  0.91136     O
O        0.672  0.58491  0.08864     O
O        0.672  0.91509  0.08864     O
H       0.6735   0.2383   0.5114     H
H       0.6735   0.7383   0.4886     H
H       0.6893   0.1791   0.1208     H
H       0.6893   0.3209   0.1208     H
H       0.6893   0.6791   0.8792     H
H       0.6893   0.8209   0.8792     H
H       0.7475   0.1922   0.6133     H
H       0.7475   0.3078   0.6133     H
H       0.7475   0.6922   0.3867     H
H       0.7475   0.8078   0.3867     H
Mg     0.74947     0.25  0.88029    Mg
Mg     0.74947     0.75  0.11971    Mg
Mg     0.75053     0.25  0.38029    Mg
Mg     0.75053     0.75  0.61971    Mg
H       0.7525   0.1922   0.1133     H
H       0.7525   0.3078   0.1133     H
H       0.7525   0.6922   0.8867     H
H       0.7525   0.8078   0.8867     H
H       0.8107   0.1791   0.6208     H
H       0.8107   0.3209   0.6208     H
H       0.8107   0.6791   0.3792     H
H       0.8107   0.8209   0.3792     H
H       0.8265   0.2383   0.0114     H
H       0.8265   0.7383   0.9886     H
O        0.828  0.08491  0.41136     O
O        0.828  0.41509  0.41136     O
O        0.828  0.58491  0.58864     O
O        0.828  0.91509  0.58864     O
O       0.8282  0.08459  0.84881     O
O       0.8282  0.41541  0.84881     O
O       0.8282  0.58459  0.15119     O
O       0.8282  0.91541  0.15119     O
H       0.8409   0.1513   0.1203     H
H       0.8409   0.3487   0.1203     H
H       0.8409   0.6513   0.8797     H
H       0.8409   0.8487   0.8797     H
H       0.8569   0.0568   0.1942     H
H       0.8569   0.4432   0.1942     H
H       0.8569   0.5568   0.8058     H
H       0.8569   0.9432   0.8058     H
H       0.8596   0.0714   0.5475     H
H       0.8596   0.4286   0.5475     H
H       0.8596   0.5714   0.4525     H
H       0.8596   0.9286   0.4525     H
H       0.8649   0.2171   0.7138     H
H       0.8649   0.2829   0.7138     H
H       0.8649   0.7171   0.2862     H
H       0.8649   0.7829   0.2862     H
H       0.8689   0.1544    0.618     H
H       0.8689   0.3456    0.618     H
H       0.8689   0.6544    0.382     H
H       0.8689   0.8456    0.382     H
C        0.879     0.25   0.1153     C
C        0.879     0.75   0.8847     C
H       0.8914   0.1854   0.7138     H
H       0.8914   0.3146   0.7138     H
H       0.8914   0.6854   0.2862     H
H       0.8914   0.8146   0.2862     H
H       0.9056   0.1182   0.5533     H
H       0.9056   0.3818   0.5533     H
H       0.9056   0.6182   0.4467     H
H       0.9056   0.8818   0.4467     H
H       0.9181   0.1516   0.2481     H
H       0.9181   0.3484   0.2481     H
H       0.9181   0.6516   0.7519     H
H       0.9181   0.8484   0.7519     H
C        0.922     0.25   0.6228     C
C        0.922     0.75   0.3772     C
H       0.9251   0.1263   0.1857     H
H       0.9251   0.3737   0.1857     H
H       0.9251   0.6263   0.8143     H
H       0.9251   0.8737   0.8143     H
H       0.9318   0.0196   0.7966     H
H       0.9318   0.4804   0.7966     H
H       0.9318   0.5196   0.2034     H
H       0.9318   0.9804   0.2034     H
H       0.9347    0.212   0.2436     H
H       0.9347    0.288   0.2436     H
H       0.9347    0.712   0.7564     H
H       0.9347    0.788   0.7564     H
H       0.9471   0.1705   0.0149     H
H       0.9471   0.3295   0.0149     H
H       0.9471   0.6705   0.9851     H
H       0.9471   0.8295   0.9851     H
H        0.954   0.0247   0.4641     H
H        0.954   0.4753   0.4641     H
H        0.954   0.5247   0.5359     H
H        0.954   0.9753   0.5359     H
H       0.9637   0.2253   0.6102     H
H       0.9637   0.2747   0.6102     H
H       0.9637   0.7253   0.3898     H
H       0.9637   0.7747   0.3898     H
H       0.9655    0.209   0.1301     H
H       0.9655    0.291   0.1301     H
H       0.9655    0.709   0.8699     H
H       0.9655    0.791   0.8699     H
H       0.9736   0.1525   0.7138     H
H       0.9736   0.3475   0.7138     H
H       0.9736   0.6525   0.2862     H
H       0.9736   0.8475   0.2862     H
C          1.0   0.0364  0.55134     C
C          1.0   0.0497  0.83822     C
O          1.0   0.1299  0.96305     O
O          1.0   0.1319  0.07597     O
O          1.0   0.1325  0.66385     O
C          1.0     0.25  0.08733     C
C          1.0     0.25  0.28515     C
C          1.0     0.25   0.6531     C
C          1.0     0.25   0.6748     C
C          1.0     0.25  0.97537     C
O          1.0   0.3675  0.66385     O
O          1.0   0.3681  0.07597     O
O          1.0   0.3701  0.96305     O
C          1.0   0.4503  0.83822     C
C          1.0   0.4636  0.55134     C
C          1.0   0.5497  0.16178     C
Mg         1.0  0.57695  0.66287    Mg
Mg         1.0  0.57697  0.07678    Mg
O          1.0   0.6299  0.03695     O
O          1.0   0.6319  0.92403     O
O          1.0   0.6325  0.33615     O
O          1.0   0.8675  0.33615     O
O          1.0   0.8681  0.92403     O
O          1.0   0.8701  0.03695     O
Mg         1.0  0.92303  0.07678    Mg
Mg         1.0  0.92305  0.66287    Mg
C          1.0   0.9503  0.16178     C
