data_I
_chemical_name_common  '/Users/gianmarcoterrones/Downloads/MOF-5'
_cell_length_a 25.86584
_cell_length_b 25.86584
_cell_length_c 25.86584
_cell_angle_alpha 90.00000
_cell_angle_beta  90.00000
_cell_angle_gamma 90.00000
_space_group_name_H-M_alt      'P 1'


loop_
_space_group_symop_operation_xyz
  'x, y, z' 

loop_
_atom_site_label
_atom_site_fract_x
_atom_site_fract_y
_atom_site_fract_z
_atom_site_type_symbol
C     0.026821 0.216833 0.216833     C
C     0.026821 0.216833 0.783167     C
C     0.026821 0.283167 0.283167     C
C     0.026821 0.283167 0.716833     C
C     0.026821 0.716833 0.283167     C
C     0.026821 0.716833 0.716833     C
C     0.026821 0.783167 0.216833     C
C     0.026821 0.783167 0.783167     C
H      0.04881  0.19131  0.19131     H
H      0.04881  0.19131  0.80869     H
H      0.04881  0.30869  0.30869     H
H      0.04881  0.30869  0.69131     H
H      0.04881  0.69131  0.30869     H
H      0.04881  0.69131  0.69131     H
H      0.04881  0.80869  0.19131     H
H      0.04881  0.80869  0.80869     H
C     0.053808     0.25     0.25     C
C     0.053808     0.25     0.75     C
C     0.053808     0.75     0.25     C
C     0.053808     0.75     0.75     C
C     0.111383     0.25     0.25     C
C     0.111383     0.25     0.75     C
C     0.111383     0.75     0.25     C
C     0.111383     0.75     0.75     C
O     0.133652 0.218958 0.218958     O
O     0.133652 0.218958 0.781042     O
O     0.133652 0.281042 0.281042     O
O     0.133652 0.281042 0.718958     O
O     0.133652 0.718958 0.281042     O
O     0.133652 0.718958 0.718958     O
O     0.133652 0.781042 0.218958     O
O     0.133652 0.781042 0.781042     O
H      0.19131  0.04881  0.19131     H
H      0.19131  0.04881  0.80869     H
H      0.19131  0.19131  0.04881     H
H      0.19131  0.19131  0.95119     H
H      0.19131  0.30869  0.45119     H
H      0.19131  0.30869  0.54881     H
H      0.19131  0.45119  0.30869     H
H      0.19131  0.45119  0.69131     H
H      0.19131  0.54881  0.30869     H
H      0.19131  0.54881  0.69131     H
H      0.19131  0.69131  0.45119     H
H      0.19131  0.69131  0.54881     H
H      0.19131  0.80869  0.04881     H
H      0.19131  0.80869  0.95119     H
H      0.19131  0.95119  0.19131     H
H      0.19131  0.95119  0.80869     H
Zn    0.206633 0.206633 0.206633    Zn
Zn    0.206633 0.206633 0.793367    Zn
Zn    0.206633 0.293367 0.293367    Zn
Zn    0.206633 0.293367 0.706633    Zn
Zn    0.206633 0.706633 0.293367    Zn
Zn    0.206633 0.706633 0.706633    Zn
Zn    0.206633 0.793367 0.206633    Zn
Zn    0.206633 0.793367 0.793367    Zn
C     0.216833 0.026821 0.216833     C
C     0.216833 0.026821 0.783167     C
C     0.216833 0.216833 0.026821     C
C     0.216833 0.216833 0.973179     C
C     0.216833 0.283167 0.473179     C
C     0.216833 0.283167 0.526821     C
C     0.216833 0.473179 0.283167     C
C     0.216833 0.473179 0.716833     C
C     0.216833 0.526821 0.283167     C
C     0.216833 0.526821 0.716833     C
C     0.216833 0.716833 0.473179     C
C     0.216833 0.716833 0.526821     C
C     0.216833 0.783167 0.026821     C
C     0.216833 0.783167 0.973179     C
C     0.216833 0.973179 0.216833     C
C     0.216833 0.973179 0.783167     C
O     0.218958 0.133652 0.218958     O
O     0.218958 0.133652 0.781042     O
O     0.218958 0.218958 0.133652     O
O     0.218958 0.218958 0.866348     O
O     0.218958 0.281042 0.366348     O
O     0.218958 0.281042 0.633652     O
O     0.218958 0.366348 0.281042     O
O     0.218958 0.366348 0.718958     O
O     0.218958 0.633652 0.281042     O
O     0.218958 0.633652 0.718958     O
O     0.218958 0.718958 0.366348     O
O     0.218958 0.718958 0.633652     O
O     0.218958 0.781042 0.133652     O
O     0.218958 0.781042 0.866348     O
O     0.218958 0.866348 0.218958     O
O     0.218958 0.866348 0.781042     O
C         0.25 0.053808     0.25     C
C         0.25 0.053808     0.75     C
C         0.25 0.111383     0.25     C
C         0.25 0.111383     0.75     C
C         0.25     0.25 0.053808     C
C         0.25     0.25 0.111383     C
O         0.25     0.25     0.25     O
C         0.25     0.25 0.388617     C
C         0.25     0.25 0.446192     C
C         0.25     0.25 0.553808     C
C         0.25     0.25 0.611383     C
O         0.25     0.25     0.75     O
C         0.25     0.25 0.888617     C
C         0.25     0.25 0.946192     C
C         0.25 0.388617     0.25     C
C         0.25 0.388617     0.75     C
C         0.25 0.446192     0.25     C
C         0.25 0.446192     0.75     C
C         0.25 0.553808     0.25     C
C         0.25 0.553808     0.75     C
C         0.25 0.611383     0.25     C
C         0.25 0.611383     0.75     C
C         0.25     0.75 0.053808     C
C         0.25     0.75 0.111383     C
O         0.25     0.75     0.25     O
C         0.25     0.75 0.388617     C
C         0.25     0.75 0.446192     C
C         0.25     0.75 0.553808     C
C         0.25     0.75 0.611383     C
O         0.25     0.75     0.75     O
C         0.25     0.75 0.888617     C
C         0.25     0.75 0.946192     C
C         0.25 0.888617     0.25     C
C         0.25 0.888617     0.75     C
C         0.25 0.946192     0.25     C
C         0.25 0.946192     0.75     C
O     0.281042 0.133652 0.281042     O
O     0.281042 0.133652 0.718958     O
O     0.281042 0.218958 0.366348     O
O     0.281042 0.218958 0.633652     O
O     0.281042 0.281042 0.133652     O
O     0.281042 0.281042 0.866348     O
O     0.281042 0.366348 0.218958     O
O     0.281042 0.366348 0.781042     O
O     0.281042 0.633652 0.218958     O
O     0.281042 0.633652 0.781042     O
O     0.281042 0.718958 0.133652     O
O     0.281042 0.718958 0.866348     O
O     0.281042 0.781042 0.366348     O
O     0.281042 0.781042 0.633652     O
O     0.281042 0.866348 0.281042     O
O     0.281042 0.866348 0.718958     O
C     0.283167 0.026821 0.283167     C
C     0.283167 0.026821 0.716833     C
C     0.283167 0.216833 0.473179     C
C     0.283167 0.216833 0.526821     C
C     0.283167 0.283167 0.026821     C
C     0.283167 0.283167 0.973179     C
C     0.283167 0.473179 0.216833     C
C     0.283167 0.473179 0.783167     C
C     0.283167 0.526821 0.216833     C
C     0.283167 0.526821 0.783167     C
C     0.283167 0.716833 0.026821     C
C     0.283167 0.716833 0.973179     C
C     0.283167 0.783167 0.473179     C
C     0.283167 0.783167 0.526821     C
C     0.283167 0.973179 0.283167     C
C     0.283167 0.973179 0.716833     C
Zn    0.293367 0.206633 0.293367    Zn
Zn    0.293367 0.206633 0.706633    Zn
Zn    0.293367 0.293367 0.206633    Zn
Zn    0.293367 0.293367 0.793367    Zn
Zn    0.293367 0.706633 0.206633    Zn
Zn    0.293367 0.706633 0.793367    Zn
Zn    0.293367 0.793367 0.293367    Zn
Zn    0.293367 0.793367 0.706633    Zn
H      0.30869  0.04881  0.30869     H
H      0.30869  0.04881  0.69131     H
H      0.30869  0.19131  0.45119     H
H      0.30869  0.19131  0.54881     H
H      0.30869  0.30869  0.04881     H
H      0.30869  0.30869  0.95119     H
H      0.30869  0.45119  0.19131     H
H      0.30869  0.45119  0.80869     H
H      0.30869  0.54881  0.19131     H
H      0.30869  0.54881  0.80869     H
H      0.30869  0.69131  0.04881     H
H      0.30869  0.69131  0.95119     H
H      0.30869  0.80869  0.45119     H
H      0.30869  0.80869  0.54881     H
H      0.30869  0.95119  0.30869     H
H      0.30869  0.95119  0.69131     H
O     0.366348 0.218958 0.281042     O
O     0.366348 0.218958 0.718958     O
O     0.366348 0.281042 0.218958     O
O     0.366348 0.281042 0.781042     O
O     0.366348 0.718958 0.218958     O
O     0.366348 0.718958 0.781042     O
O     0.366348 0.781042 0.281042     O
O     0.366348 0.781042 0.718958     O
C     0.388617     0.25     0.25     C
C     0.388617     0.25     0.75     C
C     0.388617     0.75     0.25     C
C     0.388617     0.75     0.75     C
C     0.446192     0.25     0.25     C
C     0.446192     0.25     0.75     C
C     0.446192     0.75     0.25     C
C     0.446192     0.75     0.75     C
H      0.45119  0.19131  0.30869     H
H      0.45119  0.19131  0.69131     H
H      0.45119  0.30869  0.19131     H
H      0.45119  0.30869  0.80869     H
H      0.45119  0.69131  0.19131     H
H      0.45119  0.69131  0.80869     H
H      0.45119  0.80869  0.30869     H
H      0.45119  0.80869  0.69131     H
C     0.473179 0.216833 0.283167     C
C     0.473179 0.216833 0.716833     C
C     0.473179 0.283167 0.216833     C
C     0.473179 0.283167 0.783167     C
C     0.473179 0.716833 0.216833     C
C     0.473179 0.716833 0.783167     C
C     0.473179 0.783167 0.283167     C
C     0.473179 0.783167 0.716833     C
C     0.526821 0.216833 0.283167     C
C     0.526821 0.216833 0.716833     C
C     0.526821 0.283167 0.216833     C
C     0.526821 0.283167 0.783167     C
C     0.526821 0.716833 0.216833     C
C     0.526821 0.716833 0.783167     C
C     0.526821 0.783167 0.283167     C
C     0.526821 0.783167 0.716833     C
H      0.54881  0.19131  0.30869     H
H      0.54881  0.19131  0.69131     H
H      0.54881  0.30869  0.19131     H
H      0.54881  0.30869  0.80869     H
H      0.54881  0.69131  0.19131     H
H      0.54881  0.69131  0.80869     H
H      0.54881  0.80869  0.30869     H
H      0.54881  0.80869  0.69131     H
C     0.553808     0.25     0.25     C
C     0.553808     0.25     0.75     C
C     0.553808     0.75     0.25     C
C     0.553808     0.75     0.75     C
C     0.611383     0.25     0.25     C
C     0.611383     0.25     0.75     C
C     0.611383     0.75     0.25     C
C     0.611383     0.75     0.75     C
O     0.633652 0.218958 0.281042     O
O     0.633652 0.218958 0.718958     O
O     0.633652 0.281042 0.218958     O
O     0.633652 0.281042 0.781042     O
O     0.633652 0.718958 0.218958     O
O     0.633652 0.718958 0.781042     O
O     0.633652 0.781042 0.281042     O
O     0.633652 0.781042 0.718958     O
H      0.69131  0.04881  0.30869     H
H      0.69131  0.04881  0.69131     H
H      0.69131  0.19131  0.45119     H
H      0.69131  0.19131  0.54881     H
H      0.69131  0.30869  0.04881     H
H      0.69131  0.30869  0.95119     H
H      0.69131  0.45119  0.19131     H
H      0.69131  0.45119  0.80869     H
H      0.69131  0.54881  0.19131     H
H      0.69131  0.54881  0.80869     H
H      0.69131  0.69131  0.04881     H
H      0.69131  0.69131  0.95119     H
H      0.69131  0.80869  0.45119     H
H      0.69131  0.80869  0.54881     H
H      0.69131  0.95119  0.30869     H
H      0.69131  0.95119  0.69131     H
Zn    0.706633 0.206633 0.293367    Zn
Zn    0.706633 0.206633 0.706633    Zn
Zn    0.706633 0.293367 0.206633    Zn
Zn    0.706633 0.293367 0.793367    Zn
Zn    0.706633 0.706633 0.206633    Zn
Zn    0.706633 0.706633 0.793367    Zn
Zn    0.706633 0.793367 0.293367    Zn
Zn    0.706633 0.793367 0.706633    Zn
C     0.716833 0.026821 0.283167     C
C     0.716833 0.026821 0.716833     C
C     0.716833 0.216833 0.473179     C
C     0.716833 0.216833 0.526821     C
C     0.716833 0.283167 0.026821     C
C     0.716833 0.283167 0.973179     C
C     0.716833 0.473179 0.216833     C
C     0.716833 0.473179 0.783167     C
C     0.716833 0.526821 0.216833     C
C     0.716833 0.526821 0.783167     C
C     0.716833 0.716833 0.026821     C
C     0.716833 0.716833 0.973179     C
C     0.716833 0.783167 0.473179     C
C     0.716833 0.783167 0.526821     C
C     0.716833 0.973179 0.283167     C
C     0.716833 0.973179 0.716833     C
O     0.718958 0.133652 0.281042     O
O     0.718958 0.133652 0.718958     O
O     0.718958 0.218958 0.366348     O
O     0.718958 0.218958 0.633652     O
O     0.718958 0.281042 0.133652     O
O     0.718958 0.281042 0.866348     O
O     0.718958 0.366348 0.218958     O
O     0.718958 0.366348 0.781042     O
O     0.718958 0.633652 0.218958     O
O     0.718958 0.633652 0.781042     O
O     0.718958 0.718958 0.133652     O
O     0.718958 0.718958 0.866348     O
O     0.718958 0.781042 0.366348     O
O     0.718958 0.781042 0.633652     O
O     0.718958 0.866348 0.281042     O
O     0.718958 0.866348 0.718958     O
C         0.75 0.053808     0.25     C
C         0.75 0.053808     0.75     C
C         0.75 0.111383     0.25     C
C         0.75 0.111383     0.75     C
C         0.75     0.25 0.053808     C
C         0.75     0.25 0.111383     C
O         0.75     0.25     0.25     O
C         0.75     0.25 0.388617     C
C         0.75     0.25 0.446192     C
C         0.75     0.25 0.553808     C
C         0.75     0.25 0.611383     C
O         0.75     0.25     0.75     O
C         0.75     0.25 0.888617     C
C         0.75     0.25 0.946192     C
C         0.75 0.388617     0.25     C
C         0.75 0.388617     0.75     C
C         0.75 0.446192     0.25     C
C         0.75 0.446192     0.75     C
C         0.75 0.553808     0.25     C
C         0.75 0.553808     0.75     C
C         0.75 0.611383     0.25     C
C         0.75 0.611383     0.75     C
C         0.75     0.75 0.053808     C
C         0.75     0.75 0.111383     C
O         0.75     0.75     0.25     O
C         0.75     0.75 0.388617     C
C         0.75     0.75 0.446192     C
C         0.75     0.75 0.553808     C
C         0.75     0.75 0.611383     C
O         0.75     0.75     0.75     O
C         0.75     0.75 0.888617     C
C         0.75     0.75 0.946192     C
C         0.75 0.888617     0.25     C
C         0.75 0.888617     0.75     C
C         0.75 0.946192     0.25     C
C         0.75 0.946192     0.75     C
O     0.781042 0.133652 0.218958     O
O     0.781042 0.133652 0.781042     O
O     0.781042 0.218958 0.133652     O
O     0.781042 0.218958 0.866348     O
O     0.781042 0.281042 0.366348     O
O     0.781042 0.281042 0.633652     O
O     0.781042 0.366348 0.281042     O
O     0.781042 0.366348 0.718958     O
O     0.781042 0.633652 0.281042     O
O     0.781042 0.633652 0.718958     O
O     0.781042 0.718958 0.366348     O
O     0.781042 0.718958 0.633652     O
O     0.781042 0.781042 0.133652     O
O     0.781042 0.781042 0.866348     O
O     0.781042 0.866348 0.218958     O
O     0.781042 0.866348 0.781042     O
C     0.783167 0.026821 0.216833     C
C     0.783167 0.026821 0.783167     C
C     0.783167 0.216833 0.026821     C
C     0.783167 0.216833 0.973179     C
C     0.783167 0.283167 0.473179     C
C     0.783167 0.283167 0.526821     C
C     0.783167 0.473179 0.283167     C
C     0.783167 0.473179 0.716833     C
C     0.783167 0.526821 0.283167     C
C     0.783167 0.526821 0.716833     C
C     0.783167 0.716833 0.473179     C
C     0.783167 0.716833 0.526821     C
C     0.783167 0.783167 0.026821     C
C     0.783167 0.783167 0.973179     C
C     0.783167 0.973179 0.216833     C
C     0.783167 0.973179 0.783167     C
Zn    0.793367 0.206633 0.206633    Zn
Zn    0.793367 0.206633 0.793367    Zn
Zn    0.793367 0.293367 0.293367    Zn
Zn    0.793367 0.293367 0.706633    Zn
Zn    0.793367 0.706633 0.293367    Zn
Zn    0.793367 0.706633 0.706633    Zn
Zn    0.793367 0.793367 0.206633    Zn
Zn    0.793367 0.793367 0.793367    Zn
H      0.80869  0.04881  0.19131     H
H      0.80869  0.04881  0.80869     H
H      0.80869  0.19131  0.04881     H
H      0.80869  0.19131  0.95119     H
H      0.80869  0.30869  0.45119     H
H      0.80869  0.30869  0.54881     H
H      0.80869  0.45119  0.30869     H
H      0.80869  0.45119  0.69131     H
H      0.80869  0.54881  0.30869     H
H      0.80869  0.54881  0.69131     H
H      0.80869  0.69131  0.45119     H
H      0.80869  0.69131  0.54881     H
H      0.80869  0.80869  0.04881     H
H      0.80869  0.80869  0.95119     H
H      0.80869  0.95119  0.19131     H
H      0.80869  0.95119  0.80869     H
O     0.866348 0.218958 0.218958     O
O     0.866348 0.218958 0.781042     O
O     0.866348 0.281042 0.281042     O
O     0.866348 0.281042 0.718958     O
O     0.866348 0.718958 0.281042     O
O     0.866348 0.718958 0.718958     O
O     0.866348 0.781042 0.218958     O
O     0.866348 0.781042 0.781042     O
C     0.888617     0.25     0.25     C
C     0.888617     0.25     0.75     C
C     0.888617     0.75     0.25     C
C     0.888617     0.75     0.75     C
C     0.946192     0.25     0.25     C
C     0.946192     0.25     0.75     C
C     0.946192     0.75     0.25     C
C     0.946192     0.75     0.75     C
H      0.95119  0.19131  0.19131     H
H      0.95119  0.19131  0.80869     H
H      0.95119  0.30869  0.30869     H
H      0.95119  0.30869  0.69131     H
H      0.95119  0.69131  0.30869     H
H      0.95119  0.69131  0.69131     H
H      0.95119  0.80869  0.19131     H
H      0.95119  0.80869  0.80869     H
C     0.973179 0.216833 0.216833     C
C     0.973179 0.216833 0.783167     C
C     0.973179 0.283167 0.283167     C
C     0.973179 0.283167 0.716833     C
C     0.973179 0.716833 0.283167     C
C     0.973179 0.716833 0.716833     C
C     0.973179 0.783167 0.216833     C
C     0.973179 0.783167 0.783167     C
