data_I
_chemical_name_common  '/Users/gianmarcoterrones/Research/MOFs/MOF_structures/water_stability_work_extra_structs/cleaned_from_CCDC/IZENOS'
_cell_length_a 21.95240
_cell_length_b 21.95240
_cell_length_c 21.95240
_cell_angle_alpha 90.00000
_cell_angle_beta  90.00000
_cell_angle_gamma 90.00000
_space_group_name_H-M_alt      'P 1'


loop_
_space_group_symop_operation_xyz
  'x, y, z' 

loop_
_atom_site_label
_atom_site_fract_x
_atom_site_fract_y
_atom_site_fract_z
_atom_site_type_symbol
H       0.0085    0.276    0.245     H
H       0.0085    0.724    0.755     H
C       0.0103   0.2842   0.2025     C
C       0.0103   0.7158   0.7975     C
N       0.0132  0.02385   0.3074     N
N       0.0132  0.97615   0.6926     N
C       0.0163   0.3045   0.0793     C
C       0.0163   0.6955   0.9207     C
N      0.02385   0.3074   0.0132     N
N      0.02385   0.6926   0.9868     N
C       0.0404    0.297   0.8932     C
C       0.0404    0.703   0.1068     C
C       0.0427   0.2867   0.8308     C
C       0.0427   0.7133   0.1692     C
C       0.0666   0.2937   0.1745     C
C       0.0666   0.7063   0.8255     C
C       0.0702    0.304   0.1129     C
C       0.0702    0.696   0.8871     C
H       0.0767   0.2989   0.9166     H
H       0.0767   0.7011   0.0834     H
C       0.0793   0.0163   0.3045     C
C       0.0793   0.9837   0.6955     C
H       0.0834   0.0767   0.7011     H
H       0.0834   0.9233   0.2989     H
H       0.0936   0.1084   0.3105     H
H       0.0936   0.8916   0.6895     H
C      0.10424   0.2785   0.8022     C
C      0.10424   0.7215   0.1978     C
C       0.1068   0.0404    0.703     C
C       0.1068   0.9596    0.297     C
O      0.10698  0.25439  0.75046     O
O      0.10698  0.74561  0.24954     O
H       0.1084   0.3105   0.0936     H
H       0.1084   0.6895   0.9064     H
C       0.1129   0.0702    0.304     C
C       0.1129   0.9298    0.696     C
O      0.11422  0.23803  0.62926     O
O      0.11422  0.76197  0.37074     O
C      0.12535   0.2938   0.2088     C
C      0.12535   0.7062   0.7912     C
O      0.12595  0.27361  0.26305     O
O      0.12595  0.72639  0.73695     O
O      0.12926  0.26197  0.38578     O
O      0.12926  0.73803  0.61422     O
O      0.14923  0.29655  0.83399     O
O      0.14923  0.70345  0.16601     O
O      0.16601  0.14923  0.70345     O
O      0.16601  0.85077  0.29655     O
C       0.1692   0.0427   0.7133     C
C       0.1692   0.9573   0.2867     C
O      0.17084  0.31427  0.18086     O
O      0.17084  0.68573  0.81914     O
C       0.1745   0.0666   0.2937     C
C       0.1745   0.9334   0.7063     C
Fe     0.17958   0.2393  0.69658    Fe
Fe     0.17958   0.7607  0.30342    Fe
O      0.18086  0.17084  0.31427     O
O      0.18086  0.82916  0.68573     O
O      0.18573  0.32916  0.68086     O
O      0.18573  0.67084  0.31914     O
H       0.1895   0.3916   0.5936     H
H       0.1895   0.6084   0.4064     H
N       0.1926  0.47615   0.5132     N
N       0.1926  0.52385   0.4868     N
C       0.1955   0.4837   0.5793     C
C       0.1955   0.5163   0.4207     C
C        0.196   0.4298   0.6129     C
C        0.196   0.5702   0.3871     C
Fe     0.19658   0.2607  0.32042    Fe
Fe     0.19658   0.7393  0.67958    Fe
C       0.1978  0.10424   0.7215     C
C       0.1978  0.89576   0.2785     C
H       0.2011   0.4233   0.4166     H
H       0.2011   0.5767   0.5834     H
C       0.2025   0.0103   0.2842     C
C       0.2025   0.9897   0.7158     C
C        0.203   0.4596   0.3932     C
C        0.203   0.5404   0.6068     C
O      0.20345  0.35077  0.33399     O
O      0.20345  0.64923  0.66601     O
C       0.2062  0.37465   0.7088     C
C       0.2062  0.62535   0.2912     C
C       0.2063   0.4334   0.6745     C
C       0.2063   0.5666   0.3255     C
C       0.2088  0.12535   0.2938     C
C       0.2088  0.87465   0.7062     C
C       0.2133   0.4573   0.3308     C
C       0.2133   0.5427   0.6692     C
C       0.2158   0.4897   0.7025     C
C       0.2158   0.5103   0.2975     C
C       0.2215  0.39576   0.3022     C
C       0.2215  0.60424   0.6978     C
H        0.224   0.4915    0.745     H
H        0.224   0.5085    0.255     H
O      0.22639  0.37405  0.76305     O
O      0.22639  0.62595  0.23695     O
O      0.23695  0.22639  0.62595     O
O      0.23695  0.77361  0.37405     O
O      0.23803  0.37074  0.88578     O
O      0.23803  0.62926  0.11422     O
Fe      0.2393  0.30342  0.82042    Fe
Fe      0.2393  0.69658  0.17958    Fe
O      0.24046  0.24046  0.75954     O
O      0.24046  0.75954  0.24046     O
H        0.245   0.0085    0.276     H
H        0.245   0.9915    0.724     H
O      0.24561  0.39302  0.25046     O
O      0.24561  0.60698  0.74954     O
O      0.24954  0.10698  0.74561     O
O      0.24954  0.89302  0.25439     O
O      0.25046  0.24561  0.39302     O
O      0.25046  0.75439  0.60698     O
O      0.25439  0.24954  0.89302     O
O      0.25439  0.75046  0.10698     O
H        0.255    0.224   0.5085     H
H        0.255    0.776   0.4915     H
O      0.25954  0.25954  0.25954     O
O      0.25954  0.74046  0.74046     O
Fe      0.2607  0.32042  0.19658    Fe
Fe      0.2607  0.67958  0.80342    Fe
O      0.26197  0.38578  0.12926     O
O      0.26197  0.61422  0.87074     O
O      0.26305  0.12595  0.27361     O
O      0.26305  0.87405  0.72639     O
O      0.27361  0.26305  0.12595     O
O      0.27361  0.73695  0.87405     O
H        0.276    0.245   0.0085     H
H        0.276    0.755   0.9915     H
C       0.2785   0.1978  0.89576     C
C       0.2785   0.8022  0.10424     C
C       0.2842   0.2025   0.0103     C
C       0.2842   0.7975   0.9897     C
C       0.2867   0.1692   0.9573     C
C       0.2867   0.8308   0.0427     C
C       0.2912   0.2062  0.62535     C
C       0.2912   0.7938  0.37465     C
C       0.2937   0.1745   0.0666     C
C       0.2937   0.8255   0.9334     C
C       0.2938   0.2088  0.12535     C
C       0.2938   0.7912  0.87465     C
O      0.29655  0.16601  0.85077     O
O      0.29655  0.83399  0.14923     O
C        0.297   0.1068   0.9596     C
C        0.297   0.8932   0.0404     C
C       0.2975   0.2158   0.5103     C
C       0.2975   0.7842   0.4897     C
H       0.2989   0.0834   0.9233     H
H       0.2989   0.9166   0.0767     H
C       0.3022   0.2215  0.39576     C
C       0.3022   0.7785  0.60424     C
Fe     0.30342  0.17958   0.7607    Fe
Fe     0.30342  0.82042   0.2393    Fe
C        0.304   0.1129   0.0702     C
C        0.304   0.8871   0.9298     C
C       0.3045   0.0793   0.0163     C
C       0.3045   0.9207   0.9837     C
N       0.3074   0.0132  0.02385     N
N       0.3074   0.9868  0.97615     N
H       0.3105   0.0936   0.1084     H
H       0.3105   0.9064   0.8916     H
O      0.31427  0.18086  0.17084     O
O      0.31427  0.81914  0.82916     O
O      0.31914  0.18573  0.67084     O
O      0.31914  0.81427  0.32916     O
Fe     0.32042  0.19658   0.2607    Fe
Fe     0.32042  0.80342   0.7393    Fe
C       0.3255   0.2063   0.5666     C
C       0.3255   0.7937   0.4334     C
O      0.32916  0.31914  0.81427     O
O      0.32916  0.68086  0.18573     O
C       0.3308   0.2133   0.4573     C
C       0.3308   0.7867   0.5427     C
O      0.33399  0.20345  0.35077     O
O      0.33399  0.79655  0.64923     O
O      0.35077  0.33399  0.20345     O
O      0.35077  0.66601  0.79655     O
O      0.37074  0.11422  0.76197     O
O      0.37074  0.88578  0.23803     O
O      0.37405  0.23695  0.77361     O
O      0.37405  0.76305  0.22639     O
C      0.37465   0.2912   0.7938     C
C      0.37465   0.7088   0.2062     C
O      0.38578  0.12926  0.26197     O
O      0.38578  0.87074  0.73803     O
C       0.3871    0.196   0.5702     C
C       0.3871    0.804   0.4298     C
H       0.3916   0.4064   0.8105     H
H       0.3916   0.5936   0.1895     H
O      0.39302  0.25046  0.24561     O
O      0.39302  0.74954  0.75439     O
C       0.3932    0.203   0.4596     C
C       0.3932    0.797   0.5404     C
C      0.39576   0.3022   0.2215     C
C      0.39576   0.6978   0.7785     C
H       0.4064   0.1895   0.6084     H
H       0.4064   0.8105   0.3916     H
H       0.4166   0.2011   0.4233     H
H       0.4166   0.7989   0.5767     H
C       0.4207   0.1955   0.5163     C
C       0.4207   0.8045   0.4837     C
H       0.4233   0.4166   0.2011     H
H       0.4233   0.5834   0.7989     H
C       0.4298   0.3871    0.804     C
C       0.4298   0.6129    0.196     C
C       0.4334   0.3255   0.7937     C
C       0.4334   0.6745   0.2063     C
C       0.4573   0.3308   0.2133     C
C       0.4573   0.6692   0.7867     C
C       0.4596   0.3932    0.203     C
C       0.4596   0.6068    0.797     C
N      0.47615   0.4868   0.8074     N
N      0.47615   0.5132   0.1926     N
C       0.4837   0.4207   0.8045     C
C       0.4837   0.5793   0.1955     C
N       0.4868   0.1926  0.52385     N
N       0.4868   0.8074  0.47615     N
C       0.4897   0.2975   0.7842     C
C       0.4897   0.7025   0.2158     C
H       0.4915    0.255    0.776     H
H       0.4915    0.745    0.224     H
H       0.5085    0.255    0.224     H
H       0.5085    0.745    0.776     H
C       0.5103   0.2975   0.2158     C
C       0.5103   0.7025   0.7842     C
N       0.5132   0.1926  0.47615     N
N       0.5132   0.8074  0.52385     N
C       0.5163   0.4207   0.1955     C
C       0.5163   0.5793   0.8045     C
N      0.52385   0.4868   0.1926     N
N      0.52385   0.5132   0.8074     N
C       0.5404   0.3932    0.797     C
C       0.5404   0.6068    0.203     C
C       0.5427   0.3308   0.7867     C
C       0.5427   0.6692   0.2133     C
C       0.5666   0.3255   0.2063     C
C       0.5666   0.6745   0.7937     C
C       0.5702   0.3871    0.196     C
C       0.5702   0.6129    0.804     C
H       0.5767   0.4166   0.7989     H
H       0.5767   0.5834   0.2011     H
C       0.5793   0.1955   0.4837     C
C       0.5793   0.8045   0.5163     C
H       0.5834   0.2011   0.5767     H
H       0.5834   0.7989   0.4233     H
H       0.5936   0.1895   0.3916     H
H       0.5936   0.8105   0.6084     H
C      0.60424   0.3022   0.7785     C
C      0.60424   0.6978   0.2215     C
C       0.6068    0.203   0.5404     C
C       0.6068    0.797   0.4596     C
O      0.60698  0.25046  0.75439     O
O      0.60698  0.74954  0.24561     O
H       0.6084   0.4064   0.1895     H
H       0.6084   0.5936   0.8105     H
C       0.6129    0.196   0.4298     C
C       0.6129    0.804   0.5702     C
O      0.61422  0.12926  0.73803     O
O      0.61422  0.87074  0.26197     O
C      0.62535   0.2912   0.2062     C
C      0.62535   0.7088   0.7938     C
O      0.62595  0.23695  0.22639     O
O      0.62595  0.76305  0.77361     O
O      0.62926  0.11422  0.23803     O
O      0.62926  0.88578  0.76197     O
O      0.64923  0.33399  0.79655     O
O      0.64923  0.66601  0.20345     O
O      0.66601  0.20345  0.64923     O
O      0.66601  0.79655  0.35077     O
C       0.6692   0.2133   0.5427     C
C       0.6692   0.7867   0.4573     C
O      0.67084  0.31914  0.18573     O
O      0.67084  0.68086  0.81427     O
C       0.6745   0.2063   0.4334     C
C       0.6745   0.7937   0.5666     C
Fe     0.67958  0.19658   0.7393    Fe
Fe     0.67958  0.80342   0.2607    Fe
O      0.68086  0.18573  0.32916     O
O      0.68086  0.81427  0.67084     O
O      0.68573  0.18086  0.82916     O
O      0.68573  0.81914  0.17084     O
H       0.6895   0.0936   0.8916     H
H       0.6895   0.9064   0.1084     H
N       0.6926   0.0132  0.97615     N
N       0.6926   0.9868  0.02385     N
C       0.6955   0.0793   0.9837     C
C       0.6955   0.9207   0.0163     C
C        0.696   0.1129   0.9298     C
C        0.696   0.8871   0.0702     C
Fe     0.69658  0.17958   0.2393    Fe
Fe     0.69658  0.82042   0.7607    Fe
C       0.6978   0.2215  0.60424     C
C       0.6978   0.7785  0.39576     C
H       0.7011   0.0834   0.0767     H
H       0.7011   0.9166   0.9233     H
C       0.7025   0.2158   0.4897     C
C       0.7025   0.7842   0.5103     C
C        0.703   0.1068   0.0404     C
C        0.703   0.8932   0.9596     C
O      0.70345  0.16601  0.14923     O
O      0.70345  0.83399  0.85077     O
C       0.7062   0.2088  0.87465     C
C       0.7062   0.7912  0.12535     C
C       0.7063   0.1745   0.9334     C
C       0.7063   0.8255   0.0666     C
C       0.7088   0.2062  0.37465     C
C       0.7088   0.7938  0.62535     C
C       0.7133   0.1692   0.0427     C
C       0.7133   0.8308   0.9573     C
C       0.7158   0.2025   0.9897     C
C       0.7158   0.7975   0.0103     C
C       0.7215   0.1978  0.10424     C
C       0.7215   0.8022  0.89576     C
H        0.724    0.245   0.9915     H
H        0.724    0.755   0.0085     H
O      0.72639  0.26305  0.87405     O
O      0.72639  0.73695  0.12595     O
O      0.73695  0.12595  0.72639     O
O      0.73695  0.87405  0.27361     O
O      0.73803  0.38578  0.87074     O
O      0.73803  0.61422  0.12926     O
Fe      0.7393  0.32042  0.80342    Fe
Fe      0.7393  0.67958  0.19658    Fe
O      0.74046  0.25954  0.74046     O
O      0.74046  0.74046  0.25954     O
H        0.745    0.224   0.4915     H
H        0.745    0.776   0.5085     H
O      0.74561  0.24954  0.10698     O
O      0.74561  0.75046  0.89302     O
O      0.74954  0.24561  0.60698     O
O      0.74954  0.75439  0.39302     O
O      0.75046  0.10698  0.25439     O
O      0.75046  0.89302  0.74561     O
O      0.75439  0.39302  0.74954     O
O      0.75439  0.60698  0.25046     O
H        0.755   0.0085    0.724     H
H        0.755   0.9915    0.276     H
O      0.75954  0.24046  0.24046     O
O      0.75954  0.75954  0.75954     O
Fe      0.7607  0.30342  0.17958    Fe
Fe      0.7607  0.69658  0.82042    Fe
O      0.76197  0.37074  0.11422     O
O      0.76197  0.62926  0.88578     O
O      0.76305  0.22639  0.37405     O
O      0.76305  0.77361  0.62595     O
O      0.77361  0.37405  0.23695     O
O      0.77361  0.62595  0.76305     O
H        0.776   0.4915    0.255     H
H        0.776   0.5085    0.745     H
C       0.7785  0.39576   0.6978     C
C       0.7785  0.60424   0.3022     C
C       0.7842   0.4897   0.2975     C
C       0.7842   0.5103   0.7025     C
C       0.7867   0.4573   0.6692     C
C       0.7867   0.5427   0.3308     C
C       0.7912  0.12535   0.7062     C
C       0.7912  0.87465   0.2938     C
C       0.7937   0.4334   0.3255     C
C       0.7937   0.5666   0.6745     C
C       0.7938  0.37465   0.2912     C
C       0.7938  0.62535   0.7088     C
O      0.79655  0.35077  0.66601     O
O      0.79655  0.64923  0.33399     O
C        0.797   0.4596   0.6068     C
C        0.797   0.5404   0.3932     C
C       0.7975   0.0103   0.7158     C
C       0.7975   0.9897   0.2842     C
H       0.7989   0.4233   0.5834     H
H       0.7989   0.5767   0.4166     H
C       0.8022  0.10424   0.2785     C
C       0.8022  0.89576   0.7215     C
Fe     0.80342   0.2607  0.67958    Fe
Fe     0.80342   0.7393  0.32042    Fe
C        0.804   0.4298   0.3871     C
C        0.804   0.5702   0.6129     C
C       0.8045   0.4837   0.4207     C
C       0.8045   0.5163   0.5793     C
N       0.8074  0.47615   0.4868     N
N       0.8074  0.52385   0.5132     N
H       0.8105   0.3916   0.4064     H
H       0.8105   0.6084   0.5936     H
O      0.81427  0.32916  0.31914     O
O      0.81427  0.67084  0.68086     O
O      0.81914  0.17084  0.68573     O
O      0.81914  0.82916  0.31427     O
Fe     0.82042   0.2393  0.30342    Fe
Fe     0.82042   0.7607  0.69658    Fe
C       0.8255   0.0666   0.7063     C
C       0.8255   0.9334   0.2937     C
O      0.82916  0.31427  0.81914     O
O      0.82916  0.68573  0.18086     O
C       0.8308   0.0427   0.2867     C
C       0.8308   0.9573   0.7133     C
O      0.83399  0.14923  0.29655     O
O      0.83399  0.85077  0.70345     O
O      0.85077  0.29655  0.16601     O
O      0.85077  0.70345  0.83399     O
O      0.87074  0.26197  0.61422     O
O      0.87074  0.73803  0.38578     O
O      0.87405  0.27361  0.73695     O
O      0.87405  0.72639  0.26305     O
C      0.87465   0.2938   0.7912     C
C      0.87465   0.7062   0.2088     C
O      0.88578  0.23803  0.37074     O
O      0.88578  0.76197  0.62926     O
C       0.8871   0.0702    0.696     C
C       0.8871   0.9298    0.304     C
H       0.8916   0.3105   0.9064     H
H       0.8916   0.6895   0.0936     H
O      0.89302  0.25439  0.24954     O
O      0.89302  0.74561  0.75046     O
C       0.8932   0.0404    0.297     C
C       0.8932   0.9596    0.703     C
C      0.89576   0.2785   0.1978     C
C      0.89576   0.7215   0.8022     C
H       0.9064   0.1084   0.6895     H
H       0.9064   0.8916   0.3105     H
H       0.9166   0.0767   0.2989     H
H       0.9166   0.9233   0.7011     H
C       0.9207   0.0163   0.6955     C
C       0.9207   0.9837   0.3045     C
H       0.9233   0.2989   0.0834     H
H       0.9233   0.7011   0.9166     H
C       0.9298    0.304   0.8871     C
C       0.9298    0.696   0.1129     C
C       0.9334   0.2937   0.8255     C
C       0.9334   0.7063   0.1745     C
C       0.9573   0.2867   0.1692     C
C       0.9573   0.7133   0.8308     C
C       0.9596    0.297   0.1068     C
C       0.9596    0.703   0.8932     C
N      0.97615   0.3074   0.9868     N
N      0.97615   0.6926   0.0132     N
C       0.9837   0.3045   0.9207     C
C       0.9837   0.6955   0.0793     C
N       0.9868  0.02385   0.6926     N
N       0.9868  0.97615   0.3074     N
C       0.9897   0.2842   0.7975     C
C       0.9897   0.7158   0.2025     C
H       0.9915    0.276    0.755     H
H       0.9915    0.724    0.245     H
