data_I
_chemical_name_common  '/Users/gianmarcoterrones/Research/MOFs/MOF_structures/water_stability_work_extra_structs/cleaned_from_CoRE/JASMEW_clean'
_cell_length_a  9.56300
_cell_length_b 10.86910
_cell_length_c 10.86910
_cell_angle_alpha 90.00000
_cell_angle_beta  90.00000
_cell_angle_gamma 90.00000
_space_group_name_H-M_alt      'P 1'


loop_
_space_group_symop_operation_xyz
  'x, y, z' 

loop_
_atom_site_label
_atom_site_fract_x
_atom_site_fract_y
_atom_site_fract_z
_atom_site_type_symbol
C          0.0   0.1254      0.5     C
C          0.0      0.5   0.7335     C
C          0.0   0.7335      0.5     C
C       0.0721   0.0642   0.4064     C
C       0.0721   0.0642   0.5936     C
C       0.0721   0.4064   0.0642     C
C       0.0721   0.4064   0.9358     C
C       0.0721   0.5936   0.0642     C
C       0.0721   0.5936   0.9358     C
C       0.0721   0.9358   0.4064     C
C       0.0721   0.9358   0.5936     C
O       0.1096   0.3181   0.4692     O
O       0.1096   0.3181   0.5308     O
O       0.1096   0.4692   0.3181     O
O       0.1096   0.4692   0.6819     O
O       0.1096   0.5308   0.3181     O
O       0.1096   0.5308   0.6819     O
O       0.1096   0.6819   0.4692     O
O       0.1096   0.6819   0.5308     O
H       0.1263   0.1018   0.2287     H
H       0.1263   0.1018   0.7713     H
H       0.1263   0.2287   0.1018     H
H       0.1263   0.2287   0.8982     H
H       0.1263   0.7713   0.1018     H
H       0.1263   0.7713   0.8982     H
H       0.1263   0.8982   0.2287     H
H       0.1263   0.8982   0.7713     H
H       0.1345   0.2189   0.3151     H
H       0.1345   0.2189   0.6849     H
H       0.1345   0.3151   0.2189     H
H       0.1345   0.3151   0.7811     H
H       0.1345   0.6849   0.2189     H
H       0.1345   0.6849   0.7811     H
H       0.1345   0.7811   0.3151     H
H       0.1345   0.7811   0.6849     H
Zn     0.15089      0.5      0.5    Zn
C       0.1536   0.1315   0.3093     C
C       0.1536   0.1315   0.6907     C
C       0.1536   0.3093   0.1315     C
C       0.1536   0.3093   0.8685     C
C       0.1536   0.6907   0.1315     C
C       0.1536   0.6907   0.8685     C
C       0.1536   0.8685   0.3093     C
C       0.1536   0.8685   0.6907     C
H       0.2528   0.1171   0.3216     H
H       0.2528   0.1171   0.6784     H
H       0.2528   0.3216   0.1171     H
H       0.2528   0.3216   0.8829     H
H       0.2528   0.6784   0.1171     H
H       0.2528   0.6784   0.8829     H
H       0.2528   0.8829   0.3216     H
H       0.2528   0.8829   0.6784     H
H        0.337   0.3285   0.4533     H
H        0.337   0.3285   0.5467     H
H        0.337   0.4533   0.3285     H
H        0.337   0.4533   0.6715     H
H        0.337   0.5467   0.3285     H
H        0.337   0.5467   0.6715     H
H        0.337   0.6715   0.4533     H
H        0.337   0.6715   0.5467     H
H       0.3387   0.3186      0.5     H
H       0.3387      0.5   0.3186     H
H       0.3387      0.5   0.6814     H
H       0.3387   0.6814      0.5     H
N        0.363      0.5      0.5     N
C        0.429    0.376   0.4649     C
C        0.429    0.376   0.5351     C
C        0.429   0.4649    0.376     C
C        0.429   0.4649    0.624     C
C        0.429   0.5351    0.376     C
C        0.429   0.5351    0.624     C
C        0.429    0.624   0.4649     C
C        0.429    0.624   0.5351     C
C         0.57    0.409    0.409     C
C         0.57    0.409    0.591     C
C         0.57    0.591    0.409     C
C         0.57    0.591    0.591     C
N        0.637      0.5      0.5     N
H       0.6613   0.3186      0.5     H
H       0.6613      0.5   0.3186     H
H       0.6613      0.5   0.6814     H
H       0.6613   0.6814      0.5     H
H        0.663   0.3285   0.4533     H
H        0.663   0.3285   0.5467     H
H        0.663   0.4533   0.3285     H
H        0.663   0.4533   0.6715     H
H        0.663   0.5467   0.3285     H
H        0.663   0.5467   0.6715     H
H        0.663   0.6715   0.4533     H
H        0.663   0.6715   0.5467     H
H       0.7472   0.1171   0.3216     H
H       0.7472   0.1171   0.6784     H
H       0.7472   0.3216   0.1171     H
H       0.7472   0.3216   0.8829     H
H       0.7472   0.6784   0.1171     H
H       0.7472   0.6784   0.8829     H
H       0.7472   0.8829   0.3216     H
H       0.7472   0.8829   0.6784     H
C       0.8464   0.1315   0.3093     C
C       0.8464   0.1315   0.6907     C
C       0.8464   0.3093   0.1315     C
C       0.8464   0.3093   0.8685     C
C       0.8464   0.6907   0.1315     C
C       0.8464   0.6907   0.8685     C
C       0.8464   0.8685   0.3093     C
C       0.8464   0.8685   0.6907     C
Zn     0.84911      0.5      0.5    Zn
H       0.8655   0.2189   0.3151     H
H       0.8655   0.2189   0.6849     H
H       0.8655   0.3151   0.2189     H
H       0.8655   0.3151   0.7811     H
H       0.8655   0.6849   0.2189     H
H       0.8655   0.6849   0.7811     H
H       0.8655   0.7811   0.3151     H
H       0.8655   0.7811   0.6849     H
H       0.8737   0.1018   0.2287     H
H       0.8737   0.1018   0.7713     H
H       0.8737   0.2287   0.1018     H
H       0.8737   0.2287   0.8982     H
H       0.8737   0.7713   0.1018     H
H       0.8737   0.7713   0.8982     H
H       0.8737   0.8982   0.2287     H
H       0.8737   0.8982   0.7713     H
O       0.8904   0.3181   0.4692     O
O       0.8904   0.3181   0.5308     O
O       0.8904   0.4692   0.3181     O
O       0.8904   0.4692   0.6819     O
O       0.8904   0.5308   0.3181     O
O       0.8904   0.5308   0.6819     O
O       0.8904   0.6819   0.4692     O
O       0.8904   0.6819   0.5308     O
C       0.9279   0.0642   0.4064     C
C       0.9279   0.0642   0.5936     C
C       0.9279   0.4064   0.0642     C
C       0.9279   0.4064   0.9358     C
C       0.9279   0.5936   0.0642     C
C       0.9279   0.5936   0.9358     C
C       0.9279   0.9358   0.4064     C
C       0.9279   0.9358   0.5936     C
C          1.0   0.2665      0.5     C
C          1.0      0.5   0.1254     C
C          1.0      0.5   0.2665     C
C          1.0      0.5   0.8746     C
C          1.0   0.8746      0.5     C
