data_I
_chemical_name_common  '/Users/gianmarcoterrones/Research/MOFs/MOF_structures/water_stability_work_extra_structs/cleaned_from_CCDC/JOFZOV'
_cell_length_a  8.06850
_cell_length_b 11.49704
_cell_length_c 11.49704
_cell_angle_alpha 95.99157
_cell_angle_beta  104.85650
_cell_angle_gamma 104.85650
_space_group_name_H-M_alt      'P 1'


loop_
_space_group_symop_operation_xyz
  'x, y, z' 

loop_
_atom_site_label
_atom_site_fract_x
_atom_site_fract_y
_atom_site_fract_z
_atom_site_type_symbol
H       0.0053   0.8403   0.3115     H
C        0.011   0.2399   0.5437     C
Eu     0.04411 0.857024 0.907896    Eu
C        0.054   0.1681   0.6289     C
H        0.068   0.2918   0.3936     H
O       0.0827   0.6581   0.8681     O
H       0.0882   0.6408    0.373     H
C       0.0959   0.2451   0.4529     C
O       0.1167   0.2509   0.9791     O
O       0.1207   0.9978   0.7844     O
C       0.1233   0.6921   0.4519     C
H       0.1284   0.6424    0.514     H
H        0.129    0.927    0.097     H
O       0.1409   0.0025   0.0961     O
H       0.1439   0.4611   0.9223     H
C       0.1822   0.1081   0.6287     C
C       0.2027   0.6573   0.8183     C
C        0.221   0.1832   0.4478     C
O       0.2272   0.2272   0.2522     O
C       0.2312   0.0374   0.7266     C
C       0.2321   0.4613   0.8837     C
H       0.2393   0.7495   0.4657     H
H       0.2607   0.5343   0.2505     H
C       0.2679   0.1163   0.5387     C
C       0.2688   0.2734   0.9626     C
O       0.2728   0.7478   0.7728     O
C        0.279   0.5522   0.8168     C
C       0.2973   0.1817   0.3427     C
C       0.3178   0.3713   0.8919     C
H       0.3561   0.0777   0.5389     H
O       0.3591   0.9039   0.9975     O
H        0.371    0.903    0.073     H
H       0.3716    0.486   0.3576     H
C       0.3767   0.5481   0.3079     C
O       0.3793   0.2156   0.0022     O
O       0.3833   0.0209   0.7491     O
C       0.4041   0.5471   0.7549     C
H       0.4118    0.627   0.3592     H
O       0.4173   0.1319   0.3419     O
H        0.432   0.6064   0.7082     H
C        0.446   0.3711   0.8319     C
Eu     0.45589 0.092104 0.142976    Eu
C        0.489   0.4563   0.7601     C
H       0.4947   0.6885   0.1597     H
H       0.5053   0.3115   0.8403     H
C        0.511   0.5437   0.2399     C
Eu     0.54411 0.907896 0.857024    Eu
C        0.554   0.6289   0.1681     C
H        0.568   0.3936   0.2918     H
O       0.5827   0.8681   0.6581     O
H       0.5882    0.373   0.6408     H
C       0.5959   0.4529   0.2451     C
O       0.6167   0.9791   0.2509     O
O       0.6207   0.7844   0.9978     O
C       0.6233   0.4519   0.6921     C
H       0.6284    0.514   0.6424     H
H        0.629    0.097    0.927     H
O       0.6409   0.0961   0.0025     O
H       0.6439   0.9223   0.4611     H
C       0.6822   0.6287   0.1081     C
C       0.7027   0.8183   0.6573     C
C        0.721   0.4478   0.1832     C
O       0.7272   0.2522   0.2272     O
C       0.7312   0.7266   0.0374     C
C       0.7321   0.8837   0.4613     C
H       0.7393   0.4657   0.7495     H
H       0.7607   0.2505   0.5343     H
C       0.7679   0.5387   0.1163     C
C       0.7688   0.9626   0.2734     C
O       0.7728   0.7728   0.7478     O
C        0.779   0.8168   0.5522     C
C       0.7973   0.3427   0.1817     C
C       0.8178   0.8919   0.3713     C
H       0.8561   0.5389   0.0777     H
O       0.8591   0.9975   0.9039     O
H        0.871    0.073    0.903     H
H       0.8716   0.3576    0.486     H
C       0.8767   0.3079   0.5481     C
O       0.8793   0.0022   0.2156     O
O       0.8833   0.7491   0.0209     O
C       0.9041   0.7549   0.5471     C
H       0.9118   0.3592    0.627     H
O       0.9173   0.3419   0.1319     O
H        0.932   0.7082   0.6064     H
C        0.946   0.8319   0.3711     C
Eu     0.95589 0.142976 0.092104    Eu
C        0.989   0.7601   0.4563     C
H       0.9947   0.1597   0.6885     H
