data_I
_chemical_name_common  '/Users/gianmarcoterrones/Downloads/JUC-110'
_cell_length_a 16.34984
_cell_length_b 16.34984
_cell_length_c 16.89247
_cell_angle_alpha 90.00000
_cell_angle_beta  90.00000
_cell_angle_gamma 90.00000
_space_group_name_H-M_alt      'P 1'


loop_
_space_group_symop_operation_xyz
  'x, y, z' 

loop_
_atom_site_label
_atom_site_fract_x
_atom_site_fract_y
_atom_site_fract_z
_atom_site_type_symbol
O     0.0190018  0.73934 0.3273216     O
C      0.02462  0.73552 0.4673518     C
C      0.02512  0.76844  0.11342     C
H       0.0372   0.6793   0.4834     H
C      0.03942  0.77264  0.60772     C
O     0.0402917  0.22484 0.8264316     O
C      0.04402  0.21374  0.96592     C
C      0.04582  0.76194  0.96732     C
H       0.0459   0.1541   0.9716     H
C      0.05032  0.24314  0.61072     C
H       0.0511   0.8409   0.5012     H
H       0.0523   0.7072   0.9458     H
H       0.0531   0.8189   0.6411     H
H       0.0592   0.7672   0.2278     H
N     0.0628117  0.78972 0.5257916     N
C      0.06342  0.74854  0.38512     C
C      0.06452  0.22304  0.10914     C
H        0.069   0.7251   0.6269     H
C      0.06992  0.25694  0.46482     C
N     0.0746318  0.76514 0.1791317     N
C      0.07502  0.76414  0.05062     C
H       0.0776   0.7994   0.9352     H
H       0.0799   0.1667   0.1192     H
C      0.08402  0.23454  0.88572     C
H       0.0846   0.2415   0.7248     H
H       0.0858   0.2065   0.4387     H
H       0.0901   0.2572    0.149     H
H       0.0903   0.3106   0.0159     H
N     0.0924617  0.24772 0.0297416     N
H       0.0934   0.3025   0.4359     H
C      0.09922  0.25712 0.5481618     C
N     0.0995117  0.24752 0.6763316     N
O     0.1369314  0.76752 0.3818513     O
C      0.15042  0.75814  0.15302     C
H       0.1541   0.0459   0.0284     H
N     0.1549417  0.75692 0.0751816     N
O     0.1570814 0.2555618 0.8838414     O
H       0.1591   0.9489   0.4988     H
H       0.1667   0.0799   0.8808     H
C      0.17532  0.26312  0.65042     C
N     0.1784816 0.2694418 0.5726914     N
H       0.1793   0.4628   0.4834     H
H       0.1811   0.9469   0.3589     H
H       0.1894   0.5903   0.0159     H
H       0.1957   0.7543    0.186     H
H       0.1975   0.5934   0.4359     H
H       0.2006   0.9224   0.0648     H
Cd    0.20641512 0.79358512      0.5    Cd
H       0.2065   0.0858   0.5613     H
H       0.2072   0.4477   0.9458     H
N      0.21032 0.9371917 0.4742116     N
C      0.21374  0.04402  0.03412     C
H       0.2205   0.2688   0.6834     H
C      0.22304  0.06452  0.89094     C
O      0.22484 0.0402917 0.1735716     O
H       0.2251    0.431   0.6269     H
C      0.22744  0.96062  0.39232     C
N     0.2305618 0.6784816 0.5726914     N
H       0.2312   0.7205   0.6834     H
C      0.23164  0.97492  0.88662     C
O      0.23252 0.8630714 0.6181513     O
H       0.2328   0.9408   0.7722     H
Cd    0.23321811 0.23321811      0.0    Cd
C      0.23454  0.08402  0.11432     C
N      0.23494 0.9253718 0.8208717     N
C      0.23552  0.47542 0.4673518     C
C      0.23594  0.92502  0.94942     C
C      0.23692  0.67532  0.65042     C
C      0.23814  0.95422  0.03272     C
O      0.23934 0.4810018 0.3273216     O
H       0.2415   0.0846   0.2752     H
C      0.24194  0.84962  0.84702     C
H       0.2428   0.5901    0.149     H
C      0.24292  0.59922 0.5481618     C
N      0.24312 0.8450617 0.9248216     N
C      0.24314  0.05032  0.38932     C
C      0.24314  0.56992  0.46482     C
O     0.2444418 0.6570814 0.8838414     O
H       0.2457   0.8043    0.814     H
N      0.24752 0.0995117 0.3236716     N
N      0.24772 0.0924617 0.9702616     N
C      0.24854  0.43662  0.38512     C
C      0.25154  0.93662  0.61492     C
N      0.25232 0.5924617 0.0297416     N
N      0.25252 0.5995117 0.6763316     N
H       0.2543   0.3043    0.186     H
O     0.2555618 0.1570814 0.1161614     O
N      0.25692 0.3450617 0.0751816     N
C      0.25694  0.06992  0.53522     C
C      0.25694  0.55032  0.61072     C
C      0.25712  0.09922 0.4518418     C
H       0.2572   0.0901    0.851     H
C      0.25814  0.34962  0.15302     C
H       0.2585   0.5846   0.7248     H
O      0.26074 0.9810018 0.6726816     O
C      0.26194  0.45422  0.96732     C
C      0.26312  0.17532  0.34962     C
C      0.26414  0.42502  0.05062     C
C      0.26452  0.97542 0.5326518     C
N      0.26514 0.4253718 0.1791317     N
C      0.26554  0.58402  0.88572     C
Cd    0.26678211 0.73321811      0.0    Cd
H       0.2672   0.4408   0.2278     H
O      0.26752 0.3630714 0.3818513     O
C      0.26844  0.47492  0.11342     C
H       0.2688   0.2205   0.3166     H
N     0.2694418 0.1784816 0.4273114     N
C      0.27264  0.46062  0.60772     C
H       0.2749    0.931   0.3731     H
O      0.27524 0.5402917 0.8264316     O
C      0.27704  0.56452  0.10914     C
H       0.2795   0.7688   0.3166     H
C      0.28634  0.54402  0.96592     C
N      0.28972 0.4371917 0.5257916     N
H       0.2928   0.9477   0.0542     H
H       0.2935   0.5858   0.4387     H
Cd    0.29358512 0.29358512      0.5    Cd
H       0.2994   0.4224   0.9352     H
H       0.3025   0.0934   0.5641     H
H       0.3043   0.2543    0.814     H
H       0.3106   0.0903   0.9841     H
H       0.3189   0.4469   0.6411     H
H       0.3207   0.9628   0.5166     H
N     0.3215216 0.7694418 0.4273114     N
C      0.32472  0.76312  0.34962     C
H       0.3333   0.5799   0.1192     H
H       0.3409   0.4489   0.5012     H
O     0.3429214 0.7555618 0.1161614     O
N     0.3450617  0.25692 0.9248216     N
H       0.3459   0.5459   0.9716     H
C      0.34962  0.25814  0.84702     C
O     0.3630714  0.26752 0.6181513     O
N     0.4004917  0.74752 0.3236716     N
C      0.40082  0.75712 0.4518418     C
H       0.4066   0.8025   0.5641     H
N     0.4075417  0.74772 0.9702616     N
H       0.4097   0.8106   0.9841     H
H       0.4099   0.7572    0.851     H
H       0.4142   0.7065   0.5613     H
H       0.4154   0.7415   0.2752     H
C      0.41602  0.73454  0.11432     C
H       0.4201   0.6667   0.8808     H
H       0.4224   0.2994   0.0648     H
C      0.42502  0.26414  0.94942     C
N     0.4253718  0.26514 0.8208717     N
C      0.43012  0.75694  0.53522     C
H        0.431   0.2251   0.3731     H
C      0.43552  0.72304  0.89094     C
C      0.43662  0.24854  0.61492     C
N     0.4371917  0.28972 0.4742116     N
H       0.4408   0.2672   0.7722     H
H       0.4469   0.3189   0.3589     H
H       0.4477   0.2072   0.0542     H
H       0.4489   0.3409   0.4988     H
C      0.44972  0.74314  0.38932     C
H       0.4541   0.6541   0.0284     H
C      0.45422  0.26194  0.03272     C
C      0.45602  0.71374  0.03412     C
O     0.4597117  0.72484 0.1735716     O
C      0.46062  0.27264  0.39232     C
H       0.4628   0.1793   0.5166     H
C      0.47492  0.26844  0.88662     C
C      0.47542  0.23552 0.5326518     C
O     0.4810018  0.23934 0.6726816     O
O     0.5190018  0.76074 0.6726816     O
C      0.52462  0.76452 0.5326518     C
C      0.52512  0.73164  0.88662     C
H       0.5372   0.8207   0.5166     H
C      0.53942  0.72744  0.39232     C
O     0.5402917  0.27524 0.1735716     O
C      0.54402  0.28634  0.03412     C
C      0.54582  0.73814  0.03272     C
H       0.5459   0.3459   0.0284     H
C      0.55032  0.25694  0.38932     C
H       0.5511   0.6591   0.4988     H
H       0.5523   0.7928   0.0542     H
H       0.5531   0.6811   0.3589     H
H       0.5592   0.7328   0.7722     H
N     0.5628117  0.71032 0.4742116     N
C      0.56342  0.75154  0.61492     C
C      0.56452  0.27704  0.89094     C
H        0.569   0.7749   0.3731     H
C      0.56992  0.24314  0.53522     C
N     0.5746318  0.73494 0.8208717     N
C      0.57502  0.73594  0.94942     C
H       0.5776   0.7006   0.0648     H
H       0.5799   0.3333   0.8808     H
C      0.58402  0.26554  0.11432     C
H       0.5846   0.2585   0.2752     H
H       0.5858   0.2935   0.5613     H
H       0.5901   0.2428    0.851     H
H       0.5903   0.1894   0.9841     H
N     0.5924617  0.25232 0.9702616     N
H       0.5934   0.1975   0.5641     H
C      0.59922  0.24292 0.4518418     C
N     0.5995117  0.25252 0.3236716     N
O     0.6369314  0.73252 0.6181513     O
C      0.65042  0.74194  0.84702     C
H       0.6541   0.4541   0.9716     H
N     0.6549417  0.74312 0.9248216     N
O     0.6570814 0.2444418 0.1161614     O
H       0.6591   0.5511   0.5012     H
H       0.6667   0.4201   0.1192     H
C      0.67532  0.23692  0.34962     C
N     0.6784816 0.2305618 0.4273114     N
H       0.6793   0.0372   0.5166     H
H       0.6811   0.5531   0.6411     H
H       0.6894   0.9097   0.9841     H
H       0.6957   0.7457    0.814     H
H       0.6975   0.9066   0.5641     H
H       0.7006   0.5776   0.9352     H
Cd    0.70641512 0.70641512      0.5    Cd
H       0.7065   0.4142   0.4387     H
H       0.7072   0.0523   0.0542     H
N      0.71032 0.5628117 0.5257916     N
C      0.71374  0.45602  0.96592     C
H       0.7205   0.2312   0.3166     H
C      0.72304  0.43552  0.10914     C
O      0.72484 0.4597117 0.8264316     O
H       0.7251    0.069   0.3731     H
C      0.72744  0.53942  0.60772     C
N     0.7305618 0.8215216 0.4273114     N
H       0.7312   0.7795   0.3166     H
C      0.73164  0.52512  0.11342     C
O      0.73252 0.6369314 0.3818513     O
H       0.7328   0.5592   0.2278     H
Cd    0.73321811 0.26678211      0.0    Cd
C      0.73454  0.41602  0.88572     C
N      0.73494 0.5746318 0.1791317     N
C      0.73552  0.02462 0.5326518     C
C      0.73594  0.57502  0.05062     C
C      0.73692  0.82472  0.34962     C
C      0.73814  0.54582  0.96732     C
O      0.73934 0.0190018 0.6726816     O
H       0.7415   0.4154   0.7248     H
C      0.74194  0.65042  0.15302     C
H       0.7428   0.9099    0.851     H
C      0.74292  0.90082 0.4518418     C
N      0.74312 0.6549417 0.0751816     N
C      0.74314  0.44972  0.61072     C
C      0.74314  0.93012  0.53522     C
O     0.7444418 0.8429214 0.1161614     O
H       0.7457   0.6957    0.186     H
N      0.74752 0.4004917 0.6763316     N
N      0.74772 0.4075417 0.0297416     N
C      0.74854  0.06342  0.61492     C
C      0.75154  0.56342  0.38512     C
N      0.75232 0.9075417 0.9702616     N
N      0.75252 0.9004917 0.3236716     N
H       0.7543   0.1957    0.814     H
O     0.7555618 0.3429214 0.8838414     O
N      0.75692 0.1549417 0.9248216     N
C      0.75694  0.43012  0.46482     C
C      0.75694  0.94972  0.38932     C
C      0.75712  0.40082 0.5481618     C
H       0.7572   0.4099    0.149     H
C      0.75814  0.15042  0.84702     C
H       0.7585   0.9154   0.2752     H
O      0.76074 0.5190018 0.3273216     O
C      0.76194  0.04582  0.03272     C
C      0.76312  0.32472  0.65042     C
C      0.76414  0.07502  0.94942     C
C      0.76452  0.52462 0.4673518     C
N      0.76514 0.0746318 0.8208717     N
C      0.76554  0.91602  0.11432     C
Cd    0.76678211 0.76678211      0.0    Cd
H       0.7672   0.0592   0.7722     H
O      0.76752 0.1369314 0.6181513     O
C      0.76844  0.02512  0.88662     C
H       0.7688   0.2795   0.6834     H
N     0.7694418 0.3215216 0.5726914     N
C      0.77264  0.03942  0.39232     C
H       0.7749    0.569   0.6269     H
O      0.77524 0.9597117 0.1735716     O
C      0.77704  0.93552  0.89094     C
H       0.7795   0.7312   0.6834     H
C      0.78634  0.95602  0.03412     C
N      0.78972 0.0628117 0.4742116     N
H       0.7928   0.5523   0.9458     H
H       0.7935   0.9142   0.5613     H
Cd    0.79358512 0.20641512      0.5    Cd
H       0.7994   0.0776   0.0648     H
H       0.8025   0.4066   0.4359     H
H       0.8043   0.2457    0.186     H
H       0.8106   0.4097   0.0159     H
H       0.8189   0.0531   0.3589     H
H       0.8207   0.5372   0.4834     H
N     0.8215216 0.7305618 0.5726914     N
C      0.82472  0.73692  0.65042     C
H       0.8333   0.9201   0.8808     H
H       0.8409   0.0511   0.4988     H
O     0.8429214 0.7444418 0.8838414     O
N     0.8450617  0.24312 0.0751816     N
H       0.8459   0.9541   0.0284     H
C      0.84962  0.24194  0.15302     C
O     0.8630714  0.23252 0.3818513     O
N     0.9004917  0.75252 0.6763316     N
C      0.90082  0.74292 0.5481618     C
H       0.9066   0.6975   0.4359     H
N     0.9075417  0.75232 0.0297416     N
H       0.9097   0.6894   0.0159     H
H       0.9099   0.7428    0.149     H
H       0.9142   0.7935   0.4387     H
H       0.9154   0.7585   0.7248     H
C      0.91602  0.76554  0.88572     C
H       0.9201   0.8333   0.1192     H
H       0.9224   0.2006   0.9352     H
C      0.92502  0.23594  0.05062     C
N     0.9253718  0.23494 0.1791317     N
C      0.93012  0.74314  0.46482     C
H        0.931   0.2749   0.6269     H
C      0.93552  0.77704  0.10914     C
C      0.93662  0.25154  0.38512     C
N     0.9371917  0.21032 0.5257916     N
H       0.9408   0.2328   0.2278     H
H       0.9469   0.1811   0.6411     H
H       0.9477   0.2928   0.9458     H
H       0.9489   0.1591   0.5012     H
C      0.94972  0.75694  0.61072     C
H       0.9541   0.8459   0.9716     H
C      0.95422  0.23814  0.96732     C
C      0.95602  0.78634  0.96592     C
O     0.9597117  0.77524 0.8264316     O
C      0.96062  0.22744  0.60772     C
H       0.9628   0.3207   0.4834     H
C      0.97492  0.23164  0.11342     C
C      0.97542  0.26452 0.4673518     C
O     0.9810018  0.26074 0.3273216     O
