data_I
_chemical_name_common  '/Users/gianmarcoterrones/Research/MOFs/MOF_structures/water_stability_work_extra_structs/cleaned_from_CCDC/JUMZUO01'
_cell_length_a  9.23080
_cell_length_b 10.06300
_cell_length_c 24.57200
_cell_angle_alpha 97.68000
_cell_angle_beta  100.39000
_cell_angle_gamma 101.06000
_space_group_name_H-M_alt      'P 1'


loop_
_space_group_symop_operation_xyz
  'x, y, z' 

loop_
_atom_site_label
_atom_site_fract_x
_atom_site_fract_y
_atom_site_fract_z
_atom_site_type_symbol
N       0.0147   0.6312  0.66824     N
H       0.0152   0.8308   0.6659     H
C       0.0312   0.3328  0.20248     C
C       0.0326   0.1056   0.0457     C
H       0.0385   0.4889   0.7901     H
C       0.0419   0.2589   0.3411     C
C       0.0466   0.4737  0.21332     C
H       0.0489    0.772   0.1001     H
H       0.0529    0.176   0.0765     H
C       0.0543   0.5954  0.05049     C
C       0.0596   0.5212  0.95404     C
C        0.076   0.0119  0.95738     C
H       0.0779   0.6559   0.1344     H
H       0.0872   0.8151   0.4096     H
H       0.0904   0.9725   0.4212     H
H       0.0961   0.5624   0.3431     H
H       0.1008   0.5369    0.923     H
C       0.1015   0.4721  0.34582     C
C       0.1041   0.6997  0.10359     C
H       0.1078   0.8317    0.315     H
C       0.1111   0.1192   0.0034     C
C       0.1124   0.6136  0.00365     C
C       0.1256   0.7583  0.80839     C
H       0.1271   0.0199   0.9282     H
H       0.1288   0.9917   0.3232     H
H       0.1452   0.1797   0.1949     H
C       0.1529   0.9054   0.4235     C
C       0.1569   0.2741  0.20514     C
H        0.157   0.8626    0.506     H
O        0.161   0.8747  0.83888     O
C       0.1821    0.918   0.3265     C
O       0.1852   0.4142   0.7098     O
H        0.189   0.6901   0.0055     H
C       0.1903   0.5594  0.22945     C
C       0.1913   0.2946   0.3616     C
O        0.194   0.6968  0.24039     O
H       0.2047    0.325   0.0256     H
O       0.2253   0.7101   0.7866     O
C       0.2279   0.3901  0.66448     C
C       0.2281   0.9131   0.4873     C
N       0.2303    0.433   0.3647     N
C       0.2313   0.2453   0.0065     C
Ni     0.23338  0.62849 0.704285    Ni
H        0.239   0.2603   0.9688     H
H       0.2423    0.956    0.254     H
H       0.2524   0.2773    0.564     H
C       0.2533   0.2519  0.64395     C
O       0.2535   0.4852  0.63575     O
H        0.255   0.2367   0.3717     H
C       0.2572   0.9294   0.3878     C
C       0.2596   0.2141  0.58817     C
H       0.2649   0.9659   0.1314     H
N       0.2656   0.7617  0.11749     N
O        0.269   0.0502  0.51197     O
H       0.2696   0.1866   0.7184     H
C       0.2705   0.1606  0.68072     C
C       0.2761   0.0854  0.56815     C
C       0.2878   0.9245  0.28727     C
C       0.2891   0.0295  0.66119     C
C       0.2919   0.9917  0.60446     C
C       0.2995    0.359  0.22335     C
H       0.3043   0.9046   0.5912     H
O       0.3062   0.8071  0.67884     O
C       0.3081   0.9294  0.70071     C
C       0.3158   0.5033  0.23425     C
H       0.3163   0.8733   0.4902     H
H       0.3171   0.8506   0.9432     H
O         0.32   0.9711  0.75219     O
H       0.3213   0.0207   0.4009     H
H       0.3213   0.8637   0.3906     H
C       0.3224   0.8994  0.13171     C
C       0.3281   0.7907  0.26949     C
H       0.3286   0.6311   0.4791     H
H       0.3476   0.2377   0.1164     H
H       0.3734   0.7568   0.3021     H
N        0.378   0.2282  0.03714     N
H       0.3787    0.604   0.1179     H
H       0.3798    0.992   0.3052     H
H       0.3804   0.6147   0.3815     H
C       0.3833   0.5199  0.38414     C
C       0.3839   0.6982  0.12396     C
H       0.3914   0.2138   0.8519     H
Ni     0.39493  0.88472 0.818751    Ni
C       0.3984   0.5774   0.4875     C
H       0.4001   0.8026   0.2453     H
C       0.4086   0.8273   0.9404     C
C       0.4103   0.2213  0.09178     C
H       0.4117   0.5606   0.2447     H
H       0.4139   0.6151   0.5713     H
O       0.4296    0.181  0.20744     O
C       0.4397   0.3026  0.23149     C
O       0.4459   0.6167  0.73818     O
C       0.4469   0.5101  0.44418     C
H       0.4485   0.4909   0.3602     H
C       0.4493   0.5686    0.543     C
N       0.4601   0.8111  0.89357     N
N       0.4709   0.9249    0.146     N
C       0.4891   0.1957   0.0158     C
C       0.4896   0.2006  0.85907     C
H       0.4973   0.1895   0.9784     H
H       0.5027   0.8105   0.0216     H
C       0.5104   0.7994  0.14093     C
C       0.5109   0.8043   0.9842     C
N       0.5291   0.0751    0.854     N
N       0.5399   0.1889  0.10643     N
C       0.5507   0.4314    0.457     C
H       0.5515   0.5091   0.6398     H
C       0.5531   0.4899  0.55582     C
O       0.5541   0.3833  0.26182     O
C       0.5603   0.6974  0.76851     C
O       0.5704    0.819  0.79256     O
H       0.5861   0.3849   0.4287     H
H       0.5883   0.4394   0.7553     H
C       0.5897   0.7787  0.90822     C
C       0.5914   0.1727   0.0596     C
H       0.5999   0.1974   0.7547     H
C       0.6016   0.4226   0.5125     C
Ni     0.60507  0.11528 0.181249    Ni
H       0.6086   0.7862   0.1481     H
C       0.6161   0.3018  0.87604     C
C       0.6167   0.4801  0.61586     C
H       0.6196   0.3853   0.6185     H
H       0.6202    0.008   0.6948     H
H       0.6213    0.396   0.8821     H
N        0.622   0.7718  0.96286     N
H       0.6266   0.2432   0.6979     H
H       0.6524   0.7623   0.8836     H
H       0.6714   0.3689   0.5209     H
C       0.6719   0.2093  0.73051     C
C       0.6776   0.1006  0.86829     C
H       0.6787   0.1363   0.6094     H
H       0.6787   0.9793   0.5991     H
O         0.68   0.0289  0.24781     O
H       0.6829   0.1494   0.0568     H
H       0.6837   0.1267   0.5098     H
C       0.6842   0.4967  0.76575     C
C       0.6919   0.0706  0.29929     C
O       0.6938   0.1929  0.32116     O
H       0.6957   0.0954   0.4088     H
C       0.7005    0.641  0.77665     C
C       0.7081   0.0083  0.39554     C
C       0.7109   0.9705  0.33881     C
C       0.7122   0.0755  0.71273     C
C       0.7239   0.9146  0.43185     C
C       0.7295   0.8394  0.31928     C
H       0.7304   0.8134   0.2816     H
O        0.731   0.9498  0.48803     O
N       0.7344   0.2383  0.88251     N
H       0.7351   0.0341   0.8686     H
C       0.7404   0.7859  0.41183     C
C       0.7428   0.0706   0.6122     C
H        0.745   0.7633   0.6283     H
O       0.7465   0.5148  0.36425     O
C       0.7467   0.7481  0.35605     C
H       0.7476   0.7227    0.436     H
H       0.7577    0.044    0.746     H
H        0.761   0.7397   0.0312     H
Ni     0.76662  0.37151 0.295715    Ni
C       0.7687   0.7547   0.9935     C
N       0.7697    0.567   0.6353     N
C       0.7719   0.0869   0.5127     C
C       0.7721   0.6099  0.33552     C
O       0.7747   0.2899   0.2134     O
H       0.7953    0.675   0.9744     H
O        0.806   0.3032  0.75961     O
C       0.8087   0.7054   0.6384     C
C       0.8097   0.4406  0.77055     C
H        0.811   0.3099   0.9945     H
O       0.8148   0.5858   0.2902     O
C       0.8179    0.082   0.6735     C
O        0.839   0.1253  0.16112     O
H        0.843   0.1374    0.494     H
C       0.8431   0.7259  0.79486     C
C       0.8471   0.0946   0.5765     C
H       0.8548   0.8203   0.8051     H
H       0.8712   0.0083   0.6768     H
H       0.8729   0.9801   0.0718     H
C       0.8744   0.2417  0.19161     C
C       0.8876   0.3864  0.99635     C
C       0.8889   0.8808   0.9966     C
H       0.8922   0.1683    0.685     H
C       0.8959   0.3003  0.89641     C
C       0.8985   0.5279  0.65418     C
H       0.8992   0.4631    0.077     H
H       0.9039   0.4376   0.6569     H
H       0.9096   0.0275   0.5788     H
H       0.9128   0.1849   0.5904     H
H       0.9221   0.3441   0.8656     H
C        0.924   0.9881  0.04262     C
C       0.9404   0.4788  0.04596     C
C       0.9457   0.4046  0.94951     C
H       0.9471    0.824   0.9235     H
H       0.9511    0.228   0.8999     H
C       0.9534   0.5263  0.78668     C
C       0.9581   0.7411   0.6589     C
H       0.9615   0.5111   0.2099     H
C       0.9674   0.8944   0.9543     C
C       0.9688   0.6672  0.79752     C
H       0.9848   0.1692   0.3341     H
N       0.9853   0.3688  0.33176     N
