data_I
_chemical_name_common  '/Users/gianmarcoterrones/Research/MOFs/MOF_structures/water_stability_work_extra_structs/cleaned_from_CCDC/KADLIN'
_cell_length_a  7.66800
_cell_length_b 13.62400
_cell_length_c 21.30900
_cell_angle_alpha 90.00000
_cell_angle_beta  93.59900
_cell_angle_gamma 90.00000
_space_group_name_H-M_alt      'P 1'


loop_
_space_group_symop_operation_xyz
  'x, y, z' 

loop_
_atom_site_label
_atom_site_fract_x
_atom_site_fract_y
_atom_site_fract_z
_atom_site_type_symbol
H       0.0091   0.6451   0.8549     H
H       0.0091   0.8549   0.3549     H
O      0.01765   0.0287  0.10318     O
O      0.01765   0.4713  0.60318     O
O      0.03832  0.65468  0.54497     O
O      0.03832  0.84532  0.04497     O
N       0.0658  0.55715  0.92539     N
N       0.0658  0.94285  0.42539     N
C       0.0938  0.59867  0.87032     C
C       0.0938  0.90133  0.37032     C
Cu      0.1168  0.03945  0.96571    Cu
H       0.1168   0.0579   0.2185     H
H       0.1168   0.4421   0.7185     H
Cu      0.1168  0.46055  0.46571    Cu
H       0.1364   0.6765   0.0812     H
H       0.1364   0.8235   0.5812     H
C       0.1436  0.08511  0.09529     C
C       0.1436  0.41489  0.59529     C
H       0.1462   0.1772   0.8526     H
H       0.1462   0.3228   0.3526     H
H       0.1726   0.0379   0.4863     H
H       0.1726   0.4621   0.9863     H
C       0.1748  0.11817  0.21147     C
C       0.1748  0.38183  0.71147     C
C       0.1838  0.65395  0.52028     C
C       0.1838  0.84605  0.02028     C
C       0.1865  0.00751  0.44683     C
C       0.1865  0.49249  0.94683     C
H       0.2033   0.1584   0.3033     H
H       0.2033   0.3416   0.8033     H
C        0.208  0.14626   0.1506     C
C        0.208  0.35374   0.6506     C
O      0.21582  0.09844  0.04422     O
O      0.21582  0.40156  0.54422     O
C       0.2265  0.17794  0.26183     C
C       0.2265  0.32206  0.76183     C
N       0.2273  0.58246  0.83436     N
N       0.2273  0.91754  0.33436     N
O      0.23888  0.58553  0.48663     O
O      0.23888  0.91447  0.98663     O
C       0.2519  0.67957  0.06754     C
C       0.2519  0.82043  0.56754     C
C       0.2579  0.14692  0.85322     C
C       0.2579  0.35308  0.35322     C
C       0.2931  0.23433  0.14077     C
C       0.2931  0.26567  0.64077     C
H       0.2968   0.1903   0.4863     H
H       0.2968   0.3097   0.9863     H
C       0.3023  0.74011  0.53259     C
C       0.3023  0.75989  0.03259     C
N       0.3044  0.08495  0.89994     N
N       0.3044  0.41505  0.39994     N
C       0.3122  0.23341  0.75235     C
C       0.3122  0.26659  0.25235     C
H       0.3165   0.2463   0.5993     H
H       0.3165   0.2537   0.0993     H
H       0.3304   0.5494   0.1057     H
H       0.3304   0.9506   0.6057     H
C       0.3312  0.03235  0.41404     C
C       0.3312  0.46765  0.91404     C
C       0.3427  0.51605  0.85678     C
C       0.3427  0.98395  0.35678     C
C       0.3441  0.20583  0.69132     C
C       0.3441  0.29417  0.19132     C
C        0.367  0.16837  0.80575     C
C        0.367  0.33163  0.30575     C
C       0.3679  0.60431   0.0826     C
C       0.3679  0.89569   0.5826     C
H        0.392   0.6347   0.7215     H
H        0.392   0.8653   0.2215     H
H       0.4014   0.1454   0.6842     H
H       0.4014   0.3546   0.1842     H
C       0.4119   0.1873  0.47241     C
C       0.4119   0.3127  0.97241     C
N        0.422  0.55987  0.64352     N
N        0.422  0.94013  0.14352     N
H       0.4385   0.5008   0.8323     H
H       0.4385   0.9992   0.3323     H
C       0.4604   0.1078  0.43572     C
C       0.4604   0.3922  0.93572     C
C       0.4626  0.04412  0.89911     C
C       0.4626  0.45588  0.39911     C
C       0.4711   0.7386  0.51132     C
C       0.4711   0.7614  0.01132     C
C       0.4712  0.62186  0.68998     C
C       0.4712  0.87814  0.18998     C
H       0.4944   0.1861   0.0145     H
H       0.4944   0.3139   0.5145     H
H       0.4953   0.5003   0.4321     H
H       0.4953   0.9997   0.9321     H
H       0.5047   0.0003   0.0679     H
H       0.5047   0.4997   0.5679     H
H       0.5056   0.6861   0.4855     H
H       0.5056   0.8139   0.9855     H
C       0.5288  0.12186  0.81002     C
C       0.5288  0.37814  0.31002     C
C       0.5289   0.2386  0.98868     C
C       0.5289   0.2614  0.48868     C
C       0.5374  0.54412  0.60089     C
C       0.5374  0.95588  0.10089     C
C       0.5396   0.6078  0.06428     C
C       0.5396   0.8922  0.56428     C
H       0.5615   0.0008   0.6677     H
H       0.5615   0.4992   0.1677     H
N        0.578  0.05987  0.85648     N
N        0.578  0.44013  0.35648     N
C       0.5881   0.6873  0.02759     C
C       0.5881   0.8127  0.52759     C
H       0.5986   0.6454   0.8158     H
H       0.5986   0.8546   0.3158     H
H        0.608   0.1347   0.7785     H
H        0.608   0.3653   0.2785     H
C       0.6321  0.10431   0.4174     C
C       0.6321  0.39569   0.9174     C
C        0.633  0.66837  0.69425     C
C        0.633  0.83163  0.19425     C
C       0.6559  0.70583  0.80868     C
C       0.6559  0.79417  0.30868     C
C       0.6573  0.01605  0.64322     C
C       0.6573  0.48395  0.14322     C
C       0.6688  0.53235  0.08596     C
C       0.6688  0.96765  0.58596     C
H       0.6696   0.0494   0.3943     H
H       0.6696   0.4506   0.8943     H
H       0.6835   0.7463   0.9007     H
H       0.6835   0.7537   0.4007     H
C       0.6878  0.73341  0.74765     C
C       0.6878  0.76659  0.24765     C
N       0.6956  0.58495  0.60006     N
N       0.6956  0.91505  0.10006     N
C       0.6977  0.24011  0.96741     C
C       0.6977  0.25989  0.46741     C
H       0.7032   0.6903   0.0137     H
H       0.7032   0.8097   0.5137     H
C       0.7069  0.73433  0.35923     C
C       0.7069  0.76567  0.85923     C
C       0.7421  0.64692  0.64678     C
C       0.7421  0.85308  0.14678     C
C       0.7481  0.17957  0.43246     C
C       0.7481  0.32043  0.93246     C
O      0.76112  0.08553  0.01337     O
O      0.76112  0.41447  0.51337     O
N       0.7727  0.08246  0.66564     N
N       0.7727  0.41754  0.16564     N
C       0.7735  0.67794  0.23817     C
C       0.7735  0.82206  0.73817     C
O      0.78418  0.59844  0.45578     O
O      0.78418  0.90156  0.95578     O
C        0.792  0.64626   0.3494     C
C        0.792  0.85374   0.8494     C
H       0.7967   0.6584   0.1967     H
H       0.7967   0.8416   0.6967     H
C       0.8135  0.50751  0.05317     C
C       0.8135  0.99249  0.55317     C
C       0.8162  0.15395  0.97972     C
C       0.8162  0.34605  0.47972     C
C       0.8252  0.61817  0.28853     C
C       0.8252  0.88183  0.78853     C
H       0.8274   0.5379   0.0137     H
H       0.8274   0.9621   0.5137     H
H       0.8538   0.6772   0.6474     H
H       0.8538   0.8228   0.1474     H
C       0.8564  0.58511  0.40471     C
C       0.8564  0.91489  0.90471     C
H       0.8636   0.1765   0.4188     H
H       0.8636   0.3235   0.9188     H
Cu      0.8832  0.53945  0.53429    Cu
H       0.8832   0.5579   0.2815     H
H       0.8832   0.9421   0.7815     H
Cu      0.8832  0.96055  0.03429    Cu
C       0.9062  0.09867  0.62968     C
C       0.9062  0.40133  0.12968     C
N       0.9342  0.05715  0.57461     N
N       0.9342  0.44285  0.07461     N
O      0.96168  0.15468  0.95503     O
O      0.96168  0.34532  0.45503     O
O      0.98235   0.5287  0.39682     O
O      0.98235   0.9713  0.89682     O
H       0.9909   0.1451   0.6451     H
H       0.9909   0.3549   0.1451     H
