data_I
_chemical_name_common  '/Users/gianmarcoterrones/Research/MOFs/MOF_structures/water_stability_work_extra_structs/cleaned_from_CoRE/KAMPOG_clean'
_cell_length_a  9.04100
_cell_length_b 17.91430
_cell_length_c 18.85130
_cell_angle_alpha 102.09100
_cell_angle_beta  102.34800
_cell_angle_gamma 102.26900
_space_group_name_H-M_alt      'P 1'


loop_
_space_group_symop_operation_xyz
  'x, y, z' 

loop_
_atom_site_label
_atom_site_fract_x
_atom_site_fract_y
_atom_site_fract_z
_atom_site_type_symbol
O       0.0014   0.7065   0.5074     O
C       0.0055   0.4619   0.0549     C
C       0.0071   0.7055   0.2023     C
H       0.0081   0.4361   0.0942     H
H       0.0279   0.4004   0.6811     H
C       0.0437   0.4325    0.513     C
C       0.0557   0.6744   0.2608     C
C       0.0576   0.3778   0.7215     C
Br      0.0785   0.1758  0.63906    Br
H       0.0826   0.7405   0.1879     H
C       0.0918   0.3598   0.5242     C
C       0.0952   0.5736   0.5384     C
H        0.096   0.9888   0.3625     H
C       0.0985    0.576   0.0149     C
C       0.1066   0.5369   0.0693     C
H        0.121   0.9427   0.5002     H
H       0.1272   0.8982   0.2605     H
O       0.1365   0.1167   0.4562     O
C       0.1393   0.5063   0.5498     C
C       0.1458   0.3126    0.835     C
C       0.1589   0.0073    0.332     C
H       0.1617   0.6246   0.5664     H
C       0.1767   0.9532    0.271     C
H       0.1768   0.8452   0.5648     H
H       0.1771   0.0343   0.5462     H
H       0.1772    0.291   0.8759     H
H       0.1811   0.5606   0.1171     H
H       0.1874   0.6841   0.4042     H
O       0.1884   0.6929    0.982     O
H       0.1969   0.8066   0.6754     H
C       0.1988   0.8839   0.6114     C
C       0.1991    0.658    0.031     C
Cd     0.19937  0.23567  0.54514    Cd
C       0.2054   0.9834   0.5408     C
C       0.2113   0.3973    0.761     C
C       0.2123   0.8611   0.6769     C
N       0.2166   0.9603   0.6127     N
C       0.2191   0.1437   0.4164     C
O       0.2201   0.3679    0.566     O
C        0.223   0.6967   0.3053     C
C       0.2313   0.0865   0.3481     C
O       0.2319    0.849   0.1531     O
H       0.2376    0.512   0.5838     H
C       0.2481   0.0156   0.6782     C
C       0.2481   0.9169   0.7453     C
N       0.2565   0.3621    0.814     N
H       0.2598   0.0696   0.6783     H
C       0.2634    0.995   0.7445     C
C       0.2645   0.9796   0.2272     C
C       0.2667   0.6982   0.3798     C
C       0.2702   0.8949   0.8176     C
H       0.2791   0.7835   0.7765     H
H       0.2794    0.998   0.8833     H
C        0.284   0.8216   0.8211     C
H       0.2848   0.0347   0.7904     H
H       0.2866   0.4363   0.7507     H
C       0.2867   0.9458   0.8828     C
O       0.2905     0.69   0.0946     O
O       0.2921    0.216   0.4316     O
H       0.2932   0.8887   0.4402     H
C       0.2934   0.9227   0.1642     C
C        0.306   0.8024   0.8884     C
H       0.3106   0.7499   0.8881     H
C        0.315   0.9246   0.9516     C
N       0.3201   0.8514   0.9533     N
H       0.3212   0.7165   0.2205     H
C        0.324   0.1129   0.3046     C
H       0.3306   0.9634   0.9974     H
Br      0.3376   0.1752   0.9087    Br
C       0.3402   0.0606   0.2451     C
C       0.3441   0.7167   0.2721     C
C       0.3578   0.9918   0.5197     C
Cd     0.36329  0.81231  0.06422    Cd
O       0.3749   0.9464    0.126     O
H       0.3767   0.1676   0.3161     H
C       0.3779   0.9347   0.4653     C
H       0.4039   0.0793    0.215     H
H       0.4186   0.2485   0.7071     H
C       0.4218   0.7195   0.4205     C
C       0.4256   0.3822   0.8568     C
H       0.4475    0.722   0.4726     H
H       0.4516   0.3332   0.8652     H
H       0.4595   0.3662   0.9955     H
N       0.4636   0.2633   0.6125     N
C       0.4637   0.4425    0.932     C
C       0.4755   0.4206   0.9966     C
H       0.4758      0.1   0.5923     H
H       0.4823    0.539   0.8904     H
C       0.4853   0.0586   0.5543     C
C       0.4892   0.5228   0.9356     C
H        0.492   0.4033   0.8261     H
C       0.4992    0.737   0.3156     C
C       0.5008    0.263   0.6844     C
H        0.508   0.5967   0.1739     H
C       0.5108   0.4772   0.0644     C
C       0.5147   0.9414   0.4457     C
H       0.5177    0.461   0.1096     H
H       0.5242      0.9   0.4077     H
C       0.5245   0.5794   0.0034     C
C       0.5363   0.5575    0.068     C
N       0.5364   0.7367   0.3875     N
H       0.5405   0.6338   0.0045     H
H       0.5484   0.6668   0.1348     H
H       0.5525    0.278   0.5274     H
C       0.5744   0.6178   0.1432     C
C       0.5782   0.2805   0.5795     C
H       0.5814   0.7515   0.2929     H
H       0.5961   0.9207    0.785     H
C       0.6221   0.0653   0.5347     C
H       0.6233   0.8324   0.6839     H
O       0.6251   0.0536    0.874     O
Cd     0.63671  0.18769  0.93578    Cd
C       0.6422   0.0082   0.4803     C
Cl       0.647   0.8246   0.1027    Cl
C       0.6559   0.2833   0.7279     C
C       0.6598   0.9394   0.7549     C
H       0.6694   0.0366   0.0026     H
C        0.676   0.8871   0.6954     C
H       0.6788   0.2835   0.7795     H
N       0.6799   0.1486   0.0467     N
C        0.685   0.0754   0.0484     C
H       0.6894   0.2501   0.1119     H
C        0.694   0.1976   0.1116     C
C       0.7066   0.0773   0.8358     C
H       0.7068   0.1113   0.5598     H
O       0.7079    0.784   0.5684     O
O       0.7095     0.31   0.9054     O
C       0.7133   0.0542   0.1172     C
H       0.7134   0.5637   0.2493     H
H       0.7152   0.9653   0.2096     H
C        0.716   0.1784   0.1789     C
H       0.7206    0.002   0.1167     H
H       0.7209   0.2165   0.2235     H
C       0.7298   0.1051   0.1824     C
C       0.7333   0.3018   0.6202     C
C       0.7355   0.0204   0.7728     C
C       0.7366    0.005   0.2555     C
H       0.7402   0.9304   0.3217     H
N       0.7435   0.6379    0.186     N
C       0.7519   0.0831   0.2547     C
C       0.7519   0.9844   0.3218     C
H       0.7624    0.488   0.4162     H
O       0.7681    0.151   0.8469     O
C       0.7687   0.9135   0.6519     C
C        0.777   0.3033   0.6947     C
O       0.7799   0.6321    0.434     O
C       0.7809   0.8563   0.5836     C
N       0.7834   0.0397   0.3873     N
C       0.7877   0.1389   0.3231     C
C       0.7887   0.6027    0.239     C
C       0.7946   0.0166   0.4592     C
Cd     0.80063  0.76433  0.45486    Cd
C       0.8009    0.342    0.969     C
C       0.8012   0.1161   0.3886     C
H       0.8031   0.1934   0.3246     H
O       0.8116   0.3071    0.018     O
H       0.8126   0.3159   0.5958     H
H       0.8189   0.4394   0.8829     H
H       0.8228    0.709   0.1241     H
H       0.8229   0.9657   0.4538     H
H       0.8232   0.1548   0.4352     H
C       0.8233   0.0468    0.729     C
H       0.8383   0.3754   0.4336     H
C       0.8411   0.9927    0.668     C
C       0.8542   0.6874    0.165     C
C       0.8607   0.4937   0.4502     C
O       0.8635   0.8833   0.5438     O
H       0.8728   0.1018   0.7395     H
H        0.879   0.0573   0.4998     H
C       0.8934   0.4631   0.9307     C
C       0.9015    0.424   0.9851     C
H        0.904   0.0112   0.6375     H
C       0.9048   0.4264   0.4616     C
C       0.9082   0.6402   0.4758     C
Cl      0.9127   0.8185   0.3644    Cl
H       0.9174   0.2595   0.8121     H
C       0.9424   0.6222   0.2785     C
C       0.9443   0.3256   0.7392     C
C       0.9563   0.5675    0.487     C
H       0.9721   0.5996   0.3189     H
H       0.9919   0.5639   0.9058     H
C       0.9929   0.2945   0.7977     C
C       0.9945   0.5381   0.9451     C
O       0.9986   0.2935   0.4926     O
