data_I
_chemical_name_common  '/Users/gianmarcoterrones/Research/MOFs/MOF_structures/water_stability_work_extra_structs/cleaned_from_CCDC/KINJOI'
_cell_length_a  9.73600
_cell_length_b 15.04500
_cell_length_c 20.01700
_cell_angle_alpha 90.00000
_cell_angle_beta  90.00000
_cell_angle_gamma 94.60400
_space_group_name_H-M_alt      'P 1'


loop_
_space_group_symop_operation_xyz
  'x, y, z' 

loop_
_atom_site_label
_atom_site_fract_x
_atom_site_fract_y
_atom_site_fract_z
_atom_site_type_symbol
H       0.0113    0.337   0.0018     H
N       0.0137   0.2672   0.2814     N
N       0.0235   0.5396   0.1598     N
C       0.0281   0.1062   0.0065     C
C       0.0284   0.0441   0.3846     C
C       0.0303   0.1178   0.9363     C
C       0.0365   0.9521   0.2996     C
O       0.0377   0.2739   0.5803     O
H       0.0403    0.777    0.846     H
H       0.0445   0.0922   0.4135     H
H       0.0475   0.8866   0.9662     H
N       0.0589   0.0844   0.6609     N
H       0.0615   0.6378   0.2295     H
H       0.0617   0.9278   0.2591     H
H       0.0628   0.4845   0.7182     H
C       0.0658   0.0274   0.6076     C
O       0.0694   0.8401   0.1674     O
H       0.0743   0.4798   0.0697     H
C       0.0808   0.7122   0.3972     C
C       0.0829   0.8506   0.1056     C
C       0.0873   0.7942   0.7489     C
C       0.0878   0.6137   0.1892     C
N       0.0906    0.311   0.2387     N
C       0.0919   0.5147    0.815     C
C       0.0939   0.5253   0.1006     C
N       0.0943   0.0303   0.3253     N
H       0.0972   0.7218   0.5416     H
C       0.1012   0.8076   0.8166     C
C       0.1031   0.3259   0.9961     C
O       0.1089   0.7132   0.3363     O
C       0.1172   0.5195   0.7478     C
H       0.1257   0.0362   0.5716     H
H       0.1371   0.3362   0.8926     H
O       0.1553   0.2412   0.7711     O
C       0.1556   0.0822   0.0286     C
H       0.1571   0.0689      0.2     H
H       0.1585   0.5589   0.9057     H
H       0.1627   0.3442   0.3663     H
H       0.1652   0.9334   0.4717     H
C       0.1657   0.1003   0.9145     C
H       0.1679    0.831     0.66     H
Fe      0.1737   0.2044  0.98033    Fe
C       0.1739    0.325   0.9343     C
H       0.1748   0.3046   0.0927     H
C       0.1749   0.5643   0.8601     C
C       0.1756   0.7075   0.5188     C
Cd     0.17682  0.22161  0.66033    Cd
C       0.1775   0.8401   0.7058     C
H       0.1794   0.0701   0.0725     H
C       0.1881   0.6961   0.4475     C
N       0.1924   0.6461   0.1524     N
C       0.1926   0.3713    0.269     C
O       0.1927   0.8354   0.0754     O
C       0.1954    0.307   0.0473     C
C       0.1963   0.5912   0.0973     C
H       0.1972   0.1022   0.8706     H
C       0.2038   0.0877   0.2968     C
C       0.2058   0.8664   0.8413     C
H       0.2157   0.8752    0.887     H
C       0.2172      0.1   0.2295     C
C       0.2179   0.3782   0.3365     C
C       0.2253   0.5773   0.7243     C
H       0.2397   0.4015   0.5629     H
H       0.2426   0.5817   0.6787     H
C        0.243   0.0796   0.9715     C
C        0.257   0.9204   0.4715     C
H       0.2574   0.4183   0.1787     H
H       0.2603   0.5985   0.0629     H
C       0.2747   0.4227   0.2243     C
C       0.2821   0.6218   0.8365     C
C       0.2828      0.9   0.7295     C
H       0.2843   0.1248    0.387     H
C       0.2942   0.1336   0.3413     C
C       0.2962   0.9123   0.7968     C
H       0.3028   0.8978   0.3706     H
C       0.3037   0.4088   0.5973     C
C       0.3046    0.693   0.5473     C
O       0.3073   0.1646   0.5754     O
C       0.3074   0.6287    0.769     C
N       0.3076   0.3539   0.6524     N
C       0.3119   0.3039   0.9475     C
H       0.3206   0.9299   0.5725     H
C       0.3225   0.1599   0.2058     C
Cd     0.32318  0.77839  0.16033    Cd
C       0.3244   0.2925   0.0188     C
C       0.3251   0.4357   0.3601     C
H       0.3252   0.6954   0.5927     H
C       0.3261    0.675   0.4343     C
Fe      0.3263   0.7956  0.48033    Fe
H       0.3321    0.169     0.16     H
C       0.3343   0.8997   0.4145     C
H       0.3348   0.0666   0.9717     H
H       0.3373   0.6558   0.8663     H
H       0.3415   0.4411   0.4057     H
H       0.3429   0.9311      0.7     H
C       0.3444   0.9178   0.5286     C
O       0.3447   0.7588   0.2711     O
H       0.3629   0.6638   0.3926     H
H       0.3743   0.9638   0.0716     H
C       0.3828   0.4805   0.2478     C
O       0.3911   0.2868   0.8363     O
C       0.3969   0.6741   0.4961     C
C       0.3988   0.1924   0.3166     C
H       0.4028   0.2782   0.0416     H
N       0.4057   0.9697   0.8253     N
C       0.4061   0.4747   0.6006     C
C       0.4081   0.4853    0.315     C
N       0.4094    0.689   0.7387     N
C       0.4122   0.3863   0.6892     C
C       0.4127   0.2058   0.2489     C
C       0.4171   0.1494   0.6056     C
C       0.4192   0.2878   0.8972     C
H       0.4257   0.5202   0.5697     H
O       0.4306   0.1599   0.6674     O
C       0.4342   0.9726   0.1076     C
H       0.4372   0.5155   0.2182     H
H       0.4383   0.0722   0.7591     H
H       0.4385   0.3622   0.7295     H
N       0.4411   0.9156   0.1609     N
H       0.4525   0.1134   0.4662     H
H       0.4555   0.9078   0.9135     H
H       0.4597    0.223    0.346     H
O       0.4623   0.7261   0.0803     O
C       0.4635   0.0479   0.7996     C
C       0.4697   0.8822   0.4363     C
C       0.4716   0.9559   0.8846     C
C       0.4719   0.8938   0.5065     C
N       0.4765   0.4604   0.6598     N
N       0.4863   0.7328   0.7814     N
H       0.4887    0.663   0.5018     H
H       0.5113    0.337   0.4982     H
N       0.5137   0.2672   0.2186     N
N       0.5235   0.5396   0.3402     N
C       0.5281   0.1062   0.4935     C
C       0.5284   0.0441   0.1154     C
C       0.5303   0.1178   0.5637     C
C       0.5365   0.9521   0.2004     C
O       0.5377   0.2739   0.9197     O
H       0.5403    0.777    0.654     H
H       0.5445   0.0922   0.0865     H
H       0.5475   0.8866   0.5338     H
N       0.5589   0.0844   0.8391     N
H       0.5615   0.6378   0.2705     H
H       0.5617   0.9278   0.2409     H
H       0.5628   0.4845   0.7818     H
C       0.5658   0.0274   0.8924     C
O       0.5694   0.8401   0.3326     O
H       0.5743   0.4798   0.4303     H
C       0.5808   0.7122   0.1028     C
C       0.5829   0.8506   0.3944     C
C       0.5873   0.7942   0.7511     C
C       0.5878   0.6137   0.3108     C
N       0.5906    0.311   0.2613     N
C       0.5919   0.5147    0.685     C
C       0.5939   0.5253   0.3994     C
N       0.5943   0.0303   0.1747     N
H       0.5972   0.7218   0.9584     H
C       0.6012   0.8076   0.6834     C
C       0.6031   0.3259   0.5039     C
O       0.6089   0.7132   0.1637     O
C       0.6172   0.5195   0.7522     C
H       0.6257   0.0362   0.9284     H
H       0.6371   0.3362   0.6074     H
O       0.6553   0.2412   0.7289     O
C       0.6556   0.0822   0.4714     C
H       0.6571   0.0689      0.3     H
H       0.6585   0.5589   0.5943     H
H       0.6627   0.3442   0.1337     H
H       0.6652   0.9334   0.0283     H
C       0.6657   0.1003   0.5855     C
H       0.6679    0.831     0.84     H
Fe      0.6737   0.2044  0.51967    Fe
C       0.6739    0.325   0.5657     C
H       0.6748   0.3046   0.4073     H
C       0.6749   0.5643   0.6399     C
C       0.6756   0.7075   0.9812     C
Cd     0.67682  0.22161  0.83967    Cd
C       0.6775   0.8401   0.7942     C
H       0.6794   0.0701   0.4275     H
C       0.6881   0.6961   0.0525     C
N       0.6924   0.6461   0.3476     N
C       0.6926   0.3713    0.231     C
O       0.6927   0.8354   0.4246     O
C       0.6954    0.307   0.4527     C
C       0.6963   0.5912   0.4027     C
H       0.6972   0.1022   0.6294     H
C       0.7038   0.0877   0.2032     C
C       0.7058   0.8664   0.6587     C
H       0.7157   0.8752    0.613     H
C       0.7172      0.1   0.2705     C
C       0.7179   0.3782   0.1635     C
C       0.7253   0.5773   0.7757     C
H       0.7397   0.4015   0.9371     H
H       0.7426   0.5817   0.8213     H
C        0.743   0.0796   0.5285     C
C        0.757   0.9204   0.0285     C
H       0.7574   0.4183   0.3213     H
H       0.7603   0.5985   0.4371     H
C       0.7747   0.4227   0.2757     C
C       0.7821   0.6218   0.6635     C
C       0.7828      0.9   0.7705     C
H       0.7843   0.1248    0.113     H
C       0.7942   0.1336   0.1587     C
C       0.7962   0.9123   0.7032     C
H       0.8028   0.8978   0.1294     H
C       0.8037   0.4088   0.9027     C
C       0.8046    0.693   0.9527     C
O       0.8073   0.1646   0.9246     O
C       0.8074   0.6287    0.731     C
N       0.8076   0.3539   0.8476     N
C       0.8119   0.3039   0.5525     C
H       0.8206   0.9299   0.9275     H
C       0.8225   0.1599   0.2942     C
Cd     0.82318  0.77839  0.33967    Cd
C       0.8244   0.2925   0.4812     C
C       0.8251   0.4357   0.1399     C
H       0.8252   0.6954   0.9073     H
C       0.8261    0.675   0.0657     C
Fe      0.8263   0.7956  0.01967    Fe
H       0.8321    0.169     0.34     H
C       0.8343   0.8997   0.0855     C
H       0.8348   0.0666   0.5283     H
H       0.8373   0.6558   0.6337     H
H       0.8415   0.4411   0.0943     H
H       0.8429   0.9311      0.8     H
C       0.8444   0.9178   0.9714     C
O       0.8447   0.7588   0.2289     O
H       0.8629   0.6638   0.1074     H
H       0.8743   0.9638   0.4284     H
C       0.8828   0.4805   0.2522     C
O       0.8911   0.2868   0.6637     O
C       0.8969   0.6741   0.0039     C
C       0.8988   0.1924   0.1834     C
H       0.9028   0.2782   0.4584     H
N       0.9057   0.9697   0.6747     N
C       0.9061   0.4747   0.8994     C
C       0.9081   0.4853    0.185     C
N       0.9094    0.689   0.7613     N
C       0.9122   0.3863   0.8108     C
C       0.9127   0.2058   0.2511     C
C       0.9171   0.1494   0.8944     C
C       0.9192   0.2878   0.6028     C
H       0.9257   0.5202   0.9303     H
O       0.9306   0.1599   0.8326     O
C       0.9342   0.9726   0.3924     C
H       0.9372   0.5155   0.2818     H
H       0.9383   0.0722   0.7409     H
H       0.9385   0.3622   0.7705     H
N       0.9411   0.9156   0.3391     N
H       0.9525   0.1134   0.0338     H
H       0.9555   0.9078   0.5865     H
H       0.9597    0.223    0.154     H
O       0.9623   0.7261   0.4197     O
C       0.9635   0.0479   0.7004     C
C       0.9697   0.8822   0.0637     C
C       0.9716   0.9559   0.6154     C
C       0.9719   0.8938   0.9935     C
N       0.9765   0.4604   0.8402     N
N       0.9863   0.7328   0.7186     N
H       0.9887    0.663   0.9982     H
