data_I
_chemical_name_common  '/Users/gianmarcoterrones/Research/MOFs/MOF_structures/water_stability_work_extra_structs/cleaned_from_CCDC/KINKEZ'
_cell_length_a  8.05500
_cell_length_b 17.81900
_cell_length_c 18.97600
_cell_angle_alpha 90.00000
_cell_angle_beta  100.33600
_cell_angle_gamma 90.00000
_space_group_name_H-M_alt      'P 1'


loop_
_space_group_symop_operation_xyz
  'x, y, z' 

loop_
_atom_site_label
_atom_site_fract_x
_atom_site_fract_y
_atom_site_fract_z
_atom_site_type_symbol
C       0.0171   0.7129   0.9884     C
C       0.0171   0.7871   0.4884     C
C       0.0186   0.0417   0.3053     C
C       0.0186   0.4583   0.8053     C
H       0.0202   0.6737   0.9563     H
H       0.0202   0.8263   0.4563     H
C       0.0283   0.2475    0.195     C
C       0.0283   0.2525    0.695     C
H       0.0293   0.6375   0.3167     H
H       0.0293   0.8625   0.8167     H
N       0.0423   0.1804   0.9644     N
N       0.0423   0.3196   0.4644     N
O       0.0472  0.10354  0.33775     O
O       0.0472  0.39646  0.83775     O
C       0.0586   0.1707    0.199     C
C       0.0586   0.3293    0.699     C
C       0.0633   0.7205    0.585     C
C       0.0633   0.7795    0.085     C
C       0.0711   0.2232   0.0261     C
C       0.0711   0.2768   0.5261     C
H       0.0806   0.7349   0.8212     H
H       0.0806   0.7651   0.3212     H
H       0.0975   0.1124   0.8483     H
H       0.0975   0.3876   0.3483     H
N       0.1024   0.7148   0.0582     N
N       0.1024   0.7852   0.5582     N
H       0.1032   0.7046   0.6317     H
H       0.1032   0.7954   0.1317     H
O        0.113    0.504  0.19567     O
O        0.113    0.996  0.69567     O
C       0.1147   0.1085   0.9558     C
C       0.1147   0.3915   0.4558     C
H       0.1165    0.596   0.7905     H
H       0.1165    0.904   0.2905     H
C       0.1336   0.0831   0.8887     C
C       0.1336   0.4169   0.3887     C
H       0.1384   0.1506   0.7106     H
H       0.1384   0.3494   0.2106     H
H       0.1387   0.2103   0.0694     H
H       0.1387   0.2897   0.5694     H
C       0.1525   0.0119   0.2662     C
C       0.1525   0.4881   0.7662     C
H       0.1533   0.0813   0.0617     H
H       0.1533   0.4187   0.5617     H
C       0.1584    0.202   0.7149     C
C       0.1584    0.298   0.2149     C
C       0.1686   0.0646   0.0168     C
C       0.1686   0.4354   0.5168     C
C       0.1819   0.5648   0.7673     C
C       0.1819   0.9352   0.2673     C
Cd     0.19942  0.61428 0.126024    Cd
Cd     0.19942  0.88572 0.626024    Cd
C       0.2068   0.0135   0.8823     C
C       0.2068   0.4865   0.3823     C
H        0.218   0.5044   0.3373     H
H        0.218   0.9956   0.8373     H
C        0.219   0.1429   0.2263     C
C        0.219   0.3571   0.7263     C
N       0.2291   0.5294   0.0396     N
N       0.2291   0.9706   0.5396     N
C       0.2444   0.5037   0.5099     C
C       0.2444   0.9963   0.0099     C
H       0.2456   0.5782   0.9434     H
H       0.2456   0.9218   0.4434     H
C       0.2488   0.0595   0.2302     C
C       0.2488   0.4405   0.7302     C
H       0.2614   0.0609   0.6043     H
H       0.2614   0.4391   0.1043     H
C       0.2623   0.5351   0.9714     C
C       0.2623   0.9649   0.4714     C
C       0.2633   0.5297   0.4431     C
C       0.2633   0.9703   0.9431     C
C       0.2702   0.0408   0.5599     C
C       0.2702   0.4592   0.0599     C
H       0.2832   0.5325   0.5503     H
H       0.2832   0.9675   0.0503     H
C       0.3077   0.5964   0.7343     C
C       0.3077   0.9036   0.2343     C
H       0.3152   0.1757   0.4056     H
H       0.3152   0.3243   0.9056     H
C        0.321   0.2292   0.7416     C
C        0.321   0.2708   0.2416     C
C       0.3224   0.0304   0.4501     C
C       0.3224   0.4696   0.9501     C
N       0.3264   0.0785   0.5073     N
N       0.3264   0.4215   0.0073     N
H        0.329   0.6478   0.7369     H
H        0.329   0.8522   0.2369     H
N        0.338   0.6013   0.4317     N
N        0.338   0.8987   0.9317     N
O       0.3508    0.707   0.2199     O
O       0.3508    0.793   0.7199     O
C       0.3531    0.194   0.2483     C
C       0.3531    0.306   0.7483     C
H       0.3542   0.0408   0.4063     H
H       0.3542   0.4592   0.9063     H
C       0.3718   0.0278   0.1958     C
C       0.3718   0.4722   0.6958     C
C       0.3734   0.1951   0.4485     C
C       0.3734   0.3049   0.9485     C
C       0.3906    0.154   0.5111     C
C       0.3906    0.346   0.0111     C
C       0.3997   0.5493   0.6976     C
C       0.3997   0.9507   0.1976     C
N       0.4027   0.6311   0.4908     N
N       0.4027   0.8689   0.9908     N
H       0.4089   0.1954   0.7551     H
H       0.4089   0.3046   0.2551     H
H       0.4094   0.7243    0.378     H
H       0.4094   0.7757    0.878     H
H       0.4356   0.0586   0.1714     H
H       0.4356   0.4414   0.6714     H
H       0.4386   0.2055   0.9096     H
H       0.4386   0.2945   0.4096     H
C       0.4457   0.2336   0.9514     C
C       0.4457   0.2664   0.4514     C
C       0.4612    0.745   0.4214     C
C       0.4612    0.755   0.9214     C
O       0.4711  0.61268  0.17261     O
O       0.4711  0.88732  0.67261     O
C       0.4716   0.1826   0.5764     C
C       0.4716   0.3174   0.0764     C
C       0.4722   0.7042   0.4844     C
C       0.4722   0.7958   0.9844     C
C       0.4773   0.6694   0.2138     C
C       0.4773   0.8306   0.7138     C
H       0.4809   0.1541   0.6179     H
H       0.4809   0.3459   0.1179     H
H       0.4809   0.5695   0.6739     H
H       0.4809   0.9305   0.1739     H
H       0.5191   0.0695   0.8261     H
H       0.5191   0.4305   0.3261     H
H       0.5191   0.6541   0.8821     H
H       0.5191   0.8459   0.3821     H
C       0.5227   0.1694   0.2862     C
C       0.5227   0.3306   0.7862     C
C       0.5278   0.2042   0.0156     C
C       0.5278   0.2958   0.5156     C
C       0.5284   0.6826   0.9236     C
C       0.5284   0.8174   0.4236     C
O       0.5289  0.11268  0.32739     O
O       0.5289  0.38732  0.82739     O
C       0.5388    0.245   0.0786     C
C       0.5388    0.255   0.5786     C
C       0.5543   0.7336   0.5486     C
C       0.5543   0.7664   0.0486     C
H       0.5614   0.7055   0.5904     H
H       0.5614   0.7945   0.0904     H
H       0.5644   0.5586   0.3286     H
H       0.5644   0.9414   0.8286     H
H       0.5906   0.2243    0.122     H
H       0.5906   0.2757    0.622     H
H       0.5911   0.6954   0.7449     H
H       0.5911   0.8046   0.2449     H
N       0.5973   0.1311   0.0092     N
N       0.5973   0.3689   0.5092     N
C       0.6003   0.0493   0.8024     C
C       0.6003   0.4507   0.3024     C
C       0.6094    0.654   0.9889     C
C       0.6094    0.846   0.4889     C
C       0.6266   0.6951   0.0515     C
C       0.6266   0.8049   0.5515     C
C       0.6282   0.5278   0.3042     C
C       0.6282   0.9722   0.8042     C
H       0.6458   0.5408   0.0937     H
H       0.6458   0.9592   0.5937     H
C       0.6469    0.694   0.2517     C
C       0.6469    0.806   0.7517     C
O       0.6492    0.207   0.2801     O
O       0.6492    0.293   0.7801     O
N        0.662   0.1013   0.0683     N
N        0.662   0.3987   0.5683     N
H        0.671   0.1478   0.7631     H
H        0.671   0.3522   0.2631     H
N       0.6736   0.5785   0.9927     N
N       0.6736   0.9215   0.4927     N
C       0.6776   0.5304   0.0499     C
C       0.6776   0.9696   0.5499     C
C        0.679   0.7292   0.7584     C
C        0.679   0.7708   0.2584     C
H       0.6848   0.6757   0.0944     H
H       0.6848   0.8243   0.5944     H
C       0.6923   0.0964   0.7657     C
C       0.6923   0.4036   0.2657     C
H       0.7168   0.0325   0.9497     H
H       0.7168   0.4675   0.4497     H
C       0.7298   0.5408   0.9401     C
C       0.7298   0.9592   0.4401     C
C       0.7367   0.0297   0.0569     C
C       0.7367   0.4703   0.5569     C
C       0.7377   0.0351   0.5286     C
C       0.7377   0.4649   0.0286     C
H       0.7386   0.5609   0.8957     H
H       0.7386   0.9391   0.3957     H
C       0.7512   0.5595   0.2698     C
C       0.7512   0.9405   0.7698     C
H       0.7544   0.0782   0.5566     H
H       0.7544   0.4218   0.0566     H
C       0.7556   0.0037   0.9901     C
C       0.7556   0.4963   0.4901     C
N       0.7709   0.0294   0.4604     N
N       0.7709   0.4706   0.9604     N
C        0.781   0.6429   0.2737     C
C        0.781   0.8571   0.7737     C
H        0.782   0.0044   0.1627     H
H        0.782   0.4956   0.6627     H
C       0.7932   0.5135   0.6177     C
C       0.7932   0.9865   0.1177     C
Cd     0.80058  0.11428 0.373976    Cd
Cd     0.80058  0.38572 0.873976    Cd
C       0.8181   0.0648   0.7327     C
C       0.8181   0.4352   0.2327     C
C       0.8314   0.5646   0.4832     C
C       0.8314   0.9354   0.9832     C
C       0.8416    0.702   0.7851     C
C       0.8416    0.798   0.2851     C
H       0.8467   0.5813   0.4383     H
H       0.8467   0.9187   0.9383     H
C       0.8475   0.5119   0.2338     C
C       0.8475   0.9881   0.7338     C
H       0.8613   0.7103   0.4306     H
H       0.8613   0.7897   0.9306     H
H       0.8616   0.6506   0.7894     H
H       0.8616   0.8494   0.2894     H
C       0.8664   0.5831   0.6113     C
C       0.8664   0.9169   0.1113     C
H       0.8835    0.096   0.7095     H
H       0.8835    0.404   0.2095     H
C       0.8853   0.6085   0.5442     C
C       0.8853   0.8915   0.0442     C
O        0.887    0.004  0.30433     O
O        0.887    0.496  0.80433     O
H       0.8968   0.2046   0.8683     H
H       0.8968   0.2954   0.3683     H
N       0.8976   0.2148   0.4418     N
N       0.8976   0.2852   0.9418     N
H       0.9025   0.6124   0.6517     H
H       0.9025   0.8876   0.1517     H
H       0.9194   0.2349   0.6788     H
H       0.9194   0.2651   0.1788     H
C       0.9289   0.7232   0.4739     C
C       0.9289   0.7768   0.9739     C
C       0.9367   0.2205    0.915     C
C       0.9367   0.2795    0.415     C
C       0.9414   0.6707    0.301     C
C       0.9414   0.8293    0.801     C
O       0.9528  0.60354  0.16225     O
O       0.9528  0.89646  0.66225     O
N       0.9577   0.6804   0.5356     N
N       0.9577   0.8196   0.0356     N
H       0.9707   0.1375   0.1833     H
H       0.9707   0.3625   0.6833     H
C       0.9717   0.7475    0.305     C
C       0.9717   0.7525    0.805     C
H       0.9798   0.1737   0.5437     H
H       0.9798   0.3263   0.0437     H
C       0.9814   0.5417   0.1947     C
C       0.9814   0.9583   0.6947     C
C       0.9829   0.2129   0.5116     C
C       0.9829   0.2871   0.0116     C
