data_I
_chemical_name_common  '/Users/gianmarcoterrones/Research/MOFs/MOF_structures/water_stability_work_extra_structs/cleaned_from_CCDC/KINKOJ'
_cell_length_a 11.85700
_cell_length_b 12.44800
_cell_length_c 22.21300
_cell_angle_alpha 101.99600
_cell_angle_beta  99.97700
_cell_angle_gamma 107.55900
_space_group_name_H-M_alt      'P 1'


loop_
_space_group_symop_operation_xyz
  'x, y, z' 

loop_
_atom_site_label
_atom_site_fract_x
_atom_site_fract_y
_atom_site_fract_z
_atom_site_type_symbol
O       0.0047   0.0522   0.8053     O
H       0.0089   0.1476   0.1775     H
C       0.0095   0.2362   0.4944     C
C       0.0135   0.2757   0.9779     C
C       0.0221   0.3171   0.5502     C
Cd     0.02771  0.57423  0.88858    Cd
H       0.0306   0.6962   0.0499     H
H       0.0336   0.5532   0.4098     H
N       0.0373   0.3104   0.0438     N
H       0.0374   0.2634   0.8019     H
C       0.0437   0.6081   0.4476     C
H       0.0622   0.1555   0.9194     H
C       0.0652    0.194   0.9606     C
C       0.0722   0.1154   0.7696     C
C       0.0729   0.1551   0.2108     C
C       0.0735    0.773   0.5609     C
N        0.074   0.0943   0.4491     N
H       0.0746   0.9101    0.372     H
H        0.076   0.3215   0.5872     H
C         0.08   0.2303   0.7768     C
O       0.0807   0.6191   0.1375     O
C       0.0808   0.0579   0.2289     C
H       0.0839   0.8286   0.5986     H
N       0.0872   0.1674   0.4989     N
C       0.1027   0.2515   0.0654     C
H       0.1034    0.991   0.9354     H
O       0.1046   0.7175   0.8451     O
H       0.1178   0.9827   0.7232     H
N       0.1233   0.1796   0.0168     N
C       0.1251   0.6162    0.503     C
C       0.1283   0.0616   0.7291     C
H       0.1311   0.2582   0.1083     H
O       0.1346   0.5576   0.8003     O
C       0.1369   0.9304   0.4087     C
C        0.141    0.698   0.5594     C
H       0.1537   0.3295   0.2306     H
C       0.1541   0.6654   0.8095     C
C       0.1553   0.2963   0.7445     C
C       0.1558   0.0287   0.4581     C
C       0.1603   0.2636   0.2422     C
H       0.1638   0.3744   0.7487     H
C       0.1648   0.0065   0.9717     C
H       0.1706    0.465   0.4039     H
C        0.175   0.0659   0.2789     C
C       0.1764   0.6177   0.1732     C
H       0.1781      0.0   0.2916     H
N       0.1838     0.55   0.9494     N
O       0.1863    0.523   0.1819     O
C        0.189   0.1021   0.0224     C
N       0.1949   0.5405   0.5003     N
H       0.1962   0.7032   0.5961     H
H       0.1969   0.7983   0.3801     H
C       0.2006    0.128   0.6977     C
H       0.2046   0.6239   0.0442     H
C       0.2056   0.4708   0.4458     C
H       0.2065   0.8285   0.1573     H
C       0.2091   0.8632   0.4134     C
H       0.2154   0.8694   0.9404     H
C       0.2157   0.2443   0.7068     C
C       0.2233   0.5729    0.014     C
H       0.2239   0.4462    0.881     H
H       0.2279   0.8918   0.8207     H
C       0.2317   0.9336   0.9748     C
C       0.2343   0.4756   0.9245     C
H       0.2389   0.0935   0.6704     H
C       0.2394   0.7359   0.7775     C
C       0.2499    0.059   0.5123     C
C       0.2574   0.2757   0.2904     C
C       0.2612   0.5202     0.55     C
C       0.2637   0.1752    0.309     C
H       0.2638   0.1247   0.5454     H
C       0.2642   0.8571   0.7922     C
C       0.2694   0.8345   0.1907     C
H       0.2695   0.5563   0.5924     H
C       0.2743    0.732   0.2067     C
C       0.2769   0.4133   0.4662     C
C       0.2792   0.1253    0.077     C
H       0.2875   0.6065   0.7298     H
C       0.2939   0.5091   0.0264     C
H       0.2952   0.1901   0.1112     H
O       0.2984   0.4155    0.672     O
H       0.2997   0.3596   0.4398     H
C          0.3   0.6861   0.7377     C
C          0.3   0.8932   0.4682     C
C       0.3004   0.3166   0.6731     C
N       0.3029   0.4479   0.9699     N
N       0.3119   0.4447   0.5316     N
C       0.3215   0.9546   0.0278     C
C       0.3227   0.9918   0.5169     C
H       0.3283   0.1825   0.3419     H
H       0.3303   0.5072   0.0666     H
H       0.3355   0.3346   0.8639     H
C       0.3432   0.9254    0.764     C
C       0.3449    0.051   0.0801     C
O        0.347   0.4856   0.3144     O
H       0.3508   0.0096   0.2116     H
C       0.3549   0.9427   0.2228     C
C       0.3561    0.391   0.3238     C
H       0.3592   0.0057   0.7731     H
C       0.3659   0.3662   0.9587     C
O       0.3662   0.2691   0.6469     O
C       0.3713    0.743   0.2563     C
C       0.3731   0.3162   0.8987     C
N       0.3743   0.8217   0.4768     N
H        0.375   0.7424   0.3868     H
H       0.3781   0.6763   0.2667     H
C         0.38   0.7556   0.7096     C
N       0.3833   0.8662   0.0188     N
H       0.3869    0.013   0.5528     H
C       0.3975   0.8733   0.7226     C
C       0.4005   0.7504     0.43     C
H       0.4047   0.0648   0.1169     H
H       0.4179   0.3747   0.0514     H
H       0.4202   0.7228   0.6828     H
C       0.4215   0.3399   0.0108     C
H        0.427   0.8472   0.5746     H
C       0.4289   0.8093   0.5342     C
C       0.4354   0.2393   0.8897     C
H       0.4417   0.2072   0.8492     H
N        0.447   0.8783   0.0684     N
C       0.4482   0.9498   0.2729     C
Cd     0.44874  0.41386  0.60484    Cd
O       0.4496    0.391   0.3624     O
C       0.4572   0.8518   0.2899     C
N       0.4675   0.6941   0.4547     N
H       0.4698   0.2938   0.4506     H
O       0.4707   0.9385   0.6903     O
H       0.4776    0.761   0.9636     H
H       0.4797   0.1413   0.6766     H
C       0.4848   0.2586   0.0021     C
C       0.4858    0.731   0.5199     C
C        0.488    0.211   0.9416     C
C        0.512    0.789   0.0584     C
C       0.5142    0.269   0.4801     C
C       0.5152   0.7414   0.9979     C
H       0.5203   0.8587   0.3234     H
H       0.5224    0.239   0.0364     H
O       0.5293   0.0615   0.3097     O
H       0.5302   0.7062   0.5494     H
N       0.5325   0.3059   0.5453     N
C       0.5428   0.1482   0.7101     C
O       0.5504    0.609   0.6376     O
Cd     0.55126  0.58614  0.39516    Cd
C       0.5518   0.0502   0.7271     C
N        0.553   0.1217   0.9316     N
H       0.5583   0.7928   0.1508     H
C       0.5646   0.7607   0.1103     C
C       0.5711   0.1907   0.4658     C
H        0.573   0.1528   0.4254     H
C       0.5785   0.6601   0.9892     C
H       0.5798   0.2772   0.3172     H
H       0.5821   0.6253   0.9486     H
H       0.5953   0.9352   0.8831     H
C       0.5995   0.2496     0.57     C
C       0.6025   0.1267   0.2774     C
H       0.6131    0.987   0.4472     H
N       0.6167   0.1338   0.9812     N
C         0.62   0.2444   0.2904     C
H       0.6219   0.3237   0.7333     H
H        0.625   0.2576   0.6132     H
N       0.6257   0.1783   0.5232     N
C       0.6269   0.6838   0.1013     C
C       0.6287    0.257   0.7437     C
O       0.6338   0.7309   0.3531     O
C       0.6341   0.6338   0.0413     C
H       0.6408   0.9943   0.2269     H
C       0.6439    0.609   0.6762     C
C       0.6451   0.0573   0.7772     C
H       0.6492   0.9904   0.7884     H
O        0.653   0.5144   0.6856     O
C       0.6551    0.949   0.9199     C
C       0.6568   0.0746    0.236     C
H       0.6645   0.6654   0.1361     H
H       0.6697   0.4928   0.9334     H
H       0.6717   0.8175   0.6581     H
C       0.6773   0.0082   0.4831     C
C       0.6785   0.0454   0.9722     C
N       0.6881   0.5553   0.4684     N
N       0.6971   0.5521   0.0301     N
C       0.6996   0.6834   0.3269     C
C          0.7   0.1068   0.5318     C
C          0.7   0.3139   0.2623     C
H       0.7003   0.6404   0.5602     H
O       0.7016   0.5845    0.328     O
H       0.7048   0.8099   0.8888     H
C       0.7061   0.4909   0.9736     C
H       0.7125   0.3935   0.2702     H
C       0.7208   0.8747    0.923     C
C       0.7231   0.5867   0.5338     C
C       0.7257    0.268   0.7933     C
H       0.7305   0.4437   0.4076     H
C       0.7306   0.1655   0.8093     C
C       0.7358   0.1429   0.2078     C
H       0.7362   0.8753   0.4546     H
C       0.7363   0.8248    0.691     C
C       0.7388   0.4798     0.45     C
C       0.7426   0.7243   0.7096     C
C       0.7501    0.941   0.4877     C
C       0.7606   0.2641   0.2225     C
H       0.7611   0.9065   0.3296     H
C       0.7657   0.5244   0.0755     C
C       0.7683   0.0664   0.0252     C
H       0.7721   0.1082   0.1793     H
H       0.7761   0.5538    0.119     H
C       0.7767   0.4271    0.986     C
C       0.7843   0.7557   0.2932     C
H       0.7846   0.1306   0.0596     H
C       0.7909   0.1368   0.5866     C
H       0.7935   0.1715   0.8427     H
C       0.7944   0.5292   0.5542     C
H       0.7954   0.3761   0.9558     H
C       0.7994    0.872   0.3023     C
H       0.8031   0.2017   0.6199     H
H       0.8038   0.2968   0.4039     H
N       0.8051   0.4595   0.4997     N
C        0.811   0.8979   0.9776     C
O       0.8137    0.477   0.8181     O
N       0.8162     0.45   0.0506     N
H       0.8219      0.0   0.7084     H
C       0.8236   0.3823   0.8268     C
C        0.825   0.9341   0.7211     C
H       0.8294    0.535   0.5961     H
C       0.8352   0.9935   0.0283     C
H       0.8362   0.6256   0.2513     H
C       0.8397   0.7364   0.7578     C
C       0.8442   0.9713   0.5419     C
C       0.8447   0.7037   0.2555     C
C       0.8459   0.3346   0.1905     C
H       0.8463   0.6705   0.7694     H
C        0.859    0.302   0.4406     C
C       0.8631   0.0696   0.5913     C
O       0.8654   0.4424   0.1997     O
H       0.8689   0.7418   0.8917     H
C       0.8717   0.9384   0.2709     C
C       0.8749   0.3838    0.497     C
N       0.8767   0.8204   0.9832     N
H       0.8822   0.0173   0.2768     H
O       0.8954   0.2825   0.1549     O
H       0.8966    0.009   0.0646     H
C       0.8973   0.7485   0.9346     C
N       0.9128   0.8326   0.5011     N
H       0.9161   0.1714   0.4014     H
C       0.9192   0.9421   0.7711     C
O       0.9193   0.3809   0.8625     O
C         0.92   0.7697   0.2232     C
H        0.924   0.6785   0.4128     H
H       0.9254   0.0899    0.628     H
N        0.926   0.9057   0.5509     N
C       0.9265    0.227   0.4391     C
C       0.9271   0.8449   0.7892     C
C       0.9278   0.8846   0.2304     C
C       0.9348    0.806   0.0394     C
H       0.9378   0.8445   0.0806     H
C       0.9563   0.3919   0.5524     C
H       0.9626   0.7366   0.1981     H
N       0.9627   0.6896   0.9562     N
H       0.9664   0.4468   0.5902     H
H       0.9694   0.3038   0.9501     H
Cd     0.97229  0.42577  0.11142    Cd
C       0.9779   0.6829   0.4498     C
C       0.9865   0.7243   0.0221     C
C       0.9905   0.7638   0.5056     C
H       0.9911   0.8524   0.8225     H
O       0.9953   0.9478   0.1947     O
