data_I
_chemical_name_common  '/Users/gianmarcoterrones/Research/MOFs/MOF_structures/water_stability_work_extra_structs/cleaned_from_CCDC/KINKUP'
_cell_length_a 11.44300
_cell_length_b 12.96500
_cell_length_c 17.66900
_cell_angle_alpha 99.74800
_cell_angle_beta  101.32800
_cell_angle_gamma 103.58600
_space_group_name_H-M_alt      'P 1'


loop_
_space_group_symop_operation_xyz
  'x, y, z' 

loop_
_atom_site_label
_atom_site_fract_x
_atom_site_fract_y
_atom_site_fract_z
_atom_site_type_symbol
H       0.0029   0.6524   0.7727     H
C       0.0061   0.6186    0.658     C
C       0.0068    0.511   0.2586     C
C       0.0093   0.0566   0.0499     C
N       0.0179   0.5861   0.5256     N
C       0.0233   0.2434   0.1085     C
C       0.0249   0.5606    0.398     C
H       0.0289   0.9917   0.0537     H
C       0.0298   0.1512   0.7542     C
C       0.0378   0.7626   0.0671     C
C       0.0399   0.8719   0.4522     C
H       0.0449   0.9156   0.5691     H
C        0.045   0.3305   0.8165     C
H        0.046   0.0846   0.7562     H
H       0.0469   0.6037   0.9305     H
H       0.0545   0.3037   0.1509     H
C       0.0574    0.152   0.1136     C
N        0.063    0.835   0.3178     N
H       0.0649   0.3837   0.4671     H
H       0.0712   0.3884   0.8606     H
C       0.0713   0.8053   0.2118     C
C       0.0747   0.2363     0.48     C
C       0.0855   0.2438   0.8197     C
H       0.0898   0.5697   0.1233     H
H       0.0902   0.6227   0.6679     H
C       0.0997   0.3452   0.5009     C
H       0.1045    0.102   0.5135     H
C       0.1246   0.1774   0.5301     C
H       0.1251   0.8815   0.4617     H
C       0.1292   0.6435   0.9389     C
N        0.131   0.1325   0.1821     N
C       0.1335   0.5337   0.2747     C
C       0.1516   0.5823   0.4133     C
C       0.1551   0.5403   0.1384     C
C       0.1599   0.7641    0.073     C
N       0.1674   0.2154   0.2399     N
H       0.1755   0.5884   0.8407     H
H       0.1798   0.3528   0.9734     H
C       0.1808   0.4001    0.576     C
N       0.1815   0.2375   0.8826     N
H       0.1879   0.8313   0.6186     H
N       0.1907   0.5161   0.2082     N
O       0.1937   0.0061   0.7136     O
H       0.1995   0.6067   0.4652     H
H       0.1996   0.8103   0.7039     H
N       0.2005    0.728    0.006     N
H       0.2012   0.4755   0.5919     H
C       0.2013   0.8201   0.2148     C
C       0.2016   0.2261   0.6024     C
C       0.2018   0.6328   0.8916     C
C       0.2087   0.5676   0.3507     C
H       0.2093   0.0344    0.281     H
C        0.221   0.3037    0.955     C
H       0.2292   0.5211   0.0411     H
C       0.2304    0.339   0.6265     C
C       0.2332   0.5135   0.0929     C
H       0.2344   0.1854    0.635     H
C       0.2381   0.1932    0.311     C
C        0.245   0.8456     0.67     C
C       0.2455   0.7959   0.1482     C
C       0.2499   0.0963   0.3212     C
H       0.2583   0.8471   0.2637     H
C       0.2718   0.1857   0.8733     C
H       0.2735   0.1387   0.8278     H
C       0.2844   0.9651   0.7038     C
H        0.287   0.3537   0.3637     H
C         0.29   0.4739   0.2061     C
H       0.2942   0.5801     0.36     H
C       0.2952   0.2862   0.3713     C
N       0.3055   0.3994   0.7042     N
H       0.3059   0.5524   0.7082     H
H        0.309   0.7169   0.6332     H
N       0.3185   0.4735   0.1371     N
C       0.3195   0.7485   0.9938     C
C       0.3218   0.0867   0.3906     C
N       0.3224    0.695   0.9257     N
N        0.323    0.293   0.9976     N
H        0.329   0.8005   0.1527     H
H       0.3311   0.4493   0.2472     H
H       0.3316   0.0195   0.3975     H
C       0.3322   0.5031   0.7353     C
C       0.3468   0.7936   0.6603     C
H       0.3509   0.1386   0.0993     H
H       0.3545   0.2782   0.7572     H
C       0.3578   0.2167   0.9437     C
C       0.3581   0.3515   0.7618     C
C       0.3633    0.278   0.4414     C
C       0.3788   0.1799   0.4497     C
H       0.3893   0.7955   0.0305     H
O       0.3924   0.7412   0.7806     O
O       0.3938   0.0171   0.7268     O
H       0.3986    0.339    0.483     H
N       0.4011   0.5317   0.8097     N
C       0.4055   0.1778   0.1473     C
O       0.4108   0.8491   0.6077     O
C       0.4162   0.4351   0.8265     C
H       0.4249   0.0076   0.5161     H
H       0.4282   0.1924   0.9552     H
C       0.4362   0.7988   0.7388     C
H       0.4427   0.0575   0.2085     H
Zn     0.44878   0.4033  0.09527    Zn
N       0.4489   0.1713   0.5266     N
N        0.449   0.2903   0.1693     N
C        0.456    0.131   0.2084     C
H       0.4596   0.4278   0.8747     H
C       0.4624   0.0771    0.548     C
O       0.4739   0.5161   0.0243     O
Zn     0.48046   0.6978  0.87998    Zn
H       0.4889   0.9604   0.8885     H
C       0.5201   0.2546    0.589     C
C       0.5221   0.3091   0.2406     C
N       0.5303   0.2206   0.2686     N
H       0.5304   0.3284   0.5911     H
N       0.5333   0.0972   0.6175     N
C        0.534   0.9547   0.9368     C
O       0.5417    0.867    0.757     O
Zn     0.54935  0.98878  0.69202    Zn
N       0.5611   0.8643   0.9517     N
H        0.562   0.2061   0.8277     H
C       0.5635   0.5902   0.0283     C
H       0.5652   0.3792   0.2697     H
C       0.5708   0.2135   0.6449     C
O       0.5721   0.6562   0.9782     O
H       0.5787   0.1138   0.0139     H
C       0.5855   0.0429   0.0071     C
H       0.5946   0.0552   0.3119     H
H        0.596    0.606   0.7296     H
O       0.6005   0.5213   0.1829     O
C       0.6035   0.2128   0.3387     C
O       0.6044   0.3572    0.067     O
H       0.6222   0.2526   0.6939     H
C       0.6259   0.1181   0.3521     C
C       0.6303   0.8876   0.0272     C
C       0.6323   0.1831   0.8432     C
H       0.6425   0.3783   0.3959     H
N       0.6453   0.6994   0.8395     N
N       0.6469   0.9963   0.0614     N
C       0.6543   0.3117   0.4031     C
C       0.6606   0.6506   0.7714     C
H       0.6617   0.8387   0.0521     H
N       0.6668   0.1047   0.7952     N
H       0.6692   0.9459   0.5368     H
H       0.6773   0.6039   0.6172     H
C       0.6869   0.6246   0.0908     C
N        0.691   0.9343   0.6514     N
C       0.6924    0.114   0.4226     C
H       0.6943   0.6941   0.1248     H
H       0.6977   0.8104   0.4201     H
C       0.7016   0.5395    0.144     C
H       0.7055   0.0478   0.4296     H
C       0.7061   0.4312   0.0951     C
H       0.7068   0.2007   0.1302     H
H       0.7083   0.2743   0.9546     H
C       0.7113   0.2209   0.9133     C
C       0.7155   0.9271   0.5791     C
C       0.7215   0.3017   0.4762     C
C       0.7261    0.053    0.137     C
C       0.7434   0.2057   0.4864     C
C        0.747   0.1628   0.1618     C
H       0.7516   0.3622   0.5185     H
H       0.7541   0.6349   0.0644     H
H       0.7589   0.9208    0.175     H
C       0.7615   0.6086   0.6293     C
C       0.7625   0.7613   0.8823     C
C        0.769   0.0956   0.8386     C
H       0.7766   0.5696   0.5173     H
H       0.7797   0.5703   0.1849     H
N       0.7799   0.6732   0.7701     N
C       0.7799   0.9965   0.1889     C
C       0.7821   0.8949   0.6948     C
H       0.7824   0.8069   0.9324     H
C       0.7838   0.8303   0.4299     C
H       0.7892    0.888   0.7469     H
H        0.795   0.7966    0.318     H
N       0.8029    0.162   0.9121     N
O       0.8046   0.4319   0.0771     O
H       0.8135    0.049    0.821     H
N       0.8136     0.89   0.5757     N
N       0.8157   0.1908    0.555     N
C       0.8217   0.5883   0.5698     C
C       0.8284   0.2178   0.2344     C
C       0.8296   0.6357   0.7061     C
C       0.8459   0.7432   0.8369     C
C        0.846     0.82   0.3692     C
H       0.8474   0.2934   0.2486     H
N       0.8482   0.2735   0.6148     N
C       0.8578   0.8686   0.6484     C
C       0.8622   0.0506   0.2591     C
C       0.8623   0.8736   0.5079     C
H       0.8682   0.5236   0.3135     H
C       0.8814    0.164   0.2853     C
C        0.897   0.1613    0.979     C
H       0.9015   0.0093   0.9372     H
H       0.9055   0.0133   0.2896     H
H       0.9157   0.7793   0.1291     H
H       0.9166   0.3123   0.0358     H
H        0.918   0.1036   0.6466     H
C        0.924    0.258   0.6833     C
H       0.9254   0.8418   0.6628     H
C       0.9309   0.0671   0.9815     C
H       0.9313   0.7742    0.851     H
H       0.9352   0.4001   0.7481     H
C       0.9403   0.2491   0.0393     C
C       0.9432    0.595   0.5861     C
N       0.9526   0.5726   0.4566     N
C       0.9528   0.1633   0.6892     C
C       0.9529   0.5309   0.3226     C
C       0.9552    0.638    0.721     C
H       0.9581   0.4834    0.207     H
N       0.9587   0.2276   0.3595     N
C       0.9627    0.338   0.7479     C
C       0.9742   0.8401   0.3746     C
H       0.9829   0.7486   0.0177     H
N       0.9887    0.822   0.2688     N
C       0.9922   0.8913   0.5185     C
N       0.9961   0.1706   0.4058     N
C        0.999    0.782    0.135     C
