data_I
_chemical_name_common  '/Users/gianmarcoterrones/Research/MOFs/MOF_structures/water_stability_work_extra_structs/cleaned_from_CCDC/KIWRUE01'
_cell_length_a  6.84590
_cell_length_b 12.47950
_cell_length_c 21.68600
_cell_angle_alpha 90.00000
_cell_angle_beta  90.00000
_cell_angle_gamma 90.00000
_space_group_name_H-M_alt      'P 1'


loop_
_space_group_symop_operation_xyz
  'x, y, z' 

loop_
_atom_site_label
_atom_site_fract_x
_atom_site_fract_y
_atom_site_fract_z
_atom_site_type_symbol
N       0.0159  0.64272  0.19705     N
N       0.0196  0.86129  0.64471     N
C       0.0225  0.41579  0.90481     C
H       0.0234   0.6508    0.292     H
H       0.0258   0.9252   0.3151     H
C       0.0319  0.17196  0.54106     C
H       0.0439   0.7038   0.9272     H
C       0.0477  0.74423  0.41788     C
N       0.0595  0.97559  0.83159     N
N       0.0738  0.21661  0.48861     N
C       0.0812  0.67158  0.25404     C
Cu     0.09361 0.219058 0.831834    Cu
N       0.1026  0.99944   0.5913     N
N       0.1132  0.07241  0.54355     N
H       0.1237   0.3995   0.9333     H
H       0.1243   0.8202   0.8224     H
H       0.1284   0.6844   0.1122     H
C       0.1387  0.96902  0.31885     C
C       0.1389  0.68988  0.15574     C
S      0.13914  0.23628   0.0356     S
N       0.1431  0.07735  0.31478     N
N       0.1458  0.67667  0.71084     N
C       0.1693  0.89223  0.82294     C
N        0.176  0.91068  0.67457     N
H       0.1768   0.9574   0.1508     H
N       0.1805   0.7505  0.38506     N
N       0.1832  0.06461  0.82877     N
N       0.1849  0.14296   0.4545     N
S      0.19999  0.40529  0.32051     S
C       0.2058  0.05768  0.48845     C
C       0.2086  0.64143  0.75617     C
C       0.2216  0.99338  0.64143     C
H       0.2252   0.0051   0.9767     H
N       0.2272  0.25644    0.685     N
N       0.2336  0.73142   0.2484     N
N       0.2664  0.26858   0.7484     N
N       0.2728  0.74356    0.185     N
H       0.2748   0.9949   0.4767     H
C       0.2784  0.00662  0.14143     C
C       0.2914  0.35857  0.25617     C
C       0.2942  0.94232  0.98845     C
S      0.30001  0.59471  0.82051     S
N       0.3151  0.85704   0.9545     N
N       0.3168  0.93539  0.32877     N
N       0.3195   0.2495  0.88506     N
H       0.3232   0.0426   0.6508     H
N        0.324  0.08932  0.17457     N
C       0.3307  0.10777  0.32294     C
N       0.3542  0.32333  0.21084     N
N       0.3569  0.92265  0.81478     N
S      0.36086  0.76372   0.5356     S
C       0.3611  0.31012  0.65574     C
C       0.3613  0.03098  0.81885     C
H       0.3716   0.3156   0.6122     H
H       0.3757   0.1798   0.3224     H
H       0.3763   0.6005   0.4333     H
N       0.3868  0.92759  0.04355     N
N       0.3974  0.00056   0.0913     N
Cu     0.40639 0.780942 0.331834    Cu
C       0.4188  0.32842  0.75404     C
N       0.4262  0.78339  0.98861     N
N       0.4405  0.02441  0.33159     N
C       0.4523  0.25577  0.91788     C
H       0.4561   0.2962   0.4272     H
C       0.4681  0.82804  0.04106     C
H       0.4742   0.0748   0.8151     H
H       0.4766   0.3492    0.792     H
C       0.4775  0.58421  0.40481     C
N       0.4804  0.13871  0.14471     N
N       0.4841  0.35728  0.69705     N
N       0.5159  0.85728  0.80295     N
N       0.5196  0.63871  0.35529     N
C       0.5225  0.08421  0.09519     C
H       0.5234   0.8492    0.708     H
H       0.5258   0.5748   0.6849     H
C       0.5319  0.32804  0.45894     C
H       0.5439   0.7962   0.0728     H
C       0.5477  0.75577  0.58212     C
N       0.5595  0.52441  0.16841     N
N       0.5738  0.28339  0.51139     N
C       0.5812  0.82842  0.74596     C
Cu     0.59361 0.280942 0.168166    Cu
N       0.6026  0.50056   0.4087     N
N       0.6132  0.42759  0.45645     N
H       0.6237   0.1005   0.0667     H
H       0.6243   0.6798   0.1776     H
H       0.6284   0.8156   0.8878     H
C       0.6387  0.53098  0.68115     C
C       0.6389  0.81012  0.84426     C
S      0.63914  0.26372   0.9644     S
N       0.6431  0.42265  0.68522     N
N       0.6458  0.82333  0.28916     N
C       0.6693  0.60777  0.17706     C
N        0.676  0.58932  0.32543     N
H       0.6768   0.5426   0.8492     H
N       0.6805   0.7495  0.61494     N
N       0.6832  0.43539  0.17123     N
N       0.6849  0.35704   0.5455     N
S      0.69999  0.09471  0.67949     S
C       0.7058  0.44232  0.51155     C
C       0.7086  0.85857  0.24383     C
C       0.7216  0.50662  0.35857     C
H       0.7252   0.4949   0.0233     H
N       0.7272  0.24356    0.315     N
N       0.7336  0.76858   0.7516     N
N       0.7664  0.23142   0.2516     N
N       0.7728  0.75644    0.815     N
H       0.7748   0.5051   0.5233     H
C       0.7784  0.49338  0.85857     C
C       0.7914  0.14143  0.74383     C
C       0.7942  0.55768  0.01155     C
S      0.80001  0.90529  0.17949     S
N       0.8151  0.64296   0.0455     N
N       0.8168  0.56461  0.67123     N
N       0.8195   0.2505  0.11494     N
H       0.8232   0.4574   0.3492     H
N        0.824  0.41068  0.82543     N
C       0.8307  0.39223  0.67706     C
N       0.8542  0.17667  0.78916     N
N       0.8569  0.57735  0.18522     N
S      0.86086  0.73628   0.4644     S
C       0.8611  0.18988  0.34426     C
C       0.8613  0.46902  0.18115     C
H       0.8716   0.1844   0.3878     H
H       0.8757   0.3202   0.6776     H
H       0.8763   0.8995   0.5667     H
N       0.8868  0.57241  0.95645     N
N       0.8974  0.49944   0.9087     N
Cu     0.90639 0.719058 0.668166    Cu
C       0.9188  0.17158  0.24596     C
N       0.9262  0.71661  0.01139     N
N       0.9405  0.47559  0.66841     N
C       0.9523  0.24423  0.08212     C
H       0.9561   0.2038   0.5728     H
C       0.9681  0.67196  0.95894     C
H       0.9742   0.4252   0.1849     H
H       0.9766   0.1508    0.208     H
C       0.9775  0.91579  0.59519     C
N       0.9804  0.36129  0.85529     N
N       0.9841  0.14272  0.30295     N
