data_I
_chemical_name_common  '/Users/gianmarcoterrones/Research/MOFs/MOF_structures/water_stability_work_extra_structs/cleaned_from_CCDC/KIYHUX'
_cell_length_a  8.17020
_cell_length_b 15.73440
_cell_length_c 22.55010
_cell_angle_alpha 91.45900
_cell_angle_beta  93.38000
_cell_angle_gamma 93.36600
_space_group_name_H-M_alt      'P 1'


loop_
_space_group_symop_operation_xyz
  'x, y, z' 

loop_
_atom_site_label
_atom_site_fract_x
_atom_site_fract_y
_atom_site_fract_z
_atom_site_type_symbol
H       0.0011   0.6348   0.2095     H
H       0.0022   0.5535   0.6105     H
C       0.0099   0.3137   0.6579     C
C       0.0189   0.0182   0.8957     C
H       0.0244   0.7132   0.3783     H
C       0.0245   0.0422   0.3652     C
C       0.0245   0.3577   0.7512     C
C       0.0312   0.0546   0.8359     C
C       0.0368    0.957     0.27     C
H       0.0412   0.0635   0.9256     H
O       0.0474   0.0324  0.42011     O
C       0.0531   0.9852   0.2124     C
H       0.0634   0.5855    0.798     H
C       0.0654   0.1126   0.7224     C
N       0.0677   0.6907   0.2898     N
H       0.0684   0.2802   0.1642     H
N       0.0691   0.6754   0.7386     N
O       0.0714   0.7865  0.55085     O
C       0.0747   0.5932   0.9521     C
H       0.0779   0.3659   0.9531     H
C       0.0784   0.2823   0.2547     C
H       0.0788   0.1324   0.6844     H
C       0.0807   0.6419   0.5187     C
C       0.0856   0.3862    0.461     C
H       0.0903   0.5622   0.9153     H
O       0.0914   0.9155  0.65547     O
H       0.0926   0.0049   0.1005     H
C        0.095   0.4334   0.4098     C
H       0.0969   0.6119   0.4816     H
C       0.1043   0.4041   0.0391     C
C       0.1075   0.7362   0.5097     C
C       0.1205   0.6108   0.7679     C
H       0.1207    0.192   0.0819     H
H       0.1233   0.0326   0.2066     H
H       0.1275   0.5637   0.9845     H
H       0.1298   0.2726   0.3432     H
C       0.1299   0.2652    0.198     C
C       0.1337   0.0014   0.3222     C
C        0.135   0.1254   0.8273     C
C        0.138   0.9477    0.908     C
H       0.1411   0.5034   0.3107     H
C       0.1472   0.3654     0.67     C
C       0.1493   0.1539   0.7705     C
O       0.1509   0.9248   0.9596     O
C       0.1517    0.682   0.9496     C
H       0.1539   0.7563   0.1917     H
C       0.1557   0.3796   0.9842     C
N       0.1567   0.3934   0.7279     N
O       0.1596   0.7191   0.9024     O
H       0.1638   0.6249   0.5479     H
C       0.1659   0.2603   0.3058     C
O        0.173   0.7588   0.4634     O
H       0.1736   0.7331   0.6663     H
C       0.1798   0.6923   0.6954     C
H       0.1834   0.1246   0.5342     H
H       0.1839   0.4387   0.1213     H
Co     0.18438  0.90969  0.56655    Co
H       0.1941   0.1532   0.8593     H
H       0.1984   0.9604    0.343     H
O       0.2041   0.7177   0.9983     O
C       0.2088   0.7446   0.2794     C
H       0.2091   0.0449   0.3075     H
O         0.21   0.9174    0.869     O
H       0.2171   0.2021   0.7646     H
C       0.2176   0.4232    0.084     C
H        0.219   0.9692   0.4557     H
H       0.2242   0.3797   0.6426     H
H        0.225   0.3336   0.5241     H
C       0.2269    0.775   0.2232     C
C       0.2277   0.3666   0.4905     C
O       0.2299   0.9217  0.47901     O
C       0.2344   0.1906   0.0862     C
H       0.2353   0.8744   0.4622     H
C       0.2407   0.4613    0.388     C
H       0.2418   0.1978   0.4194     H
C       0.2442   0.5151   0.3339     C
H       0.2477   0.5743   0.3472     H
O       0.2495   0.4495   0.8564     O
C       0.2597   0.1144    0.565     C
N       0.2604   0.5849    0.751     N
H       0.2743   0.7705   0.1031     H
C       0.2753   0.2253   0.1935     C
N       0.2919    0.036    0.586     N
Co     0.29246  0.83117  0.97397    Co
C       0.2978   0.6371   0.7044     C
H       0.3017   0.7527   0.3642     H
H       0.3078   0.1593   0.0029     H
C       0.3094   0.2192   0.2991     C
C       0.3147   0.7729   0.3263     C
H       0.3175   0.2907   0.9064     H
C       0.3214   0.3751   0.9746     C
C       0.3286   0.8242   0.1057     C
N       0.3306   0.2053   0.1367     N
C       0.3389    0.173   0.0425     C
C       0.3448   0.1857   0.4071     C
C       0.3546   0.8333   0.2143     C
C       0.3558   0.1746   0.5959     C
Co     0.35648   0.4686  0.76427    Co
H       0.3581    0.233   0.5902     H
C       0.3606   0.4004    0.863     C
O       0.3632   0.4651    0.245     O
C       0.3646   0.2016    0.244     C
N       0.3671   0.8691   0.0592     N
N       0.3768   0.8649  0.15663     N
C       0.3769   0.5056   0.2941     C
C       0.3771   0.3447   0.9166     C
C       0.3786   0.3969   0.4699     C
C       0.3791   0.4203   0.0756     C
C       0.3812   0.4445   0.4192     C
H       0.3876   0.8402   0.6791     H
H       0.3907   0.6344   0.6827     H
N       0.3992   0.1937   0.3513     N
N       0.4034   0.8555   0.5929     N
C       0.4053   0.0507   0.6288     C
H       0.4234   0.7942   0.8497     H
C       0.4327   0.3958   0.0214     C
C       0.4407   0.8321   0.3159     C
C       0.4444   0.9427   0.0824     C
N       0.4489   0.1341   0.6372     N
C       0.4508   0.8352   0.6463     C
H       0.4512   0.0081    0.651     H
C        0.452   0.9417   0.1424     C
H       0.4554   0.6068   0.9835     H
H       0.4555   0.4351   0.1069     H
H       0.4558   0.0958   0.7459     H
C       0.4605   0.8634   0.2603     C
H       0.4613    0.174   0.2406     H
O       0.4614   0.3938   0.8247     O
H        0.469   0.1465   0.4813     H
C       0.4702   0.1566   0.4409     C
H       0.4765   0.3848   0.4902     H
H       0.4815   0.4655   0.4064     H
O       0.4848   0.4557   0.6911     O
H        0.486   0.9871   0.0602     H
C       0.4864   0.1981   0.1231     C
H       0.4921   0.3332   0.9226     H
N       0.4952   0.1791   0.0669     N
H       0.4984   0.9842   0.1687     H
H       0.5016   0.0158   0.8313     H
N       0.5048   0.8209   0.9331     N
H       0.5079   0.6668   0.0774     H
C       0.5136   0.8019   0.8769     C
H        0.514   0.0129   0.9398     H
O       0.5152   0.5443   0.3089     O
H       0.5185   0.5345   0.5936     H
H       0.5235   0.6152   0.5098     H
C       0.5298   0.8434   0.5591     C
H        0.531   0.8535   0.5187     H
O       0.5386   0.6062   0.1753     O
H       0.5387    0.826   0.7594     H
C       0.5395   0.1366   0.7397     C
H       0.5442   0.9042   0.2541     H
H       0.5445   0.5649   0.8931     H
H       0.5446   0.3932   0.0165     H
C        0.548   0.0583   0.8576     C
H       0.5488   0.9919    0.349     H
C       0.5492   0.1648   0.3537     C
N       0.5511   0.8659   0.3628     N
C       0.5556   0.0573   0.9176     C
C       0.5593   0.1679   0.6841     C
C       0.5673   0.6042   0.9786     C
H       0.5766   0.2058   0.1503     H
C       0.5947   0.9493   0.3712     C
N       0.5966   0.1445   0.4071     N
N       0.6008   0.8063   0.6487     N
H       0.6093   0.3656   0.3173     H
H       0.6124   0.1598   0.3209     H
C       0.6188   0.5555   0.5808     C
C       0.6209   0.5797   0.9244     C
C       0.6214   0.6031   0.5301     C
C       0.6229   0.6553   0.0834     C
C       0.6231   0.4944   0.7059     C
N       0.6232   0.1351  0.84337     N
N       0.6329   0.1309   0.9408     N
C       0.6354   0.7984    0.756     C
O       0.6368   0.5349    0.755     O
C       0.6394   0.5996    0.137     C
H       0.6419    0.767   0.4098     H
Co     0.64352   0.5314  0.23573    Co
C       0.6442   0.8254   0.4041     C
C       0.6454   0.1667   0.7857     C
C       0.6552   0.8143   0.5929     C
C       0.6611    0.827   0.9575     C
N       0.6694   0.7947   0.8633     N
C       0.6714   0.1758   0.8943     C
C       0.6786   0.6249   0.0254     C
H       0.6825   0.7093   0.0936     H
C       0.6853   0.2271   0.6737     C
C       0.6906   0.7808   0.7009     C
H       0.6922   0.8407   0.9971     H
H       0.6983   0.2473   0.6358     H
C       0.7022   0.3629   0.2956     C
Co     0.70754  0.16883  0.02603    Co
N       0.7081    0.964    0.414     N
C       0.7247   0.7747   0.8065     C
H       0.7257   0.2295   0.8969     H
N       0.7396   0.4151    0.249     N
C       0.7403   0.8856    0.435     C
O       0.7505   0.5505   0.1436     O
H       0.7523   0.4257   0.6528     H
C       0.7558   0.4849   0.6661     C
H       0.7582   0.8022   0.5806     H
C       0.7593   0.5387    0.612     C
H       0.7647   0.1256   0.5378     H
C       0.7656   0.8094   0.9138     C
O       0.7701   0.0783  0.52099     O
C       0.7723   0.6334   0.5095     C
C       0.7731    0.225   0.7768     C
H        0.775   0.6664   0.4759     H
H       0.7758   0.6203   0.3574     H
H        0.781   0.0308   0.5443     H
C       0.7824   0.5768    0.916     C
H       0.7829   0.7979   0.2354     H
O         0.79   0.0826    0.131     O
H       0.7909   0.9551   0.6925     H
C       0.7912   0.2554   0.7206     C
O       0.7959   0.2823   0.0017     O
H       0.8016   0.0396    0.657     H
H       0.8059   0.8468   0.1407     H
Co     0.81562  0.09031  0.43345    Co
H       0.8161   0.5613   0.8787     H
H       0.8166   0.8754   0.4658     H
C       0.8202   0.3077   0.3046     C
H       0.8264   0.2669   0.3337     H
O        0.827   0.2412   0.5366     O
C       0.8341   0.7397   0.6942     C
H       0.8362   0.3751   0.4521     H
O       0.8404   0.2809   0.0976     O
N       0.8433   0.6066   0.2721     N
C       0.8443   0.6204   0.0158     C
H       0.8461   0.2437   0.8083     H
C       0.8483    0.318   0.0504     C
O       0.8491   0.0752   0.0404     O
C       0.8507   0.8461   0.2295     C
C       0.8528   0.6346     0.33     C
H       0.8589   0.4966   0.6893     H
C        0.862   0.0523    0.092     C
C        0.865   0.8746   0.1727     C
C       0.8663   0.9986   0.6778     C
C       0.8701   0.7348    0.802     C
H       0.8702   0.7274   0.6568     H
H       0.8725   0.4363   0.0155     H
H       0.8767   0.9674   0.7934     H
H       0.8793    0.808   0.9181     H
C       0.8795   0.3892   0.2321     C
C       0.8925   0.2638   0.4903     C
C       0.8957   0.5959   0.9609     C
H       0.9031   0.3881   0.5184     H
C        0.905   0.5666   0.5902     C
H       0.9074   0.9951   0.8995     H
O       0.9086   0.0845  0.34453     O
H       0.9097   0.4378   0.0847     H
C       0.9144   0.6138    0.539     C
C       0.9193   0.3581   0.4813     C
H       0.9212   0.8676   0.3156     H
C       0.9216   0.7177   0.7453     C
H       0.9221   0.6341   0.0469     H
C       0.9253   0.4068   0.0479     C
O       0.9286   0.2135  0.44915     O
N       0.9309   0.3246   0.2614     N
H       0.9316   0.7198   0.8358     H
N       0.9323   0.3093   0.7102     N
C       0.9346   0.8874   0.2776     C
H       0.9366   0.4145    0.202     H
C       0.9469   0.0148   0.7876     C
O       0.9526   0.9676  0.57989     O
H       0.9588   0.9365   0.0744     H
C       0.9632    0.043     0.73     C
C       0.9688   0.9454   0.1641     C
C       0.9755   0.6423   0.2488     C
C       0.9755   0.9578   0.6348     C
H       0.9756   0.2868   0.6217     H
C       0.9811   0.9818   0.1043     C
C       0.9901   0.6863   0.3421     C
H       0.9978   0.4465   0.3895     H
H       0.9989   0.3652   0.7905     H
