data_I
_chemical_name_common  '/Users/gianmarcoterrones/Research/MOFs/MOF_structures/water_stability_work_extra_structs/cleaned_from_CCDC/KIYJIN'
_cell_length_a  8.54780
_cell_length_b 16.62940
_cell_length_c 18.05150
_cell_angle_alpha 90.00000
_cell_angle_beta  90.00000
_cell_angle_gamma 98.93300
_space_group_name_H-M_alt      'P 1'


loop_
_space_group_symop_operation_xyz
  'x, y, z' 

loop_
_atom_site_label
_atom_site_fract_x
_atom_site_fract_y
_atom_site_fract_z
_atom_site_type_symbol
Mn         0.0      0.5      0.5    Mn
N      0.01406  0.39464  0.27584     N
H       0.0391     0.74   0.7985     H
N      0.03965  0.43727  0.39125     N
C       0.0415  0.56107  0.67022     C
H       0.0428   0.1628   0.0924     H
C       0.0504   0.6191  0.79673     C
C       0.0618  0.84576  0.92373     C
C       0.0704  0.69733  0.82517     C
H       0.0792   0.5027   0.8158     H
C       0.0947  0.55487  0.83572     C
H       0.1017   0.9633   0.9588     H
H       0.1052   0.6952   0.4567     H
H       0.1266   0.5329    0.676     H
C       0.1385  0.71003  0.89446     C
C       0.1386  0.36272  0.30513     C
C        0.143  0.91522  0.95192     C
C       0.1538   0.3898  0.37559     C
C       0.1627  0.56944  0.90501     C
N      0.16539  0.79051  0.92387     N
H        0.167   0.3805   0.5373     H
O      0.16717  0.42568  0.54887     O
H        0.186     0.41   0.8765     H
C       0.1862  0.64746  0.93481     C
C       0.1958  0.67118  0.45117     C
H       0.2003   0.3292   0.2813     H
N       0.2043  0.50379  0.94713     N
N      0.20548  0.59523  0.46893     N
H       0.2055     0.09   0.5833     H
C       0.2091  0.42764  0.92477     C
H        0.212   0.4318   0.5873     H
H       0.2293   0.5443   0.0548     H
H       0.2303   0.3781   0.4088     H
C       0.2322  0.50199  0.02133     C
H       0.2333   0.6574    0.981     H
C       0.2351  0.07307  0.53693     C
N       0.2488  0.38057  0.97646     N
N       0.2512  0.11943  0.47646     N
C       0.2649  0.42693  0.03693     C
H       0.2667   0.8426    0.481     H
C       0.2678  0.99801  0.52133     C
H       0.2697   0.1219   0.9088     H
H       0.2707   0.9557   0.5548     H
H        0.288   0.0682   0.0873     H
C       0.2909  0.07236  0.42477     C
H       0.2945     0.41   0.0833     H
N      0.29452  0.90477  0.96893     N
N       0.2957  0.99621  0.44713     N
H       0.2997   0.1708   0.7813     H
C       0.3042  0.82882  0.95117     C
C       0.3138  0.85254  0.43481     C
H        0.314     0.09   0.3765     H
O      0.33283  0.07432  0.04887     O
H        0.333   0.1195   0.0373     H
N      0.33461  0.70949  0.42387     N
C       0.3373  0.93056  0.40501     C
C       0.3462   0.1102  0.87559     C
C        0.357  0.58478  0.45192     C
C       0.3614  0.13728  0.80513     C
C       0.3615  0.78997  0.39446     C
H       0.3734   0.9671    0.176     H
H       0.3948   0.8048   0.9567     H
H       0.3983   0.5367   0.4588     H
C       0.4053  0.94513  0.33572     C
H       0.4208   0.9973   0.3158     H
C       0.4296  0.80267  0.32517     C
C       0.4382  0.65424  0.42373     C
C       0.4496   0.8809  0.29673     C
H       0.4572   0.3372   0.5924     H
C       0.4585  0.93893  0.17022     C
N      0.46035  0.06273  0.89125     N
H       0.4609     0.76   0.2985     H
N      0.48594  0.10536  0.77584     N
Mn         0.5      0.0      0.0    Mn
N      0.51406  0.89464  0.22416     N
H       0.5391     0.24   0.7015     H
N      0.53965  0.93727  0.10875     N
C       0.5415  0.06107  0.82978     C
H       0.5428   0.6628   0.4076     H
C       0.5504   0.1191  0.70327     C
C       0.5618  0.34576  0.57627     C
C       0.5704  0.19733  0.67483     C
H       0.5792   0.0027   0.6842     H
C       0.5947  0.05487  0.66428     C
H       0.6017   0.4633   0.5412     H
H       0.6052   0.1952   0.0433     H
H       0.6266   0.0329    0.824     H
C       0.6385  0.21003  0.60554     C
C       0.6386  0.86272  0.19487     C
C        0.643  0.41522  0.54808     C
C       0.6538   0.8898  0.12441     C
C       0.6627  0.06944  0.59499     C
N      0.66539  0.29051  0.57613     N
H        0.667   0.8805   0.9627     H
O      0.66717  0.92568  0.95113     O
H        0.686     0.91   0.6235     H
C       0.6862  0.14746  0.56519     C
C       0.6958  0.17118  0.04883     C
H       0.7003   0.8292   0.2187     H
N       0.7043  0.00379  0.55287     N
N      0.70548  0.09523  0.03107     N
H       0.7055     0.59   0.9167     H
C       0.7091  0.92764  0.57523     C
H        0.712   0.9318   0.9127     H
H       0.7293   0.0443   0.4452     H
H       0.7303   0.8781   0.0912     H
C       0.7322  0.00199  0.47867     C
H       0.7333   0.1574    0.519     H
C       0.7351  0.57307  0.96307     C
N       0.7488  0.88057  0.52354     N
N       0.7512  0.61943  0.02354     N
C       0.7649  0.92693  0.46307     C
H       0.7667   0.3426    0.019     H
C       0.7678  0.49801  0.97867     C
H       0.7697   0.6219   0.5912     H
H       0.7707   0.4557   0.9452     H
H        0.788   0.5682   0.4127     H
C       0.7909  0.57236  0.07523     C
H       0.7945     0.91   0.4167     H
N      0.79452  0.40477  0.53107     N
N       0.7957  0.49621  0.05287     N
H       0.7997   0.6708   0.7187     H
C       0.8042  0.32882  0.54883     C
C       0.8138  0.35254  0.06519     C
H        0.814     0.59   0.1235     H
O      0.83283  0.57432  0.45113     O
H        0.833   0.6195   0.4627     H
N      0.83461  0.20949  0.07613     N
C       0.8373  0.43056  0.09499     C
C       0.8462   0.6102  0.62441     C
C        0.857  0.08478  0.04808     C
C       0.8614  0.63728  0.69487     C
C       0.8615  0.28997  0.10554     C
H       0.8734   0.4671    0.324     H
H       0.8948   0.3048   0.5433     H
H       0.8983   0.0367   0.0412     H
C       0.9053  0.44513  0.16428     C
H       0.9208   0.4973   0.1842     H
C       0.9296  0.30267  0.17483     C
C       0.9382  0.15424  0.07627     C
C       0.9496   0.3809  0.20327     C
H       0.9572   0.8372   0.9076     H
C       0.9585  0.43893  0.32978     C
N      0.96035  0.56273  0.60875     N
H       0.9609     0.26   0.2015     H
N      0.98594  0.60536  0.72416     N
