data_I
_chemical_name_common  '/Users/gianmarcoterrones/Research/MOFs/MOF_structures/water_stability_work_extra_structs/cleaned_from_CCDC/KIYJEJ'
_cell_length_a 13.11100
_cell_length_b 21.38700
_cell_length_c 21.53400
_cell_angle_alpha 97.23600
_cell_angle_beta  90.00000
_cell_angle_gamma 90.00000
_space_group_name_H-M_alt      'P 1'


loop_
_space_group_symop_operation_xyz
  'x, y, z' 

loop_
_atom_site_label
_atom_site_fract_x
_atom_site_fract_y
_atom_site_fract_z
_atom_site_type_symbol
C       0.0022   0.3579    0.816     C
C       0.0026    0.069   0.6883     C
C       0.0055   0.5917   0.4675     C
H       0.0105    0.603   0.0045     H
C       0.0132   0.0566   0.4519     C
H       0.0165   0.7799   0.2656     H
C       0.0185   0.2199    0.262     C
C       0.0194   0.6972   0.9999     C
H       0.0203   0.4256    0.496     H
H        0.022   0.8972   0.3338     H
C       0.0228   0.5587    0.643     C
C       0.0241   0.2959   0.7946     C
C       0.0249   0.1387   0.1747     C
C       0.0267    0.766    0.601     C
C       0.0284    0.994     0.87     C
C       0.0289   0.0141   0.6405     C
C       0.0306    0.538   0.4185     C
C       0.0314   0.7379   0.2524     C
H       0.0325   0.4888   0.8505     H
H       0.0334   0.0141   0.1114     H
C       0.0347    0.505    0.161     C
H       0.0388   0.3797   0.8489     H
C       0.0399   0.0094   0.4042     C
H       0.0415   0.2584    0.282     H
C       0.0417   0.8072   0.9856     C
C       0.0429    0.507   0.5997     C
H       0.0432   0.2409   0.3972     H
C       0.0483   0.8943   0.7971     C
H       0.0502   0.0854   0.5431     H
H       0.0518   0.1229   0.1359     H
C       0.0546   0.8135    0.711     C
C       0.0574   0.1955    0.205     C
C       0.0611   0.1842   0.0092     C
H       0.0633   0.4136   0.1306     H
C       0.0649   0.6339    0.006     C
H       0.0649   0.7363   0.5118     H
H        0.065   0.0836   0.7096     H
H       0.0662    0.175    0.816     H
H       0.0665   0.0822    0.908     H
H       0.0683   0.6138   0.4798     H
C       0.0704   0.3612   0.5503     C
H       0.0711   0.8935    0.961     H
C       0.0735    0.436   0.3313     C
C       0.0757   0.9419   0.2623     C
C       0.0761   0.6135    0.213     C
C       0.0791   0.7477     0.99     C
O       0.0805   0.6562   0.7662     O
N       0.0808   0.9542  0.82643     N
H       0.0822   0.6473   0.6492     H
C       0.0834   0.2926   0.9948     C
C       0.0837   0.9201   0.5472     C
C       0.0839   0.0468   0.8804     C
C       0.0867   0.7536   0.5514     C
C       0.0869   0.0793   0.5037     C
C       0.0881   0.4516   0.1507     C
H       0.0887    0.402   0.3014     H
N       0.0888  0.79094  0.64922     N
C       0.0888   0.8707   0.7398     C
H       0.0894   0.1449   0.0127     H
O       0.0922   0.3557  0.60413     O
H       0.0929   0.3205   0.2021     H
H       0.0975   0.6356   0.0467     H
N       0.0986   0.5487  0.19202     N
H       0.1032   0.8886   0.5158     H
O       0.1034  0.99495  0.25479     O
C       0.1036   0.6071   0.6612     C
H        0.106   0.9935   0.4026     H
O       0.1061  0.89147  0.22937     O
H       0.1078   0.5022   0.5823     H
O       0.1088  0.32751  0.50323     O
N       0.1091   0.2658  0.81949     N
C       0.1094   0.7078   0.2792     C
C       0.1108   0.8609   0.9773     C
O        0.115  0.61432  0.90017     O
O       0.1186   0.1877   0.5261     O
C       0.1187   0.2042   0.8235     C
C       0.1225   0.2332   0.9987     C
C       0.1234   0.6143   0.7308     C
O       0.1247  0.88156  0.08762     O
C       0.1251   0.5301   0.3927     C
C       0.1255   0.9895   0.6384     C
H       0.1269   0.3255   0.9886     H
C       0.1318   0.6456   0.2606     C
N       0.1353  0.23003  0.17812     N
H        0.138   0.0469   0.5066     H
H       0.1384   0.8931    0.721     H
C       0.1392   0.1392   0.4941     C
C        0.142   0.6125   0.9559     C
C       0.1423    0.293   0.1836     C
C       0.1466   0.4798   0.3489     C
H       0.1491   0.7414    0.986     H
C       0.1518   0.9426   0.5918     C
H       0.1603   0.7544    0.117     H
H       0.1617   0.8464   0.9461     H
C       0.1642    0.985   0.8122     C
C       0.1648   0.8898   0.0357     C
N       0.1649  0.74221  0.32904     N
H       0.1662   0.5948   0.6389     H
H       0.1676   0.7513   0.8566     H
N       0.1696  0.04107  0.84438     N
H       0.1732   0.0046   0.6686     H
H       0.1746   0.6811   0.3921     H
H       0.1759   0.5594    0.405     H
O       0.1819  0.57495  0.75071     O
C       0.1827   0.7926    0.626     C
H       0.1839   0.6256   0.2799     H
N       0.1842  0.76989  0.56643     N
N        0.185  0.46086  0.17415     N
C       0.1873   0.5203   0.1989     C
C       0.1903   0.7212   0.3824     C
H       0.1923   0.2265   0.9941     H
H       0.1941   0.8288   0.3012     H
C       0.2004    0.802   0.3318     C
Zn     0.20079  0.25807   0.5061    Zn
O       0.2014    0.139   0.4561     O
C       0.2016    0.293   0.8342     C
Zn     0.20532  0.89732  0.16326    Zn
H       0.2112   0.4754   0.3312     H
N       0.2119  0.19043  0.83937     N
H       0.2127   0.9687    0.783     H
H       0.2174    0.926   0.5908     H
H        0.218   0.3355   0.8358     H
Zn     0.22052  0.60535  0.83768    Zn
C       0.2209    0.206   0.1483     C
H       0.2221   0.3527   0.4023     H
C       0.2232   0.7564   0.1371     C
O       0.2258   0.5967  0.96961     O
N       0.2271   0.3109  0.15971     N
C       0.2361   0.7464   0.8458     C
H       0.2374   0.1637   0.1379     H
H       0.2396   0.8078   0.6488     H
N       0.2401  0.76378  0.41962     N
O       0.2424   0.9197    0.031     O
H       0.2439   0.5399   0.2187     H
C       0.2464   0.8147   0.3876     C
C       0.2536   0.3147   0.3876     C
H       0.2561   0.0399   0.2187     H
O       0.2576   0.4197    0.031     O
N       0.2599  0.26378  0.41962     N
H       0.2604   0.3078   0.6488     H
H       0.2626   0.6637   0.1379     H
C       0.2639   0.2464   0.8458     C
N       0.2729   0.8109  0.15971     N
O       0.2742   0.0967  0.96961     O
C       0.2768   0.2564   0.1371     C
H       0.2779   0.8527   0.4023     H
C       0.2791    0.706   0.1483     C
Zn     0.27948  0.10535  0.83768    Zn
H        0.282   0.8355   0.8358     H
H       0.2826    0.426   0.5908     H
H       0.2873   0.4687    0.783     H
N       0.2881  0.69043  0.83937     N
H       0.2888   0.9754   0.3312     H
Zn     0.29468  0.39732  0.16326    Zn
C       0.2984    0.793   0.8342     C
O       0.2986    0.639   0.4561     O
Zn     0.29921  0.75807   0.5061    Zn
C       0.2996    0.302   0.3318     C
H       0.3059   0.3288   0.3012     H
H       0.3077   0.7265   0.9941     H
C       0.3097   0.2212   0.3824     C
C       0.3127   0.0203   0.1989     C
N        0.315  0.96086  0.17415     N
N       0.3158  0.26989  0.56643     N
H       0.3161   0.1256   0.2799     H
C       0.3173   0.2926    0.626     C
O       0.3181  0.07495  0.75071     O
H       0.3241   0.0594    0.405     H
H       0.3254   0.1811   0.3921     H
H       0.3268   0.5046   0.6686     H
N       0.3304  0.54107  0.84438     N
H       0.3324   0.2513   0.8566     H
H       0.3338   0.0948   0.6389     H
N       0.3351  0.24221  0.32904     N
C       0.3352   0.3898   0.0357     C
C       0.3358    0.485   0.8122     C
H       0.3383   0.3464   0.9461     H
H       0.3397   0.2544    0.117     H
C       0.3482   0.4426   0.5918     C
H       0.3509   0.2414    0.986     H
C       0.3534   0.9798   0.3489     C
C       0.3577    0.793   0.1836     C
C        0.358   0.1125   0.9559     C
C       0.3608   0.6392   0.4941     C
H       0.3616   0.3931    0.721     H
H        0.362   0.5469   0.5066     H
N       0.3647  0.73003  0.17812     N
C       0.3682   0.1456   0.2606     C
H       0.3731   0.8255   0.9886     H
C       0.3745   0.4895   0.6384     C
C       0.3749   0.0301   0.3927     C
O       0.3753  0.38156  0.08762     O
C       0.3766   0.1143   0.7308     C
C       0.3775   0.7332   0.9987     C
C       0.3813   0.7042   0.8235     C
O       0.3814   0.6877   0.5261     O
O        0.385  0.11432  0.90017     O
C       0.3892   0.3609   0.9773     C
C       0.3906   0.2078   0.2792     C
N       0.3909   0.7658  0.81949     N
O       0.3912  0.82751  0.50323     O
H       0.3922   0.0022   0.5823     H
O       0.3939  0.39147  0.22937     O
H        0.394   0.4935   0.4026     H
C       0.3964   0.1071   0.6612     C
O       0.3966  0.49495  0.25479     O
H       0.3968   0.3886   0.5158     H
N       0.4014   0.0487  0.19202     N
H       0.4025   0.1356   0.0467     H
H       0.4071   0.8205   0.2021     H
O       0.4078   0.8557  0.60413     O
H       0.4106   0.6449   0.0127     H
N       0.4112  0.29094  0.64922     N
C       0.4112   0.3707   0.7398     C
H       0.4113    0.902   0.3014     H
C       0.4119   0.9516   0.1507     C
C       0.4131   0.5793   0.5037     C
C       0.4133   0.2536   0.5514     C
C       0.4161   0.5468   0.8804     C
C       0.4163   0.4201   0.5472     C
C       0.4166   0.7926   0.9948     C
H       0.4178   0.1473   0.6492     H
N       0.4192   0.4542  0.82643     N
O       0.4195   0.1562   0.7662     O
C       0.4209   0.2477     0.99     C
C       0.4239   0.1135    0.213     C
C       0.4243   0.4419   0.2623     C
C       0.4265    0.936   0.3313     C
H       0.4289   0.3935    0.961     H
C       0.4296   0.8612   0.5503     C
H       0.4317   0.1138   0.4798     H
H       0.4335   0.5822    0.908     H
H       0.4338    0.675    0.816     H
H        0.435   0.5836   0.7096     H
C       0.4351   0.1339    0.006     C
H       0.4351   0.2363   0.5118     H
H       0.4367   0.9136   0.1306     H
C       0.4389   0.6842   0.0092     C
C       0.4426   0.6955    0.205     C
C       0.4454   0.3135    0.711     C
H       0.4482   0.6229   0.1359     H
H       0.4498   0.5854   0.5431     H
C       0.4517   0.3943   0.7971     C
H       0.4568   0.7409   0.3972     H
C       0.4571    0.007   0.5997     C
C       0.4583   0.3072   0.9856     C
H       0.4585   0.7584    0.282     H
C       0.4601   0.5094   0.4042     C
H       0.4612   0.8797   0.8489     H
C       0.4653    0.005    0.161     C
H       0.4666   0.5141   0.1114     H
H       0.4675   0.9888   0.8505     H
C       0.4686   0.2379   0.2524     C
C       0.4694    0.038   0.4185     C
C       0.4711   0.5141   0.6405     C
C       0.4716    0.494     0.87     C
C       0.4733    0.266    0.601     C
C       0.4751   0.6387   0.1747     C
C       0.4759   0.7959   0.7946     C
C       0.4772   0.0587    0.643     C
H        0.478   0.3972   0.3338     H
H       0.4797   0.9256    0.496     H
C       0.4806   0.1972   0.9999     C
C       0.4815   0.7199    0.262     C
H       0.4835   0.2799   0.2656     H
C       0.4868   0.5566   0.4519     C
H       0.4895    0.103   0.0045     H
C       0.4945   0.0917   0.4675     C
C       0.4974    0.569   0.6883     C
C       0.4978   0.8579    0.816     C
C       0.5022   0.1421    0.184     C
C       0.5026    0.431   0.3117     C
C       0.5055   0.9083   0.5325     C
H       0.5105    0.897   0.9955     H
C       0.5132   0.4434   0.5481     C
H       0.5165   0.7201   0.7344     H
C       0.5185   0.2801    0.738     C
C       0.5194   0.8028   0.0001     C
H       0.5203   0.0744    0.504     H
H        0.522   0.6028   0.6662     H
C       0.5228   0.9413    0.357     C
C       0.5241   0.2041   0.2054     C
C       0.5249   0.3613   0.8253     C
C       0.5267    0.734    0.399     C
C       0.5284    0.506     0.13     C
C       0.5289   0.4859   0.3595     C
C       0.5306    0.962   0.5815     C
C       0.5314   0.7621   0.7476     C
H       0.5325   0.0112   0.1495     H
H       0.5334   0.4859   0.8886     H
C       0.5347    0.995    0.839     C
H       0.5388   0.1203   0.1511     H
C       0.5399   0.4906   0.5958     C
H       0.5415   0.2416    0.718     H
C       0.5417   0.6928   0.0144     C
C       0.5429    0.993   0.4003     C
H       0.5432   0.2591   0.6028     H
C       0.5483   0.6057   0.2029     C
H       0.5502   0.4146   0.4569     H
H       0.5518   0.3771   0.8641     H
C       0.5546   0.6865    0.289     C
C       0.5574   0.3045    0.795     C
C       0.5611   0.3158   0.9908     C
H       0.5633   0.0864   0.8694     H
H       0.5649   0.7637   0.4882     H
C       0.5649   0.8661    0.994     C
H        0.565   0.4164   0.2904     H
H       0.5662    0.325    0.184     H
H       0.5665   0.4178    0.092     H
H       0.5683   0.8862   0.5202     H
C       0.5704   0.1388   0.4497     C
H       0.5711   0.6065    0.039     H
C       0.5735    0.064   0.6687     C
C       0.5757   0.5581   0.7377     C
C       0.5761   0.8865    0.787     C
C       0.5791   0.7523     0.01     C
O       0.5805   0.8438   0.2338     O
N       0.5808   0.5458  0.17357     N
H       0.5822   0.8527   0.3508     H
C       0.5834   0.2074   0.0052     C
C       0.5837   0.5799   0.4528     C
C       0.5839   0.4532   0.1196     C
C       0.5867   0.7464   0.4486     C
C       0.5869   0.4207   0.4963     C
C       0.5881   0.0484   0.8493     C
H       0.5887    0.098   0.6986     H
C       0.5888   0.6293   0.2602     C
N       0.5888  0.70906  0.35078     N
H       0.5894   0.3551   0.9873     H
O       0.5922   0.1443  0.39587     O
H       0.5929   0.1795   0.7979     H
H       0.5975   0.8644   0.9533     H
N       0.5986   0.9513  0.80798     N
H       0.6032   0.6114   0.4842     H
O       0.6034  0.50505  0.74521     O
C       0.6036   0.8929   0.3388     C
H        0.606   0.5065   0.5974     H
O       0.6061  0.60853  0.77063     O
H       0.6078   0.9978   0.4177     H
O       0.6088  0.17249  0.49677     O
N       0.6091   0.2342  0.18051     N
C       0.6094   0.7922   0.7208     C
C       0.6108   0.6391   0.0227     C
O        0.615  0.88568  0.09983     O
O       0.6186   0.3123   0.4739     O
C       0.6187   0.2958   0.1765     C
C       0.6225   0.2668   0.0013     C
C       0.6234   0.8857   0.2692     C
O       0.6247  0.61844  0.91238     O
C       0.6251   0.9699   0.6073     C
C       0.6255   0.5105   0.3616     C
H       0.6269   0.1745   0.0114     H
C       0.6318   0.8544   0.7394     C
N       0.6353  0.26997  0.82188     N
H        0.638   0.4531   0.4934     H
H       0.6384   0.6069    0.279     H
C       0.6392   0.3608   0.5059     C
C        0.642   0.8875   0.0441     C
C       0.6423    0.207   0.8164     C
C       0.6466   0.0202   0.6511     C
H       0.6491   0.7586    0.014     H
C       0.6518   0.5574   0.4082     C
H       0.6603   0.7456    0.883     H
H       0.6617   0.6536   0.0539     H
C       0.6642    0.515   0.1878     C
C       0.6648   0.6102   0.9643     C
N       0.6649  0.75779  0.67096     N
H       0.6662   0.9052   0.3611     H
H       0.6676   0.7487   0.1434     H
N       0.6696  0.45893  0.15562     N
H       0.6732   0.4954   0.3314     H
H       0.6746   0.8189   0.6079     H
H       0.6759   0.9406    0.595     H
O       0.6819  0.92505  0.24929     O
C       0.6827   0.7074    0.374     C
H       0.6839   0.8744   0.7201     H
N       0.6842  0.73011  0.43357     N
N        0.685  0.03914  0.82585     N
C       0.6873   0.9797   0.8011     C
C       0.6903   0.7788   0.6176     C
H       0.6923   0.2735   0.0059     H
H       0.6941   0.6712   0.6988     H
C       0.7004    0.698   0.6682     C
Zn     0.70079  0.24193   0.4939    Zn
O       0.7014    0.361   0.5439     O
C       0.7016    0.207   0.1658     C
Zn     0.70532  0.60268  0.83674    Zn
H       0.7112   0.0246   0.6688     H
N       0.7119  0.30957  0.16063     N
H       0.7127   0.5313    0.217     H
H       0.7174    0.574   0.4092     H
H        0.718   0.1645   0.1642     H
Zn     0.72052  0.89465  0.16232    Zn
C       0.7209    0.294   0.8517     C
H       0.7221   0.1473   0.5977     H
C       0.7232   0.7436   0.8629     C
O       0.7258   0.9033  0.03039     O
N       0.7271   0.1891  0.84029     N
C       0.7361   0.7536   0.1542     C
H       0.7374   0.3363   0.8621     H
H       0.7396   0.6922   0.3512     H
N       0.7401  0.73622  0.58038     N
O       0.7424   0.5803    0.969     O
H       0.7439   0.9601   0.7813     H
C       0.7464   0.6853   0.6124     C
C       0.7536   0.1853   0.6124     C
H       0.7561   0.4601   0.7813     H
O       0.7576   0.0803    0.969     O
N       0.7599  0.23622  0.58038     N
H       0.7604   0.1922   0.3512     H
H       0.7626   0.8363   0.8621     H
C       0.7639   0.2536   0.1542     C
N       0.7729   0.6891  0.84029     N
O       0.7742   0.4033  0.03039     O
C       0.7768   0.2436   0.8629     C
H       0.7779   0.6473   0.5977     H
C       0.7791    0.794   0.8517     C
Zn     0.77948  0.39465  0.16232    Zn
H        0.782   0.6645   0.1642     H
H       0.7826    0.074   0.4092     H
H       0.7873   0.0313    0.217     H
N       0.7881  0.80957  0.16063     N
H       0.7888   0.5246   0.6688     H
Zn     0.79468  0.10268  0.83674    Zn
C       0.7984    0.707   0.1658     C
O       0.7986    0.861   0.5439     O
Zn     0.79921  0.74193   0.4939    Zn
C       0.7996    0.198   0.6682     C
H       0.8059   0.1712   0.6988     H
H       0.8077   0.7735   0.0059     H
C       0.8097   0.2788   0.6176     C
C       0.8127   0.4797   0.8011     C
N        0.815  0.53914  0.82585     N
N       0.8158  0.23011  0.43357     N
H       0.8161   0.3744   0.7201     H
C       0.8173   0.2074    0.374     C
O       0.8181  0.42505  0.24929     O
H       0.8241   0.4406    0.595     H
H       0.8254   0.3189   0.6079     H
H       0.8268   0.9954   0.3314     H
N       0.8304  0.95893  0.15562     N
H       0.8324   0.2487   0.1434     H
H       0.8338   0.4052   0.3611     H
N       0.8351  0.25779  0.67096     N
C       0.8352   0.1102   0.9643     C
C       0.8358    0.015   0.1878     C
H       0.8383   0.1536   0.0539     H
H       0.8397   0.2456    0.883     H
C       0.8482   0.0574   0.4082     C
H       0.8509   0.2586    0.014     H
C       0.8534   0.5202   0.6511     C
C       0.8577    0.707   0.8164     C
C        0.858   0.3875   0.0441     C
C       0.8608   0.8608   0.5059     C
H       0.8616   0.1069    0.279     H
H        0.862   0.9531   0.4934     H
N       0.8647  0.76997  0.82188     N
C       0.8682   0.3544   0.7394     C
H       0.8731   0.6745   0.0114     H
C       0.8745   0.0105   0.3616     C
C       0.8749   0.4699   0.6073     C
O       0.8753  0.11844  0.91238     O
C       0.8766   0.3857   0.2692     C
C       0.8775   0.7668   0.0013     C
C       0.8813   0.7958   0.1765     C
O       0.8814   0.8123   0.4739     O
O        0.885  0.38568  0.09983     O
C       0.8892   0.1391   0.0227     C
C       0.8906   0.2922   0.7208     C
N       0.8909   0.7342  0.18051     N
O       0.8912  0.67249  0.49677     O
H       0.8922   0.4978   0.4177     H
O       0.8939  0.10853  0.77063     O
H        0.894   0.0065   0.5974     H
C       0.8964   0.3929   0.3388     C
O       0.8966  0.00505  0.74521     O
H       0.8968   0.1114   0.4842     H
N       0.9014   0.4513  0.80798     N
H       0.9025   0.3644   0.9533     H
H       0.9071   0.6795   0.7979     H
O       0.9078   0.6443  0.39587     O
H       0.9106   0.8551   0.9873     H
C       0.9112   0.1293   0.2602     C
N       0.9112  0.20906  0.35078     N
H       0.9113    0.598   0.6986     H
C       0.9119   0.5484   0.8493     C
C       0.9131   0.9207   0.4963     C
C       0.9133   0.2464   0.4486     C
C       0.9161   0.9532   0.1196     C
C       0.9163   0.0799   0.4528     C
C       0.9166   0.7074   0.0052     C
H       0.9178   0.3527   0.3508     H
N       0.9192   0.0458  0.17357     N
O       0.9195   0.3438   0.2338     O
C       0.9209   0.2523     0.01     C
C       0.9239   0.3865    0.787     C
C       0.9243   0.0581   0.7377     C
C       0.9265    0.564   0.6687     C
H       0.9289   0.1065    0.039     H
C       0.9296   0.6388   0.4497     C
H       0.9317   0.3862   0.5202     H
H       0.9335   0.9178    0.092     H
H       0.9338    0.825    0.184     H
H        0.935   0.9164   0.2904     H
H       0.9351   0.2637   0.4882     H
C       0.9351   0.3661    0.994     C
H       0.9367   0.5864   0.8694     H
C       0.9389   0.8158   0.9908     C
C       0.9426   0.8045    0.795     C
C       0.9454   0.1865    0.289     C
H       0.9482   0.8771   0.8641     H
H       0.9498   0.9146   0.4569     H
C       0.9517   0.1057   0.2029     C
H       0.9568   0.7591   0.6028     H
C       0.9571    0.493   0.4003     C
C       0.9583   0.1928   0.0144     C
H       0.9585   0.7416    0.718     H
C       0.9601   0.9906   0.5958     C
H       0.9612   0.6203   0.1511     H
C       0.9653    0.495    0.839     C
H       0.9666   0.9859   0.8886     H
H       0.9675   0.5112   0.1495     H
C       0.9686   0.2621   0.7476     C
C       0.9694    0.462   0.5815     C
C       0.9711   0.9859   0.3595     C
C       0.9716    0.006     0.13     C
C       0.9733    0.234    0.399     C
C       0.9751   0.8613   0.8253     C
C       0.9759   0.7041   0.2054     C
C       0.9772   0.4413    0.357     C
H        0.978   0.1028   0.6662     H
H       0.9797   0.5744    0.504     H
C       0.9806   0.3028   0.0001     C
C       0.9815   0.7801    0.738     C
H       0.9835   0.2201   0.7344     H
C       0.9868   0.9434   0.5481     C
H       0.9895    0.397   0.9955     H
C       0.9945   0.4083   0.5325     C
C       0.9974    0.931   0.3117     C
C       0.9978   0.6421    0.184     C
