data_I
_chemical_name_common  '/Users/gianmarcoterrones/Research/MOFs/MOF_structures/water_stability_work_extra_structs/cleaned_from_CCDC/KOMFIC'
_cell_length_a  7.96930
_cell_length_b 10.26700
_cell_length_c 12.97700
_cell_angle_alpha 90.00000
_cell_angle_beta  90.00000
_cell_angle_gamma 90.22100
_space_group_name_H-M_alt      'P 1'


loop_
_space_group_symop_operation_xyz
  'x, y, z' 

loop_
_atom_site_label
_atom_site_fract_x
_atom_site_fract_y
_atom_site_fract_z
_atom_site_type_symbol
Cu         0.0      0.5      0.0    Cu
H       0.0098   0.7463   0.4215     H
H       0.0423   0.2769   0.1733     H
H       0.0714   0.2783   0.8413     H
C       0.1009   0.2264   0.5849     C
N       0.1064   0.4688  0.86203     N
C       0.1122   0.3567   0.8154     C
C       0.1419   0.2896   0.1373     C
N        0.166   0.3745   0.0646     N
N       0.1697   0.1345    0.531     N
N       0.1804   0.5628   0.7992     N
N       0.1872   0.3734   0.7232     N
N       0.2148   0.2768    0.652     N
H       0.2206   0.9579   0.1601     H
C       0.2269   0.5029   0.7161     C
C       0.2731   0.9971   0.2161     C
H       0.2794   0.5421   0.6601     H
N       0.2852   0.2232    0.152     N
N       0.3128   0.1266   0.2232     N
N       0.3196   0.9372   0.2992     N
N       0.3303   0.3655    0.031     N
N        0.334   0.1255   0.5646     N
C       0.3581   0.2104   0.6373     C
C       0.3878   0.1433   0.3154     C
N       0.3936   0.0312  0.36203     N
C       0.3991   0.2736   0.0849     C
H       0.4286   0.2217   0.3413     H
H       0.4577   0.2231   0.6733     H
H       0.4902   0.7537   0.9215     H
Cu         0.5      0.0      0.5    Cu
H       0.5098   0.2463   0.0785     H
H       0.5423   0.7769   0.3267     H
H       0.5714   0.7783   0.6587     H
C       0.6009   0.7264   0.9151     C
N       0.6064   0.9688  0.63797     N
C       0.6122   0.8567   0.6846     C
C       0.6419   0.7896   0.3627     C
N        0.666   0.8745   0.4354     N
N       0.6697   0.6345    0.969     N
N       0.6804   0.0628   0.7008     N
N       0.6872   0.8734   0.7768     N
N       0.7148   0.7768    0.848     N
H       0.7206   0.4579   0.3399     H
C       0.7269   0.0029   0.7839     C
C       0.7731   0.4971   0.2839     C
H       0.7794   0.0421   0.8399     H
N       0.7852   0.7232    0.348     N
N       0.8128   0.6266   0.2768     N
N       0.8196   0.4372   0.2008     N
N       0.8303   0.8655    0.469     N
N        0.834   0.6255   0.9354     N
C       0.8581   0.7104   0.8627     C
C       0.8878   0.6433   0.1846     C
N       0.8936   0.5312  0.13797     N
C       0.8991   0.7736   0.4151     C
H       0.9286   0.7217   0.1587     H
H       0.9577   0.7231   0.8267     H
H       0.9902   0.2537   0.5785     H
