data_I
_chemical_name_common  '/Users/gianmarcoterrones/Research/MOFs/MOF_structures/water_stability_work_extra_structs/cleaned_from_CoRE/KUZYUB_clean'
_cell_length_a  9.85800
_cell_length_b 24.97200
_cell_length_c 24.97200
_cell_angle_alpha 120.00000
_cell_angle_beta  90.00000
_cell_angle_gamma 90.00000
_space_group_name_H-M_alt      'P 1'


loop_
_space_group_symop_operation_xyz
  'x, y, z' 

loop_
_atom_site_label
_atom_site_fract_x
_atom_site_fract_y
_atom_site_fract_z
_atom_site_type_symbol
C       0.0081   0.2754   0.7121     C
C       0.0081   0.2879   0.5633     C
C       0.0081   0.4367   0.7246     C
O       0.0123   0.2308   0.6616     O
O       0.0123   0.3384   0.5692     O
O       0.0123   0.4308   0.7692     O
O       0.1063   0.2427   0.5547     O
O       0.1063    0.312   0.7573     O
O       0.1063   0.4453    0.688     O
O       0.1079   0.2776   0.5792     O
O       0.1079   0.3016   0.7224     O
O       0.1079   0.4208   0.6984     O
C       0.1227   0.5264   0.1892     C
C       0.1227   0.6628   0.4736     C
C       0.1227   0.8108   0.3372     C
C       0.1252   0.4905    0.003     C
C       0.1252   0.5125   0.5095     C
C       0.1252   0.5492   0.2539     C
C       0.1252   0.7047   0.4508     C
C       0.1252   0.7461   0.2953     C
C       0.1252    0.997   0.4875     C
O       0.1255    0.127   0.5738     O
O       0.1255   0.4262   0.5532     O
O       0.1255   0.4468    0.873     O
C       0.1309   0.5124   0.0662     C
C       0.1309   0.5538   0.4876     C
C       0.1309   0.9338   0.4462     C
O        0.183    0.141   0.5278     O
O        0.183   0.3868    0.859     O
O        0.183   0.4722   0.6132     O
O        0.188 0.33333333 0.66666667     O
C         0.19   0.4401   0.0497     C
C         0.19   0.6096   0.5599     C
C         0.19   0.9503   0.3904     C
C       0.1958   0.0135   0.4317     C
C       0.1958   0.4182   0.9865     C
C       0.1958   0.5683   0.5818     C
C       0.2118   0.0369   0.4803     C
C       0.2118   0.4434   0.9631     C
C       0.2118   0.5197   0.5566     C
C        0.213   0.1024    0.527     C
C        0.213   0.4246   0.8976     C
C        0.213    0.473   0.5754     C
C        0.223   0.4872   0.0896     C
C        0.223   0.6024   0.5128     C
C        0.223   0.9104   0.3976     C
Sm        0.25  0.22855  0.62683    Sm
Sm        0.25  0.37317  0.60172    Sm
Sm        0.25  0.39828  0.77145    Sm
C         0.25   0.5118   0.1567     C
C         0.25   0.5607   0.2845     C
C         0.25   0.6449   0.4882     C
C         0.25   0.7155   0.2762     C
C         0.25   0.7238   0.4393     C
C         0.25   0.8433   0.3551     C
C       0.3042   0.0135   0.4317     C
C       0.3042   0.4182   0.9865     C
C       0.3042   0.5683   0.5818     C
C         0.31   0.4401   0.0497     C
C         0.31   0.6096   0.5599     C
C         0.31   0.9503   0.3904     C
O        0.312 0.33333333 0.66666667     O
O        0.317    0.141   0.5278     O
O        0.317   0.3868    0.859     O
O        0.317   0.4722   0.6132     O
C       0.3691   0.5124   0.0662     C
C       0.3691   0.5538   0.4876     C
C       0.3691   0.9338   0.4462     C
O       0.3745    0.127   0.5738     O
O       0.3745   0.4262   0.5532     O
O       0.3745   0.4468    0.873     O
C       0.3748   0.4905    0.003     C
C       0.3748   0.5125   0.5095     C
C       0.3748   0.5492   0.2539     C
C       0.3748   0.7047   0.4508     C
C       0.3748   0.7461   0.2953     C
C       0.3748    0.997   0.4875     C
C       0.3773   0.5264   0.1892     C
C       0.3773   0.6628   0.4736     C
C       0.3773   0.8108   0.3372     C
O       0.3921   0.2776   0.5792     O
O       0.3921   0.3016   0.7224     O
O       0.3921   0.4208   0.6984     O
O       0.3937   0.2427   0.5547     O
O       0.3937    0.312   0.7573     O
O       0.3937   0.4453    0.688     O
O       0.4877   0.2308   0.6616     O
O       0.4877   0.3384   0.5692     O
O       0.4877   0.4308   0.7692     O
C       0.4919   0.2754   0.7121     C
C       0.4919   0.2879   0.5633     C
C       0.4919   0.4367   0.7246     C
C       0.5081   0.5633   0.2879     C
C       0.5081   0.7121   0.2754     C
C       0.5081   0.7246   0.4367     C
O       0.5123   0.5692   0.3384     O
O       0.5123   0.6616   0.2308     O
O       0.5123   0.7692   0.4308     O
O       0.6063   0.5547   0.2427     O
O       0.6063    0.688   0.4453     O
O       0.6063   0.7573    0.312     O
O       0.6079   0.5792   0.2776     O
O       0.6079   0.6984   0.4208     O
O       0.6079   0.7224   0.3016     O
C       0.6227   0.1892   0.5264     C
C       0.6227   0.3372   0.8108     C
C       0.6227   0.4736   0.6628     C
C       0.6252    0.003   0.4905     C
C       0.6252   0.2539   0.5492     C
C       0.6252   0.2953   0.7461     C
C       0.6252   0.4508   0.7047     C
C       0.6252   0.4875    0.997     C
C       0.6252   0.5095   0.5125     C
O       0.6255   0.5532   0.4262     O
O       0.6255   0.5738    0.127     O
O       0.6255    0.873   0.4468     O
C       0.6309   0.0662   0.5124     C
C       0.6309   0.4462   0.9338     C
C       0.6309   0.4876   0.5538     C
O        0.683   0.5278    0.141     O
O        0.683   0.6132   0.4722     O
O        0.683    0.859   0.3868     O
O        0.688 0.66666667 0.33333333     O
C         0.69   0.0497   0.4401     C
C         0.69   0.3904   0.9503     C
C         0.69   0.5599   0.6096     C
C       0.6958   0.4317   0.0135     C
C       0.6958   0.5818   0.5683     C
C       0.6958   0.9865   0.4182     C
C       0.7118   0.4803   0.0369     C
C       0.7118   0.5566   0.5197     C
C       0.7118   0.9631   0.4434     C
C        0.713    0.527   0.1024     C
C        0.713   0.5754    0.473     C
C        0.713   0.8976   0.4246     C
C        0.723   0.0896   0.4872     C
C        0.723   0.3976   0.9104     C
C        0.723   0.5128   0.6024     C
C         0.75   0.1567   0.5118     C
C         0.75   0.2762   0.7155     C
C         0.75   0.2845   0.5607     C
C         0.75   0.3551   0.8433     C
C         0.75   0.4393   0.7238     C
C         0.75   0.4882   0.6449     C
Sm        0.75  0.60172  0.37317    Sm
Sm        0.75  0.62683  0.22855    Sm
Sm        0.75  0.77145  0.39828    Sm
C       0.8042   0.4317   0.0135     C
C       0.8042   0.5818   0.5683     C
C       0.8042   0.9865   0.4182     C
C         0.81   0.0497   0.4401     C
C         0.81   0.3904   0.9503     C
C         0.81   0.5599   0.6096     C
O        0.812 0.66666667 0.33333333     O
O        0.817   0.5278    0.141     O
O        0.817   0.6132   0.4722     O
O        0.817    0.859   0.3868     O
C       0.8691   0.0662   0.5124     C
C       0.8691   0.4462   0.9338     C
C       0.8691   0.4876   0.5538     C
O       0.8745   0.5532   0.4262     O
O       0.8745   0.5738    0.127     O
O       0.8745    0.873   0.4468     O
C       0.8748    0.003   0.4905     C
C       0.8748   0.2539   0.5492     C
C       0.8748   0.2953   0.7461     C
C       0.8748   0.4508   0.7047     C
C       0.8748   0.4875    0.997     C
C       0.8748   0.5095   0.5125     C
C       0.8773   0.1892   0.5264     C
C       0.8773   0.3372   0.8108     C
C       0.8773   0.4736   0.6628     C
O       0.8921   0.5792   0.2776     O
O       0.8921   0.6984   0.4208     O
O       0.8921   0.7224   0.3016     O
O       0.8937   0.5547   0.2427     O
O       0.8937    0.688   0.4453     O
O       0.8937   0.7573    0.312     O
O       0.9877   0.5692   0.3384     O
O       0.9877   0.6616   0.2308     O
O       0.9877   0.7692   0.4308     O
C       0.9919   0.5633   0.2879     C
C       0.9919   0.7121   0.2754     C
C       0.9919   0.7246   0.4367     C
