data_I
_chemical_name_common  '/Users/gianmarcoterrones/Downloads/La-Cu'
_cell_length_a  9.15500
_cell_length_b  9.54540
_cell_length_c 21.56790
_cell_angle_alpha 90.00000
_cell_angle_beta  90.00000
_cell_angle_gamma 116.27800
_space_group_name_H-M_alt      'P 1'


loop_
_space_group_symop_operation_xyz
  'x, y, z' 

loop_
_atom_site_label
_atom_site_fract_x
_atom_site_fract_y
_atom_site_fract_z
_atom_site_type_symbol
H       0.0023   0.6539   0.7757     H
C       0.0034   0.4772   0.4661     C
N       0.0094   0.8639     0.62     N
C       0.0098   0.5249   0.8801     C
C       0.0109   0.0071   0.9658     C
C       0.0328    0.575    0.767     C
C       0.0456   0.4876   0.8156     C
O       0.0486   0.4688   0.9258     O
Cu     0.04875  0.69081  0.64575    Cu
O       0.0498   0.1159   0.0662     O
C       0.0499   0.8854   0.4151     C
O       0.0578   0.3859   0.1151     O
N       0.0622    0.552   0.7073     N
H       0.0707   0.8025   0.4271     H
C        0.088   0.3685   0.8032     C
O       0.0884   0.1435   0.9435     O
C       0.0934   0.1094    0.567     C
C        0.099   0.4328   0.6965     C
H       0.0995    0.309   0.8353     H
C       0.1131   0.3393   0.7426     C
H       0.1159   0.4121   0.6557     H
C       0.1174   0.9831   0.5846     C
La     0.12122  0.35765  0.00938    La
C        0.124   0.1229   0.3623     C
O       0.1273    0.619   0.5581     O
O       0.1386   0.5394   0.4394     O
H       0.1392   0.2581   0.7329     H
C       0.1596   0.0033   0.3797     C
O       0.1682   0.7848   0.0039     O
H       0.1975   0.1999   0.3364     H
H       0.2122   0.9786   0.5718     H
O       0.2139   0.3673   0.5311     O
C       0.2236   0.2399   0.5304     C
H       0.2433   0.9975   0.8675     H
H       0.2567   0.0025   0.3675     H
C       0.2764   0.7601   0.0304     C
O       0.2861   0.6327   0.0311     O
H       0.2878   0.0214   0.0718     H
H       0.3025   0.8001   0.8364     H
O       0.3318   0.2152   0.5039     O
C       0.3404   0.9967   0.8797     C
H       0.3608   0.7419   0.2329     H
O       0.3614   0.4606   0.9394     O
O       0.3727    0.381   0.0581     O
C        0.376   0.8771   0.8623     C
La     0.37878  0.64235  0.50938    La
C       0.3826   0.0169   0.0846     C
H       0.3841   0.5879   0.1557     H
C       0.3869   0.6607   0.2426     C
H       0.4005    0.691   0.3353     H
C        0.401   0.5672   0.1965     C
C       0.4066   0.8906    0.067     C
O       0.4116   0.8565   0.4435     O
C        0.412   0.6315   0.3032     C
H       0.4293   0.1975   0.9271     H
N       0.4378    0.448   0.2073     N
O       0.4422   0.6141   0.6151     O
C       0.4501   0.1146   0.9151     C
O       0.4502   0.8841   0.5662     O
Cu     0.45125  0.30919  0.14575    Cu
O       0.4514   0.5312   0.4258     O
C       0.4544   0.5124   0.3156     C
C       0.4672    0.425    0.267     C
C       0.4891   0.9929   0.4658     C
C       0.4902   0.4751   0.3801     C
N       0.4906   0.1361     0.12     N
C       0.4966   0.5228   0.9661     C
H       0.4977   0.3461   0.2757     H
H       0.5023   0.6539   0.7243     H
C       0.5034   0.4772   0.0339     C
N       0.5094   0.8639     0.88     N
C       0.5098   0.5249   0.6199     C
C       0.5109   0.0071   0.5342     C
C       0.5328    0.575    0.733     C
C       0.5456   0.4876   0.6844     C
O       0.5486   0.4688   0.5742     O
Cu     0.54875  0.69081  0.85425    Cu
O       0.5498   0.1159   0.4338     O
C       0.5499   0.8854   0.0849     C
O       0.5578   0.3859   0.3849     O
N       0.5622    0.552   0.7927     N
H       0.5707   0.8025   0.0729     H
C        0.588   0.3685   0.6968     C
O       0.5884   0.1435   0.5565     O
C       0.5934   0.1094    0.933     C
C        0.599   0.4328   0.8035     C
H       0.5995    0.309   0.6647     H
C       0.6131   0.3393   0.7574     C
H       0.6159   0.4121   0.8443     H
C       0.6174   0.9831   0.9154     C
La     0.62122  0.35765  0.49062    La
C        0.624   0.1229   0.1377     C
O       0.6273    0.619   0.9419     O
O       0.6386   0.5394   0.0606     O
H       0.6392   0.2581   0.7671     H
C       0.6596   0.0033   0.1203     C
O       0.6682   0.7848   0.4961     O
H       0.6975   0.1999   0.1636     H
H       0.7122   0.9786   0.9282     H
O       0.7139   0.3673   0.9689     O
C       0.7236   0.2399   0.9696     C
H       0.7433   0.9975   0.6325     H
H       0.7567   0.0025   0.1325     H
C       0.7764   0.7601   0.4696     C
O       0.7861   0.6327   0.4689     O
H       0.7878   0.0214   0.4282     H
H       0.8025   0.8001   0.6636     H
O       0.8318   0.2152   0.9961     O
C       0.8404   0.9967   0.6203     C
H       0.8608   0.7419   0.2671     H
O       0.8614   0.4606   0.5606     O
O       0.8727    0.381   0.4419     O
C        0.876   0.8771   0.6377     C
La     0.87878  0.64235  0.99062    La
C       0.8826   0.0169   0.4154     C
H       0.8841   0.5879   0.3443     H
C       0.8869   0.6607   0.2574     C
H       0.9005    0.691   0.1647     H
C        0.901   0.5672   0.3035     C
C       0.9066   0.8906    0.433     C
O       0.9116   0.8565   0.0565     O
C        0.912   0.6315   0.1968     C
H       0.9293   0.1975   0.5729     H
N       0.9378    0.448   0.2927     N
O       0.9422   0.6141   0.8849     O
C       0.9501   0.1146   0.5849     C
O       0.9502   0.8841   0.9338     O
Cu     0.95125  0.30919  0.35425    Cu
O       0.9514   0.5312   0.0742     O
C       0.9544   0.5124   0.1844     C
C       0.9672    0.425    0.233     C
C       0.9891   0.9929   0.0342     C
C       0.9902   0.4751   0.1199     C
N       0.9906   0.1361     0.38     N
C       0.9966   0.5228   0.5339     C
H       0.9977   0.3461   0.2243     H
