data_I
_chemical_name_common  '/Users/gianmarcoterrones/Downloads/LaBTB'
_cell_length_a 28.76440
_cell_length_b 28.76440
_cell_length_c 12.56330
_cell_angle_alpha 90.00000
_cell_angle_beta  90.00000
_cell_angle_gamma 120.00000
_space_group_name_H-M_alt      'P 1'


loop_
_space_group_symop_operation_xyz
  'x, y, z' 

loop_
_atom_site_label
_atom_site_fract_x
_atom_site_fract_y
_atom_site_fract_z
_atom_site_type_symbol
O          0.0  0.23432      0.0     O
La         0.0 0.32221613      0.0    La
C          0.0  0.43304      0.5     C
C          0.0  0.48652      0.5     C
C          0.0  0.58252      0.5     C
C          0.0  0.63362      0.5     C
C          0.0  0.73024      0.5     C
H          0.0 0.762867      0.5     H
H       0.0111     0.23   0.0599     H
La    0.01111713 0.34445113 0.666667    La
O     0.0132216  0.39193  0.83302     O
C      0.01582  0.61832  0.15944     C
O      0.01632  0.42062  0.41694     O
C      0.01643  0.71472  0.17474     C
H     0.016667 0.747533 0.180833     H
C      0.01712  0.56682  0.14915     C
C      0.01952  0.49303  0.80925     C
C      0.02072  0.54244  0.79795     C
C      0.02172  0.47272  0.13425     C
C      0.02212  0.42152  0.11984     C
C      0.03172  0.65033  0.84144     C
O      0.03243 0.2781216  0.38704     O
C      0.03312  0.69982 0.833333     C
C      0.03554  0.52742  0.43475     C
C      0.03602  0.57532  0.43665     C
O     0.0453816 0.3201116  0.16632     O
H       0.0467   0.5697   0.7549     H
H       0.0468   0.4886   0.7784     H
C      0.04812  0.68303  0.49194     C
C      0.04842  0.73083  0.49274     C
O     0.0552116 0.4209314  0.05374     O
C      0.05772  0.56522  0.09135     C
O      0.05863 0.3465516  0.50032     O
H     0.058933 0.522567 0.389867     H
C      0.06004  0.51832  0.08195     C
H     0.061033 0.603967 0.394367     H
H       0.0627   0.7904   0.7277     H
C      0.06354 0.666667 0.166667     C
H       0.0642     0.65   0.8475     H
C      0.06423  0.71502  0.17394     C
C      0.06613  0.31122  0.45314     C
H     0.070067 0.820933 0.391433     H
O      0.07103  0.31702  0.75024     O
H     0.080867 0.683333 0.485833     H
H       0.0842   0.5966   0.0581     H
C      0.08422  0.75092 0.833333     C
H       0.0869   0.5174   0.0409     H
O      0.08732  0.34972  0.91654     O
O     0.0876014 0.3885416  0.27964     O
C      0.08822  0.35542  0.21354     C
C      0.09142  0.79413  0.76995     C
H       0.0962 0.666667 0.166667     H
H     0.096967 0.810333 0.088233     H
H     0.097167 0.246433 0.374233     H
O      0.09902  0.43242 0.666667     O
C      0.09964 0.333333 0.833333     C
C      0.09992  0.78363  0.48245     C
C      0.10152  0.82583  0.42465     C
H     0.103333 0.447767 0.726567     H
H     0.108467 0.286533 0.111733     H
H     0.114433 0.436667 0.606767     H
C      0.11703  0.76652  0.18425     C
C      0.11773  0.31162  0.46755     C
H     0.123733 0.729367 0.938967     H
C      0.12434  0.81164  0.13125     C
C      0.12504  0.27334  0.41525     C
C      0.12743  0.75812  0.89685     C
H       0.1303   0.2744   0.7232     H
C      0.13932  0.84154  0.76805     C
C      0.13942  0.35502  0.19915     C
C      0.14022  0.31382  0.14255     C
H     0.143667 0.763633 0.578433     H
H       0.1441   0.8697   0.7232     H
C      0.14504  0.79094  0.53545     C
C      0.14842  0.87504  0.41525     C
H     0.149267 0.902833 0.374233     H
C      0.15312 0.333333 0.833333     C
H     0.154267 0.736733 0.275233     H
H     0.155267 0.380133 0.554933     H
C      0.15854  0.29784  0.76805     C
C      0.15923  0.76812  0.24205     C
C      0.15973  0.35282  0.52415     C
C      0.17373  0.85982  0.14255     C
C      0.17423  0.27562  0.42465     C
C      0.17484  0.80602  0.89875     C
H     0.178067 0.891533 0.111733     H
H     0.179067 0.249133 0.391433     H
C      0.18022  0.84692 0.833333     C
H     0.184067 0.420233 0.292433     H
C      0.18502  0.39334  0.25145     C
C      0.18844  0.31262  0.13125     C
H     0.189233 0.392267 0.943467     H
H     0.189667 0.286633 0.088233     H
C      0.19322  0.84033  0.52415     C
C      0.19402  0.36894  0.89875     C
C      0.19402  0.88233  0.46755     C
H     0.203033 0.810767 0.943467     H
C      0.20593  0.29732  0.76995     C
C      0.20844  0.81502  0.25145     C
C      0.20914  0.35402  0.53545     C
H       0.2096   0.2723   0.7277     H
C      0.21573  0.86062  0.19915     C
C      0.21643  0.31622  0.48245     C
H       0.2189   0.9889   0.0599     H
H     0.224867 0.844733 0.554933     H
H         0.23   0.0111   0.9401     H
C      0.23192  0.39102  0.24205     C
C      0.23352  0.35042  0.18425     C
C      0.23374  0.90044 0.833333     C
O      0.23432      0.0      0.0     O
H     0.236167 0.815933 0.292433     H
H     0.236367 0.380033 0.578433     H
H     0.237133 0.237133      0.5     H
C      0.24192  0.36942  0.89685     C
C      0.24522  0.93393  0.45314     C
O     0.2457414  0.96763  0.38704     O
O      0.24602  0.92903  0.75024     O
H     0.246433 0.097167 0.625767     H
C      0.24912 0.333333 0.833333     C
H     0.249133 0.179067 0.608567     H
H     0.252467 0.269133 0.180833     H
O      0.26243  0.91272  0.91654     O
H     0.263267 0.417533 0.275233     H
C      0.26733  0.91182  0.21354     C
H     0.269133 0.252467 0.819167     H
C      0.26923  0.31752  0.49274     C
C      0.26984  0.26984      0.5     C
H     0.270633 0.394367 0.938967     H
H       0.2723   0.2096   0.2723     H
C      0.27334  0.12504  0.58485     C
H       0.2744   0.1303   0.2768     H
O      0.27473 0.9546216  0.16632     O
C      0.27562  0.17423  0.57545     C
O     0.2781216  0.03243  0.61304     O
C      0.28502  0.34912  0.17394     C
C      0.28532  0.30162  0.17474     C
H     0.286533 0.108467 0.888267     H
H     0.286633 0.189667 0.911767     H
O     0.2879616  0.94143  0.50032     O
C      0.29732  0.20593  0.23015     C
C      0.29784  0.15854  0.23205     C
C      0.30022 0.333333 0.833333     C
O      0.30093 0.9124014  0.27964     O
C      0.30162  0.28532  0.82534     C
C      0.31122  0.06613  0.54694     C
C      0.31162  0.11773  0.53255     C
C      0.31262  0.18844  0.86885     C
C      0.31382  0.14022  0.85755     C
C      0.31622  0.21643  0.51765     C
H     0.316667 0.397533 0.485833     H
O      0.31702  0.07103  0.24984     O
C      0.31703  0.36502  0.49194     C
C      0.31752  0.26923  0.50734     C
O     0.3201116 0.0453816  0.83372     O
La    0.32221613      0.0      0.0    La
H     0.322233 0.885567 0.606767     H
C     0.333333  0.09964 0.166667     C
C     0.333333  0.15312 0.166667     C
C     0.333333  0.24912 0.166667     C
C     0.333333  0.30022 0.166667     C
C     0.333333  0.39684 0.166667     C
H     0.333333 0.429533 0.166667     H
O     0.333333  0.90102 0.666667     O
La    0.333333 0.98888313 0.666667    La
H     0.344433 0.896667 0.726567     H
La    0.34445113 0.01111713 0.333333    La
O     0.3465516  0.05863  0.49972     O
C      0.34912  0.28502  0.82614     C
O      0.34972  0.08732  0.08354     O
C      0.34973  0.38142  0.84144     C
H         0.35   0.4142   0.8475     H
C      0.35042  0.23352  0.81585     C
C      0.35282  0.15973  0.47595     C
C      0.35402  0.20914  0.46465     C
C      0.35502  0.13942  0.80095     C
C      0.35542  0.08822  0.78654     C
C      0.36502  0.31703  0.50814     C
O      0.36573 0.9447916  0.05374     O
C      0.36642  0.36642      0.5     C
C      0.36894  0.19402  0.10135     C
C      0.36942  0.24192  0.10325     C
O     0.3787116 0.9867816  0.83302     O
H     0.380033 0.236367 0.421567     H
H     0.380133 0.155267 0.445067     H
C      0.38142  0.34973  0.15864     C
C      0.38172  0.39753  0.15944     C
O     0.3885416 0.0876014  0.72044     O
C      0.39102  0.23192  0.75805     C
O      0.39193 0.0132216  0.16702     O
H     0.392267 0.189233 0.056533     H
C      0.39334  0.18502  0.74865     C
H     0.394367 0.270633 0.061033     H
H     0.396033 0.457067 0.394367     H
C      0.39684 0.333333 0.833333     C
C      0.39753  0.38172  0.84064     C
H     0.397533 0.316667 0.514167     H
C      0.39943  0.97792  0.11984     C
H       0.4034   0.4876   0.0581     H
O      0.40433  0.98372  0.41694     O
H       0.4142     0.35   0.1525     H
C      0.41752  0.41752      0.5     C
H     0.417533 0.263267 0.724767     H
H     0.420233 0.184067 0.707567     H
O      0.42062  0.01632  0.58314     O
O     0.4209314 0.0552116  0.94634     O
C      0.42152  0.02212  0.88024     C
C      0.42472  0.46083  0.43665     C
H     0.429533 0.333333 0.833333     H
H       0.4303    0.477   0.7549     H
H       0.4305   0.9131   0.0409     H
O      0.43242  0.09902 0.333333     O
C      0.43304      0.0      0.5     C
C      0.43322  0.45033  0.14915     C
C      0.43482  0.49253  0.09135     C
H     0.436667 0.114433 0.393233     H
H       0.4418   0.9532   0.7784     H
H     0.447767 0.103333 0.273433     H
C      0.45033  0.43322  0.85095     C
C      0.45103  0.97832  0.13425     C
H     0.457067 0.396033 0.605633     H
C      0.45764  0.47834  0.79795     C
C      0.45834  0.94004  0.08195     C
C      0.46083  0.42472  0.56345     C
H     0.463633 0.941067 0.389867     H
C      0.47262  0.50824  0.43475     C
C      0.47272  0.02172  0.86585     C
C      0.47352  0.98052  0.80925     C
H        0.477   0.4303   0.2451     H
H     0.477433 0.536367 0.389867     H
C      0.47834  0.45764  0.20215     C
C      0.48172  0.54174  0.08195     C
H       0.4826   0.5695   0.0409     H
C      0.48652      0.0      0.5     C
H       0.4876   0.4034   0.9419     H
H       0.4886   0.0468   0.2216     H
C      0.49184  0.96454  0.43475     C
C      0.49253  0.43482  0.90875     C
C      0.49303  0.01952  0.19085     C
C      0.50703  0.52652  0.80925     C
C      0.50753  0.94232  0.09135     C
C      0.50824  0.47262  0.56535     C
H       0.5114   0.5582   0.7784     H
H       0.5124   0.9158   0.0581     H
C      0.51352  0.51352      0.5     C
H       0.5174   0.0869   0.9591     H
C      0.51832  0.06004  0.91815     C
C      0.52174  0.97932  0.79795     C
H     0.522567 0.058933 0.610133     H
H        0.523   0.9533   0.7549     H
C      0.52652  0.50703  0.19085     C
C      0.52732  0.54903  0.13425     C
C      0.52742  0.03554  0.56535     C
H     0.536367 0.477433 0.610133     H
C      0.53923  0.96402  0.43665     C
C      0.54174  0.48172  0.91815     C
C      0.54244  0.02072  0.20215     C
H     0.542933 0.938967 0.394367     H
C      0.54903  0.52732  0.86585     C
C      0.54973  0.98292  0.14915     C
H     0.552233 0.655567 0.726567     H
H       0.5582   0.5114   0.2216     H
H     0.563333 0.677767 0.606767     H
C      0.56522  0.05772  0.90875     C
C      0.56682  0.01712  0.85095     C
C      0.56704  0.56704      0.5     C
O      0.56762 0.666667 0.666667     O
H       0.5695   0.4826   0.9591     H
H       0.5697   0.0467   0.2451     H
H     0.570467   0.9038 0.166667     H
C      0.57532  0.03602  0.56345     C
C      0.57852  0.60063  0.11984     C
O     0.5790714  0.63433  0.05374     O
O      0.57942  0.59573  0.41694     O
H     0.579767 0.763833 0.292433     H
H     0.582467 0.845733 0.275233     H
C      0.58252      0.0      0.5     C
H       0.5858   0.9358   0.8475     H
O      0.59573  0.57942  0.58314     O
H       0.5966   0.0842   0.9419     H
C      0.60063  0.57852  0.88024     C
H     0.602467 0.919133 0.485833     H
C      0.60253  0.98422  0.15944     C
C      0.60324  0.93654 0.166667     C
H     0.603967 0.061033 0.605633     H
H     0.605633 0.876267 0.938967     H
C      0.60674  0.79164  0.25145     C
H     0.607733 0.796967 0.943467     H
O      0.60813 0.6212916  0.83302     O
C      0.60902  0.84083  0.24205     C
O     0.6114616  0.69913  0.27964     O
C      0.61832  0.01582  0.84064     C
C      0.61862  0.96832  0.84144     C
H     0.619867 0.775133 0.554933     H
H     0.619967 0.856333 0.578433     H
O     0.6212916  0.60813  0.16702     O
C      0.63062  0.87263  0.89685     C
C      0.63114  0.82524  0.89875     C
C      0.63362      0.0      0.5     C
O      0.63433 0.5790714  0.94634     O
C      0.63502  0.95192  0.49194     C
C      0.64462  0.73273  0.21354     C
C      0.64502  0.78433  0.19915     C
C      0.64602  0.85504  0.53545     C
C      0.64722  0.80682  0.52415     C
C      0.64962  0.88303  0.18425     C
H         0.65   0.0642   0.1525     H
O      0.65032  0.73763  0.91654     O
C      0.65033  0.03172  0.15864     C
C      0.65092  0.93583  0.17394     C
O     0.6534516 0.7120416  0.50032     O
La    0.65554913 0.666667 0.666667    La
H     0.655567 0.552233 0.273433     H
C     0.666667  0.06354 0.833333     C
H     0.666667   0.0962 0.833333     H
O     0.666667  0.56762 0.333333     O
La    0.666667 0.65554913 0.333333    La
C     0.666667  0.76634 0.833333     C
C     0.666667  0.81982 0.833333     C
C     0.666667  0.91582 0.833333     C
C     0.666667  0.96692 0.833333     C
H     0.677767 0.563333 0.393233     H
La    0.67778413 0.67778413      0.0    La
O     0.6798916  0.72533  0.16632     O
C      0.68252  0.95162  0.49274     C
O      0.68302  0.75402  0.75024     O
C      0.68303  0.04812  0.50814     C
H     0.683333 0.080867 0.514167     H
C      0.68382  0.90012  0.48245     C
C      0.68622  0.82633  0.14255     C
C      0.68742  0.87574  0.13125     C
C      0.68842  0.80602  0.46755     C
C      0.68882  0.75482  0.45314     C
C      0.69842  0.98363  0.17474     C
O      0.69913 0.6114616  0.72044     O
C      0.69982  0.03312 0.166667     C
C      0.70224  0.86072  0.76805     C
C      0.70272  0.90862  0.76995     C
O     0.7120416 0.6534516  0.49972     O
H     0.713367 0.903033 0.088233     H
H     0.713467 0.821933 0.111733     H
C      0.71472  0.01643  0.82534     C
C      0.71502  0.06423  0.82614     C
O     0.7218816 0.7542614  0.38704     O
C      0.72442  0.89852  0.42465     C
O      0.72533 0.6798916  0.83372     O
H       0.7256   0.8559   0.7232     H
C      0.72674  0.85162  0.41525     C
H       0.7277   0.9373   0.7277     H
H     0.729367 0.123733 0.061033     H
C      0.73024      0.0      0.5     C
C      0.73083  0.04842  0.50734     C
H     0.730867 0.983333 0.180833     H
C      0.73273  0.64462  0.78654     C
H     0.736733 0.154267 0.724767     H
O      0.73763  0.65032  0.08354     O
H     0.747533 0.016667 0.819167     H
H     0.750867 0.929933 0.391433     H
C      0.75092  0.08422 0.166667     C
H     0.753567 0.850733 0.374233     H
O      0.75402  0.68302  0.24984     O
O     0.7542614 0.7218816  0.61304     O
C      0.75482  0.68882  0.54694     C
C      0.75812  0.12743  0.10325     C
H     0.762867      0.0      0.5     H
H     0.763633 0.143667 0.421567     H
H     0.763833 0.579767 0.707567     H
O      0.76572  0.76572      0.0     O
C      0.76634 0.666667 0.166667     C
C      0.76652  0.11703  0.81585     C
C      0.76812  0.15923  0.75805     C
H         0.77   0.7811   0.0599     H
H     0.775133 0.619867 0.445067     H
H       0.7811     0.77   0.9401     H
C      0.78363  0.09992  0.51765     C
C      0.78433  0.64502  0.80095     C
H       0.7904   0.0627   0.2723     H
C      0.79094  0.14504  0.46465     C
C      0.79164  0.60674  0.74865     C
C      0.79413  0.09142  0.23015     C
H     0.796967 0.607733 0.056533     H
C      0.80602  0.17484  0.10135     C
C      0.80602  0.68842  0.53255     C
C      0.80682  0.64722  0.47595     C
H     0.810333 0.096967 0.911767     H
H     0.810767 0.203033 0.056533     H
C      0.81164  0.12434  0.86885     C
C      0.81502  0.20844  0.74865     C
H     0.815933 0.236167 0.707567     H
C      0.81982 0.666667 0.166667     C
H     0.820933 0.070067 0.608567     H
H     0.821933 0.713467 0.888267     H
C      0.82524  0.63114  0.10135     C
C      0.82583  0.10152  0.57545     C
C      0.82633  0.68622  0.85755     C
C      0.84033  0.19322  0.47595     C
C      0.84083  0.60902  0.75805     C
C      0.84154  0.13932  0.23205     C
H     0.844733 0.224867 0.445067     H
H     0.845733 0.582467 0.724767     H
C      0.84692  0.18022 0.166667     C
H     0.850733 0.753567 0.625767     H
C      0.85162  0.72674  0.58485     C
C      0.85504  0.64602  0.46465     C
H       0.8559   0.7256   0.2768     H
H     0.856333 0.619967 0.421567     H
C      0.85982  0.17373  0.85755     C
C      0.86062  0.21573  0.80095     C
C      0.86072  0.70224  0.23205     C
H       0.8697   0.1441   0.2768     H
C      0.87263  0.63062  0.10325     C
C      0.87504  0.14842  0.58485     C
C      0.87574  0.68742  0.86885     C
H     0.876267 0.605633 0.061033     H
C      0.88233  0.19402  0.53255     C
C      0.88303  0.64962  0.81585     C
H     0.885567 0.322233 0.393233     H
H     0.891533 0.178067 0.888267     H
H     0.896667 0.344433 0.273433     H
C      0.89852  0.72442  0.57545     C
C      0.90012  0.68382  0.51765     C
C      0.90044  0.23374 0.166667     C
O      0.90102 0.333333 0.333333     O
H     0.902833 0.149267 0.625767     H
H     0.903033 0.713367 0.911767     H
H       0.9038 0.570467 0.833333     H
C      0.90862  0.70272  0.23015     C
C      0.91182  0.26733  0.78654     C
O     0.9124014  0.30093  0.72044     O
O      0.91272  0.26243  0.08354     O
H       0.9131   0.4305   0.9591     H
H       0.9158   0.5124   0.9419     H
C      0.91582 0.666667 0.166667     C
H     0.919133 0.602467 0.514167     H
O      0.92903  0.24602  0.24984     O
H     0.929933 0.750867 0.608567     H
C      0.93393  0.24522  0.54694     C
H       0.9358   0.5858   0.1525     H
C      0.93583  0.65092  0.82614     C
C      0.93654  0.60324 0.833333     C
H       0.9373   0.7277   0.2723     H
H     0.938967 0.542933 0.605633     H
C      0.94004  0.45834  0.91815     C
H     0.941067 0.463633 0.610133     H
O      0.94143 0.2879616  0.49972     O
C      0.94232  0.50753  0.90875     C
O     0.9447916  0.36573  0.94634     O
C      0.95162  0.68252  0.50734     C
C      0.95192  0.63502  0.50814     C
H       0.9532   0.4418   0.2216     H
H       0.9533    0.523   0.2451     H
O     0.9546216  0.27473  0.83372     O
C      0.96402  0.53923  0.56345     C
C      0.96454  0.49184  0.56535     C
C      0.96692 0.666667 0.166667     C
O      0.96763 0.2457414  0.61304     O
C      0.96832  0.61862  0.15864     C
C      0.97792  0.39943  0.88024     C
C      0.97832  0.45103  0.86585     C
C      0.97932  0.52174  0.20215     C
C      0.98052  0.47352  0.19085     C
C      0.98292  0.54973  0.85095     C
H     0.983333 0.730867 0.819167     H
C      0.98363  0.69842  0.82534     C
O      0.98372  0.40433  0.58314     O
C      0.98422  0.60253  0.84064     C
O     0.9867816 0.3787116  0.16702     O
La    0.98888313 0.333333 0.333333    La
H       0.9889   0.2189   0.9401     H
