data_I
_chemical_name_common  '/Users/gianmarcoterrones/Research/MOFs/MOF_structures/water_stability_work_extra_structs/cleaned_from_CCDC/LAGDAB'
_cell_length_a  6.98530
_cell_length_b 13.52180
_cell_length_c 20.31500
_cell_angle_alpha 90.00000
_cell_angle_beta  90.00000
_cell_angle_gamma 96.78200
_space_group_name_H-M_alt      'P 1'


loop_
_space_group_symop_operation_xyz
  'x, y, z' 

loop_
_atom_site_label
_atom_site_fract_x
_atom_site_fract_y
_atom_site_fract_z
_atom_site_type_symbol
O       0.0011   0.0014   0.6601     O
O       0.0011   0.0014   0.8399     O
H       0.0458   0.4352   0.0387     H
H       0.0458   0.4352   0.4613     H
H        0.057   0.2265   0.1389     H
H        0.057   0.2265   0.3611     H
C       0.0738     0.27   0.0997     C
C       0.0738     0.27   0.4003     C
H       0.0761   0.2543    0.582     H
H       0.0761   0.2543    0.918     H
C       0.0781   0.6085   0.5357     C
C       0.0781   0.6085   0.9643     C
C       0.0853   0.2875   0.5385     C
C       0.0853   0.2875   0.9615     C
N       0.0867   0.6599   0.0284     N
N       0.0867   0.6599   0.4716     N
H       0.0921   0.0477   0.6576     H
H       0.0921   0.0477   0.8424     H
N       0.0953   0.6748   0.5931     N
N       0.0953   0.6748   0.9069     N
P       0.1087  0.19315  0.02657     P
P       0.1087  0.19315  0.47343     P
C         0.14   0.8708   0.5209     C
C         0.14   0.8708   0.9791     C
H       0.1527   0.1156     0.25     H
H       0.1551   0.9076   0.0213     H
H       0.1551   0.9076   0.4787     H
C       0.1609    0.961   0.1715     C
C       0.1609    0.961   0.3285     C
H       0.1616   0.9198   0.5571     H
H       0.1616   0.9198   0.9429     H
O       0.1741    0.874    0.169     O
O       0.1741    0.874    0.331     O
H       0.1829   0.5652   0.5375     H
H       0.1829   0.5652   0.9625     H
H       0.1906    0.318   0.1065     H
H       0.1906    0.318   0.3935     H
H       0.2022   0.3367   0.5386     H
H       0.2022   0.3367   0.9614     H
C        0.265   0.7294   0.0313     C
C        0.265   0.7294   0.4687     C
H       0.2661   0.7677   0.0728     H
H       0.2661   0.7677   0.4272     H
C       0.2723   0.7434   0.5873     C
C       0.2723   0.7434   0.9127     C
H       0.2788    0.791   0.6245     H
H       0.2788    0.791   0.8755     H
C       0.2878   0.1003     0.25     C
N       0.2878   0.8002   0.5248     N
N       0.2878   0.8002   0.9752     N
H       0.3159   0.0762     0.75     H
O       0.3169   0.1143   0.6268     O
O       0.3169   0.1143   0.8732     O
C       0.3246   0.0419   0.1861     C
C       0.3246   0.0419   0.3139     C
H       0.3283   0.0907    0.149     H
H       0.3283   0.0907    0.351     H
H       0.3728   0.1642     0.25     H
H       0.3766   0.6906   0.0321     H
H       0.3766   0.6906   0.4679     H
H         0.38   0.9361   0.6899     H
H         0.38   0.9361   0.8101     H
H       0.3841   0.7051    0.591     H
H       0.3841   0.7051    0.909     H
Ag     0.39146  0.11705  0.01527    Ag
Ag     0.39146  0.11705  0.48473    Ag
C       0.4362   0.0512   0.6249     C
C       0.4362   0.0512   0.8751     C
C        0.448   0.0565     0.75     C
H       0.4598    0.882     0.25     H
C       0.4775   0.9964   0.6879     C
C       0.4775   0.9964   0.8121     C
O       0.4856   0.9721   0.0721     O
O       0.4856   0.9721   0.4279     O
O       0.5144   0.0279   0.5721     O
O       0.5144   0.0279   0.9279     O
C       0.5225   0.0036   0.1879     C
C       0.5225   0.0036   0.3121     C
H       0.5402    0.118     0.75     H
C        0.552   0.9435     0.25     C
C       0.5638   0.9488   0.1249     C
C       0.5638   0.9488   0.3751     C
Ag     0.60854  0.88295  0.51527    Ag
Ag     0.60854  0.88295  0.98473    Ag
H       0.6159   0.2949    0.091     H
H       0.6159   0.2949    0.409     H
H         0.62   0.0639   0.1899     H
H         0.62   0.0639   0.3101     H
H       0.6234   0.3094   0.5321     H
H       0.6234   0.3094   0.9679     H
H       0.6272   0.8358     0.75     H
H       0.6717   0.9093    0.649     H
H       0.6717   0.9093    0.851     H
C       0.6754   0.9581   0.6861     C
C       0.6754   0.9581   0.8139     C
O       0.6831   0.8857   0.1268     O
O       0.6831   0.8857   0.3732     O
H       0.6841   0.9238     0.25     H
N       0.7122   0.1998   0.0248     N
N       0.7122   0.1998   0.4752     N
C       0.7122   0.8997     0.75     C
H       0.7212    0.209   0.1245     H
H       0.7212    0.209   0.3755     H
C       0.7277   0.2566   0.0873     C
C       0.7277   0.2566   0.4127     C
H       0.7339   0.2323   0.5728     H
H       0.7339   0.2323   0.9272     H
C        0.735   0.2706   0.5313     C
C        0.735   0.2706   0.9687     C
H       0.7978   0.6633   0.0386     H
H       0.7978   0.6633   0.4614     H
H       0.8094    0.682   0.6065     H
H       0.8094    0.682   0.8935     H
H       0.8171   0.4348   0.0375     H
H       0.8171   0.4348   0.4625     H
O       0.8259    0.126    0.669     O
O       0.8259    0.126    0.831     O
H       0.8384   0.0802   0.0571     H
H       0.8384   0.0802   0.4429     H
C       0.8391    0.039   0.6715     C
C       0.8391    0.039   0.8285     C
H       0.8449   0.0924   0.5213     H
H       0.8449   0.0924   0.9787     H
H       0.8473   0.8844     0.75     H
C         0.86   0.1292   0.0209     C
C         0.86   0.1292   0.4791     C
P       0.8913  0.80685  0.52657     P
P       0.8913  0.80685  0.97343     P
N       0.9047   0.3252   0.0931     N
N       0.9047   0.3252   0.4069     N
H       0.9079   0.9523   0.1576     H
H       0.9079   0.9523   0.3424     H
N       0.9133   0.3401   0.5284     N
N       0.9133   0.3401   0.9716     N
C       0.9147   0.7125   0.0385     C
C       0.9147   0.7125   0.4615     C
C       0.9219   0.3915   0.0357     C
C       0.9219   0.3915   0.4643     C
H       0.9239   0.7457    0.082     H
H       0.9239   0.7457    0.418     H
C       0.9262     0.73   0.5997     C
C       0.9262     0.73   0.9003     C
H        0.943   0.7735   0.6389     H
H        0.943   0.7735   0.8611     H
H       0.9542   0.5648   0.5387     H
H       0.9542   0.5648   0.9613     H
O       0.9989   0.9986   0.1601     O
O       0.9989   0.9986   0.3399     O
