data_I
_chemical_name_common  '/Users/gianmarcoterrones/Research/MOFs/MOF_structures/water_stability_work_extra_structs/cleaned_from_CCDC/LAZNUX'
_cell_length_a 15.14900
_cell_length_b 16.76300
_cell_length_c 17.42897
_cell_angle_alpha 82.20159
_cell_angle_beta  64.24063
_cell_angle_gamma 71.80700
_space_group_name_H-M_alt      'P 1'


loop_
_space_group_symop_operation_xyz
  'x, y, z' 

loop_
_atom_site_label
_atom_site_fract_x
_atom_site_fract_y
_atom_site_fract_z
_atom_site_type_symbol
H       0.0063    0.129   0.7528     H
C       0.0084   0.0826   0.7886     C
C       0.0096   0.9513    0.898     C
H       0.0102   0.2689    0.784     H
C      0.01067   0.6769  0.36306     C
H       0.0108   0.9064   0.9356     H
O      0.01499   0.7567  0.64442     O
C      0.02043   0.6734  0.21374     C
O      0.02547   0.2448  0.63546     O
H       0.0307   0.4801   0.5578     H
O        0.034   0.6314    0.419     O
C      0.03422   0.6313  0.28396     C
H       0.0355   0.9772    0.561     H
C      0.03821   0.1677  0.35018     C
O      0.04367   0.1186  0.41026     O
H       0.0438   0.6579   0.0938     H
C       0.0527   0.6289   0.1406     C
H       0.0536   0.5936   0.9356     H
H       0.0619   0.6087      0.8     H
C       0.0649   0.9132   0.1292     C
N      0.06672   0.9774  0.07476     N
C      0.07662   0.5455  0.27756     C
O      0.08092   0.8803  0.36416     O
H       0.0851    0.515   0.3238     H
C      0.08555   0.0082   0.7601     C
O      0.08625   0.3711   0.3531     O
C      0.08647   0.9417  0.81666     C
Nd    0.086717 0.643188 0.532508    Nd
O      0.08676   0.4894  0.52328     O
O      0.08902   0.7729  0.45096     O
C       0.0924   0.5487    0.898     C
O      0.09293   0.9841  0.52634     O
N       0.0964   0.5456    0.134     N
C      0.09687   0.5583  0.81666     C
Nd    0.097109 0.135682 0.522806    Nd
O      0.09736    0.264  0.43908     O
C       0.1062   0.1327   0.2616     C
C      0.10644   0.5047  0.20292     C
H       0.1114   0.2437   0.1992     H
H        0.116   0.8629   0.1106     H
O      0.12315   0.5715   0.6485     O
H       0.1262   0.0094   0.2908     H
C      0.13234   0.8167  0.38832     C
H       0.1345   0.4467   0.2002     H
H       0.1364   0.4535   0.5306     H
C      0.13756   0.1858  0.19248     C
H       0.1376   0.1579   0.9062     H
H       0.1381   0.8913      0.8     H
C      0.13891   0.3081  0.37598     C
H       0.1408   0.9493   0.5368     H
N      0.14148   0.4774  0.92524     N
C      0.14551    0.047  0.24658     C
C      0.15435   0.4918   0.7601     C
Cu     0.15689  0.48169  0.02958    Cu
O      0.16148   0.0612  0.62164     O
C       0.1649   0.9986   0.6694     C
C       0.1657   0.5014   0.6694     C
Cu     0.18647  0.98169  0.97042    Cu
C       0.1933   0.1289   0.8594     C
C       0.1941   0.4132   0.8708     C
C        0.203   0.4174   0.7886     C
H       0.2058   0.2311    0.784     H
C      0.20824    0.151  0.11372     C
C      0.21344   0.0179  0.16572     C
O      0.21688   0.4388  0.62164     O
H       0.2266   0.3629   0.8894     H
O      0.22835   0.9285   0.6485     O
H       0.2299   0.1871   0.0686     H
N       0.2304   0.0456    0.866     N
O      0.23377   0.6848  0.52366     O
C      0.23417   0.1734  0.78626     C
H       0.2376   0.9602   0.1566     H
H       0.2409    0.371   0.7528     H
O      0.24257   0.8152  0.52366     O
O      0.24311   0.1843  0.50838     O
O      0.24489   0.5654  0.42422     O
C      0.24673   0.7866  0.34334     C
N      0.24679   0.0685  0.09922     N
O      0.24851   0.3157  0.50838     O
O      0.24863   0.0641  0.40114     O
H       0.2516   0.6351   0.2836     H
C      0.25191   0.2801  0.32978     C
H       0.2525   0.8179   0.2254     H
H       0.2564   0.3043   0.2116     H
C       0.2564     0.75   0.4872     C
C      0.26384     0.25  0.47232     C
H       0.2793   0.6416   0.1434     H
C      0.28874   0.5873  0.24972     C
C      0.29168   0.7894  0.25484     C
C      0.29718   0.2816  0.24104     C
H       0.2985   0.6871   0.9314     H
C      0.30469   0.5905  0.16562     C
C       0.3053     0.75   0.3894     C
C      0.30615   0.5038   0.3773     C
C      0.30936   0.0047  0.79708     C
H       0.3106   0.7437   0.8008     H
C       0.3124     0.25   0.3752     C
C      0.31655   0.9962   0.3773     C
Br     0.31714  0.36838  0.01468    Br
C      0.31818   0.1313  0.71604     C
C      0.32196    0.651  0.88628     C
H       0.3224   0.5507   0.5368     H
C      0.32823   0.5127  0.28394     C
C      0.33004   0.6858  0.80752     C
O      0.33089   0.9346  0.42422     O
Br     0.33182  0.86838  0.98532    Br
H        0.333   0.0465   0.5306     H
H       0.3338   0.1055   0.2494     H
H       0.3347   0.9467   0.7998     H
O      0.33907   0.2552  0.63546     O
O      0.34059   0.7433  0.64442     O
Cu     0.34487   0.5216  0.00788    Cu
N      0.34601   0.5685  0.90078     N
O      0.35023   0.4359  0.40114     O
Cu     0.35275   0.0216  0.99212    Cu
C      0.35418   0.0455  0.72244     C
N      0.35511   0.5237  0.11438     N
C       0.3678   0.6327   0.7384     C
C      0.37373   0.1769  0.63694     C
C      0.37916   0.5179  0.83428     C
Nd    0.380085 0.364318 0.522806    Nd
O      0.38073   0.5159  0.52634     O
Nd    0.380775 0.856812 0.532508    Nd
C       0.3845   0.0551     0.23     C
C       0.3855   0.4449     0.23     C
C      0.38783   0.9873  0.28394     C
C      0.38839   0.6677  0.64982     C
O      0.38996   0.0106  0.52328     O
C      0.39209    0.547  0.75342     C
H       0.3942   0.4602   0.8434     H
C       0.3948     0.75   0.2104     C
C      0.39616   0.4523  0.14688     C
C        0.402     0.25    0.196     C
H       0.4035   0.5228    0.561     H
H       0.4089    0.015   0.6762     H
C      0.40993   0.7134  0.34334     C
H       0.4115   0.0199   0.5578     H
H       0.4168   0.3945   0.2494     H
H        0.417   0.5094   0.7092     H
C      0.41831   0.2199  0.32978     C
H       0.4227   0.1416   0.8566     H
H       0.4244     0.75   0.1512     H
H       0.4316     0.25   0.1368     H
H       0.4337   0.4055   0.1116     H
O      0.43935   0.8711   0.6469     O
O      0.44508   0.3803  0.63584     O
O        0.453   0.1314    0.581     O
C      0.45348   0.7106  0.25484     C
O      0.45393   0.6186  0.58974     O
H       0.4547   0.0945   0.1116     H
C      0.45696   0.0477  0.14688     C
O      0.46002   0.7271  0.45096     O
C      0.46154   0.9127  0.24972     C
C      0.46178   0.2184  0.24104     C
O      0.46356    0.236  0.43908     O
H       0.4648   0.8649   0.2836     H
H        0.468   0.8043   0.7884     H
N      0.46949   0.0237  0.88562     N
C      0.47031   0.0905  0.83438     C
H       0.4779   0.3179   0.7746     H
C      0.47934   0.6833  0.38832     C
C      0.48511   0.1919  0.37598     C
C      0.51489   0.8081  0.62402     C
C      0.52066   0.3167  0.61168     C
H       0.5221   0.6821   0.2254     H
C      0.52969   0.9095  0.16562     C
N      0.53051   0.9763  0.11438     N
H        0.532   0.1957   0.2116     H
H       0.5352   0.1351   0.7164     H
O      0.53644    0.764  0.56092     O
C      0.53822   0.7816  0.75896     C
C      0.53846   0.0873  0.75028     C
O      0.53998   0.2729  0.54904     O
C      0.54304   0.9523  0.85312     C
H       0.5453   0.9055   0.8884     H
O      0.54607   0.3814  0.41026     O
C      0.54652   0.2894  0.74516     C
O        0.547   0.8686    0.419     O
O      0.55492   0.6197  0.36416     O
O      0.56065   0.1289   0.3531     O
H       0.5663   0.5945   0.8884     H
H       0.5684     0.75   0.8632     H
H       0.5756     0.25   0.8488     H
H       0.5773   0.8584   0.1434     H
C      0.58169   0.7801  0.67022     C
H        0.583   0.4906   0.2908     H
H       0.5832   0.6055   0.7506     H
H       0.5885   0.9801   0.4422     H
C      0.59007   0.2866  0.65666     C
H       0.5911    0.985   0.3238     H
H       0.5965   0.4772    0.439     H
C        0.598     0.75    0.804     C
C      0.60384   0.5477  0.85312     C
C       0.6052     0.25   0.7896     C
H       0.6058   0.5398   0.1566     H
C      0.60791    0.453  0.24658     C
O      0.61004   0.9894  0.47672     O
C      0.61161   0.3323  0.35018     C
C      0.61217   0.0127  0.71606     C
C       0.6145   0.5551     0.77     C
C       0.6155   0.9449     0.77     C
Nd    0.619225 0.143188 0.467492    Nd
O      0.61927   0.4841  0.47366     O
Nd    0.619915 0.635682 0.477194    Nd
C      0.62084   0.4821  0.16572     C
C      0.62627   0.8231  0.36306     C
C       0.6322   0.3673   0.2616     C
N      0.64489   0.4763  0.88562     N
C      0.64582   0.9545  0.27756     C
Cu     0.64725   0.9784  0.00788    Cu
O      0.64977   0.5641  0.59886     O
N      0.65399   0.4315  0.09922     N
Cu     0.65513   0.4784  0.99212    Cu
O      0.65941   0.2567  0.35558     O
O      0.66093   0.7448  0.36454     O
H       0.6653   0.0533   0.2002     H
H       0.6662   0.8945   0.7506     H
H        0.667   0.9535   0.4694     H
Br     0.66818  0.13162  0.01468    Br
O      0.66911   0.0654  0.57578     O
C      0.66996   0.3142  0.19248     C
C      0.67177   0.4873  0.71606     C
H       0.6776   0.4493   0.4632     H
C      0.67804    0.349  0.11372     C
C      0.68182   0.8687  0.28396     C
Br     0.68286  0.63162  0.98532    Br
C      0.68345   0.0038   0.6227     C
C       0.6876     0.75   0.6248     C
H       0.6894   0.2563   0.1992     H
C      0.69064   0.9953  0.20292     C
C      0.69385   0.4962   0.6227     C
C       0.6947     0.25   0.6106     C
C      0.69531   0.4095  0.83438     C
H       0.7015   0.3129   0.0686     H
C      0.70282   0.7184  0.75896     C
C      0.70832   0.2106  0.74516     C
C      0.71126   0.4127  0.75028     C
H       0.7207   0.3584   0.8566     H
C      0.73616     0.75  0.52768     C
C       0.7436     0.25   0.5128     C
H       0.7436   0.6957   0.7884     H
H       0.7475   0.1821   0.7746     H
C      0.74809   0.7199  0.67022     C
H       0.7484   0.3649   0.7164     H
O      0.75137   0.9359  0.59886     O
O      0.75149   0.6843  0.49162     O
N      0.75321   0.9315  0.90078     N
C      0.75327   0.2134  0.65666     C
O      0.75511   0.4346  0.57578     O
O      0.75689   0.8157  0.49162     O
O      0.75743   0.1848  0.47634     O
H       0.7591    0.629   0.2472     H
H       0.7624   0.0398   0.8434     H
C      0.76583   0.8266  0.21374     C
O      0.76623   0.3152  0.47634     O
N       0.7696   0.9544    0.134     N
H       0.7701   0.8129   0.9314     H
O      0.77165   0.0715   0.3515     O
H       0.7734   0.6371   0.1106     H
O      0.78312   0.5612  0.37836     O
C      0.78656   0.9821  0.83428     C
C      0.79176    0.849  0.88628     C
H       0.7942   0.7689    0.216     H
C        0.797   0.5826   0.2114     C
C       0.8059   0.5868   0.1292     C
C       0.8067   0.8711   0.1406     C
Cu     0.81353  0.01831  0.02958    Cu
C       0.8343   0.4986   0.3306     C
C       0.8351   0.0014   0.3306     C
O      0.83852   0.9388  0.37836     O
Cu     0.84311  0.51831  0.97042    Cu
C      0.84565   0.5082   0.2399     C
C      0.85449    0.953  0.75342     C
N      0.85852   0.5226  0.07476     N
H       0.8592   0.0507   0.4632     H
C      0.86109   0.6919  0.62402     C
H       0.8619   0.1087      0.2     H
H       0.8624   0.8421   0.0938     H
C      0.86244   0.8142  0.80752     C
H       0.8636   0.5465   0.4694     H
H       0.8655   0.5533   0.7998     H
C      0.86766   0.1833  0.61168     C
H       0.8738   0.9906   0.7092     H
O      0.87685   0.4285   0.3515     O
H        0.884   0.1371   0.8894     H
H       0.8886   0.7563   0.8008     H
C      0.89356   0.4953  0.79708     C
C       0.8938   0.8673   0.7384     C
O      0.90264    0.736  0.56092     O
Nd    0.902891 0.864318 0.477194    Nd
C      0.90313   0.4417  0.18334     C
N       0.9036   0.4544    0.866     N
O      0.90707   0.0159  0.47366     O
C       0.9076   0.4513    0.102     C
O      0.91098   0.2271  0.54904     O
O      0.91324   0.5106  0.47672     O
Nd    0.913283 0.356812 0.467492    Nd
C      0.91353   0.0583  0.18334     C
O      0.91375   0.6289   0.6469     O
C      0.91445   0.9918   0.2399     C
H       0.9149    0.485   0.6762     H
O      0.91908   0.1197  0.63584     O
C      0.92338   0.4545  0.72244     C
N      0.93328   0.0226  0.92524     N
C       0.9351   0.0868   0.8708     C
H       0.9381   0.3913      0.2     H
H       0.9464   0.4064   0.0644     H
C       0.9473   0.3711   0.8594     C
H       0.9562   0.3421   0.9062     H
O      0.95633   0.8814  0.58974     O
C      0.96179   0.8323  0.64982     C
H       0.9645   0.0228    0.439     H
C      0.96578   0.3687  0.71604     C
O        0.966   0.3686    0.581     O
H       0.9693   0.5199   0.4422     H
O      0.97453   0.7552  0.36454     O
C      0.97957   0.3266  0.78626     C
O      0.98501   0.2433  0.35558     O
H       0.9892   0.0936   0.0644     H
C      0.98933   0.3231  0.63694     C
H       0.9898   0.7311    0.216     H
C       0.9904   0.0487    0.102     C
C       0.9916   0.9174   0.2114     C
H       0.9937    0.871   0.2472     H
