data_I
_chemical_name_common  '/Users/gianmarcoterrones/Research/MOFs/MOF_structures/water_stability_work_extra_structs/cleaned_from_CCDC/LAZNOR'
_cell_length_a 15.13920
_cell_length_b 16.75890
_cell_length_c 17.44801
_cell_angle_alpha 82.15950
_cell_angle_beta  64.28865
_cell_angle_gamma 71.67300
_space_group_name_H-M_alt      'P 1'


loop_
_space_group_symop_operation_xyz
  'x, y, z' 

loop_
_atom_site_label
_atom_site_fract_x
_atom_site_fract_y
_atom_site_fract_z
_atom_site_type_symbol
C      0.01468   0.8075  0.62464     C
H       0.0209   0.6825   0.2274     H
C      0.02185   0.3172   0.6095     C
C      0.02929   0.9074  0.16862     C
N      0.03115   0.9745   0.1165     N
H       0.0325   0.1954   0.2106     H
O      0.03607   0.7638  0.56126     O
H       0.0367   0.1367    0.714     H
C      0.03768   0.7818  0.75964     C
C      0.03891   0.0889  0.74798     C
O      0.04058   0.2733  0.54744     O
C      0.04126   0.9535  0.85148     C
H       0.0426   0.9067   0.8868     H
O      0.04638   0.3815  0.40924     O
O      0.04687   0.8684  0.42026     O
C      0.04791   0.2892  0.74278     C
O      0.05361   0.6195  0.36678     O
O      0.06109   0.1296  0.35242     O
H       0.0688     0.75   0.8624     H
H       0.0706   0.5933   0.8868     H
H       0.0769   0.8561   0.1468     H
H       0.0771     0.25   0.8458     H
H       0.0809   0.4908   0.2896     H
C      0.08132   0.7798  0.67096     C
H       0.0868   0.6053    0.749     H
H       0.0891   0.9806   0.4416     H
H       0.0894   0.9848   0.3236     H
C      0.09033   0.2869  0.65434     C
H       0.0962   0.4778    0.439     H
C       0.0984     0.75   0.8032     C
H       0.1032   0.5388   0.1552     H
C        0.106    0.453   0.2456     C
C       0.1067     0.25   0.7866     C
C      0.10726   0.5465  0.85148     C
O      0.11095     0.99   0.4759     O
C      0.11127   0.0136  0.71466     C
C      0.11139   0.3327  0.34942     C
C      0.11403   0.9455  0.76834     C
C      0.11763   0.5545  0.76834     C
C      0.11875   0.4811   0.1649     C
O      0.11926   0.4845  0.47348     O
Nd    0.119848 0.635643 0.477646    Nd
Nd    0.119987 0.143098 0.466318    Nd
C      0.12498   0.8228  0.36444     C
C      0.13136   0.3669  0.26048     C
C      0.14504    0.954  0.27812     C
Cu     0.14629  0.97478  0.00916    Cu
N      0.14765   0.4745   0.8835     N
O      0.15172   0.5639  0.59796     O
N      0.15259   0.4295  0.09902     N
Cu     0.15545  0.47478  0.99084    Cu
O       0.1592    0.257    0.355     O
O      0.15958   0.7448  0.36544     O
H       0.1642   0.8947    0.749     H
H       0.1664   0.0521   0.2004     H
H       0.1677   0.9539   0.4688     H
C      0.16981   0.3135  0.19238     C
O      0.17013   0.0665  0.57494     O
Cl     0.17124  0.11884  0.01708    Cl
C      0.17407   0.4864  0.71466     C
C      0.17739   0.3462  0.11442     C
H       0.1778   0.4495   0.4626     H
C      0.18193    0.868  0.28514     C
C      0.18336   0.0047  0.62148     C
C      0.18771     0.75  0.62458     C
Cl     0.18832  0.61884  0.98292    Cl
H       0.1904   0.2556   0.1996     H
C      0.19103    0.994  0.20354     C
C      0.19516   0.4953  0.62148     C
C      0.19593     0.25  0.60814     C
C      0.19791   0.4074  0.83138     C
H       0.2007   0.3094     0.07     H
C      0.20268   0.7182  0.75964     C
C      0.20931   0.2108  0.74278     C
C      0.21311   0.4111  0.74798     C
H       0.2237   0.3561   0.8532     H
C      0.23597     0.75  0.52806     C
H       0.2431   0.6954   0.7894     H
C      0.24439     0.25  0.51122     C
C      0.24772   0.7202  0.67096     C
H       0.2483   0.1825   0.7726     H
H       0.2493   0.3633    0.714     H
O      0.25032   0.9361  0.59796     O
O      0.25073   0.6848  0.49214     O
N      0.25161   0.9295  0.90098     N
H       0.2539   0.6277   0.2472     H
O      0.25493   0.4335  0.57494     O
C      0.25533   0.2131  0.65434     C
O      0.25713   0.8152  0.49214     O
O      0.25824   0.1854  0.47432     O
H       0.2584   0.0388   0.8448     H
H       0.2654   0.6345   0.1116     H
C      0.26595   0.8255   0.2165     C
O      0.26744   0.3146  0.47432     O
N      0.26981   0.9525  0.13538     N
H       0.2707   0.8094     0.93     H
O      0.27255   0.0708   0.3507     O
O      0.28277    0.562  0.37706     O
C      0.28365   0.9811   0.8351     C
C      0.29181   0.8462  0.88558     C
C      0.29301   0.5815  0.21118     C
H       0.2946   0.7679   0.2196     H
C      0.30064   0.5853  0.12972     C
C      0.30705   0.8697   0.1429     C
Cu     0.31423  0.01503  0.03048    Cu
C      0.33379   0.4991  0.32982     C
C      0.33639   0.0009  0.32982     C
O      0.34017    0.938  0.37706     O
C      0.34411   0.5084  0.23938     C
Cu     0.34471  0.51503  0.96952    Cu
C       0.3516    0.953   0.7544     C
N       0.3567    0.521   0.0752     N
H       0.3596   0.0505   0.4626     H
H         0.36   0.1068   0.1992     H
C      0.36068   0.6925  0.62464     C
C      0.36219   0.8135  0.80762     C
H       0.3632   0.8404   0.0966     H
H       0.3635   0.5461   0.4688     H
H       0.3668   0.5521   0.7996     H
C      0.36865   0.1828   0.6095     C
H       0.3705   0.9908   0.7104     H
O      0.37675   0.4292   0.3507     O
H        0.377   0.1345   0.8884     H
H         0.39   0.7556   0.8004     H
C      0.39184   0.8669  0.73952     C
C      0.39457    0.494  0.79646     C
Nd    0.402506 0.864357 0.477646    Nd
O      0.40267   0.7362  0.56126     O
C      0.40415   0.4428   0.1827     C
N      0.40519   0.4525  0.86462     N
O      0.40726   0.0155  0.47348     O
C       0.4092   0.4516    0.102     C
O      0.41198   0.2267  0.54744     O
H        0.413   0.4848   0.6764     H
C      0.41315   0.0572   0.1827     C
O      0.41315     0.51   0.4759     O
O      0.41351   0.6296  0.64758     O
Nd    0.413695 0.356902 0.466318    Nd
C      0.41651   0.9916  0.23938     C
O      0.42039   0.1195  0.63322     O
C      0.42316    0.454  0.72188     C
C      0.43036   0.0853  0.87028     C
N       0.4319    0.021   0.9248     N
H       0.4408   0.3932   0.1992     H
C      0.44995   0.3697   0.8571     C
H       0.4511   0.4075   0.0638     H
O      0.45562   0.8815  0.59076     O
H       0.4598   0.3404   0.9034     H
C      0.46081   0.8327  0.65058     C
H       0.4648   0.0222    0.439     H
C      0.46707    0.368  0.71486     C
O      0.46713   0.3684  0.57974     O
H       0.4693   0.5194   0.4416     H
O      0.47498   0.7552  0.36544     O
C      0.48245   0.3255   0.7835     C
H       0.4851   0.0925   0.0638     H
O       0.4858    0.243    0.355     O
H       0.4858   0.7321   0.2196     H
C       0.4888   0.0484    0.102     C
C      0.48942   0.3228  0.63556     C
C      0.49581   0.9185  0.21118     C
H       0.4989   0.8723   0.2472     H
H       0.5011   0.1277   0.7528     H
C      0.50419   0.0815  0.78882     C
C      0.51058   0.6772  0.36444     C
C       0.5112   0.9516    0.898     C
H       0.5142   0.2679   0.7804     H
O       0.5142    0.757    0.645     O
H       0.5149   0.9075   0.9362     H
C      0.51755   0.6745   0.2165     C
O      0.52502   0.2448  0.63456     O
H       0.5307   0.4806   0.5584     H
O      0.53287   0.6316  0.42026     O
C      0.53293    0.632  0.28514     C
H       0.5352   0.9778    0.561     H
C      0.53919   0.1673  0.34942     C
H       0.5402   0.6596   0.0966     H
O      0.54438   0.1185  0.40924     O
H       0.5489   0.5925   0.9362     H
C      0.55005   0.6303   0.1429     C
H       0.5592   0.6068   0.8008     H
N       0.5681    0.979   0.0752     N
C      0.56964   0.9147  0.12972     C
C      0.57684    0.546  0.27812     C
O      0.57961   0.8805  0.36678     O
C      0.58349   0.0084  0.76062     C
Nd    0.586305 0.643098 0.533682    Nd
O      0.58649   0.3704  0.35242     O
O      0.58685     0.49   0.5241     O
C      0.58685   0.9428   0.8173     C
H        0.587   0.5152   0.3236     H
O      0.58802   0.7733  0.45256     O
C       0.5908   0.5484    0.898     C
O      0.59274   0.9845  0.52652     O
N      0.59481   0.5475  0.13538     N
C      0.59585   0.5572   0.8173     C
O      0.59733   0.2638  0.43874     O
Nd    0.597494 0.135643 0.522354    Nd
C      0.60543    0.506  0.20354     C
C      0.60816   0.1331  0.26048     C
H         0.61   0.2444   0.1996     H
H        0.623   0.8655   0.1116     H
O      0.62325   0.5708   0.6493     O
H       0.6295   0.0092   0.2896     H
C      0.63135   0.8172   0.3905     C
H       0.6332   0.4479   0.2004     H
H       0.6365   0.4539   0.5312     H
H       0.6368   0.1596   0.9034     H
C      0.63781   0.1865  0.19238     C
C      0.63932   0.3075  0.37536     C
H         0.64   0.8932   0.8008     H
H       0.6404   0.9495   0.5374     H
N       0.6433    0.479   0.9248     N
C       0.6484    0.047   0.2456     C
Cu     0.65529  0.48497  0.03048    Cu
C      0.65589   0.4916  0.76062     C
O      0.65983    0.062  0.62294     O
C      0.66361   0.9991  0.67018     C
C      0.66621   0.5009  0.67018     C
Cu     0.68577  0.98497  0.96952    Cu
C      0.69295   0.1303   0.8571     C
C      0.69936   0.4147  0.87028     C
H       0.7054   0.2321   0.7804     H
C      0.70699   0.4185  0.78882     C
C      0.70819   0.1538  0.11442     C
C      0.71635   0.0189   0.1649     C
O      0.71723    0.438  0.62294     O
O      0.72745   0.9292   0.6493     O
H       0.7293   0.1906     0.07     H
N      0.73019   0.0475  0.86462     N
O      0.73256   0.6854  0.52568     O
C      0.73405   0.1745   0.7835     C
H       0.7346   0.3655   0.8884     H
H       0.7416   0.9612   0.1552     H
O      0.74176   0.8146  0.52568     O
O      0.74287   0.1848  0.50786     O
C      0.74467   0.7869  0.34566     C
O      0.74507   0.5665  0.42506     O
H       0.7461   0.3723   0.7528     H
N      0.74839   0.0705  0.09902     N
O      0.74927   0.3152  0.50786     O
O      0.74968   0.0639  0.40204     O
H       0.7507   0.6367    0.286     H
H       0.7517   0.8175   0.2274     H
C      0.75228   0.2798  0.32904     C
C      0.75561     0.75  0.48878     C
H       0.7569   0.3046   0.2106     H
C      0.76403     0.25  0.47194     C
H       0.7763   0.6439   0.1468     H
C      0.78689   0.5889  0.25202     C
C      0.79069   0.7892  0.25722     C
C      0.79732   0.2818  0.24036     C
H       0.7993   0.6906     0.93     H
C      0.80209   0.5926  0.16862     C
C      0.80407     0.75  0.39186     C
C      0.80484   0.5047  0.37852     C
C      0.80897    0.006  0.79646     C
H       0.8096   0.7444   0.8004     H
Cl     0.81168  0.38116  0.01708    Cl
C      0.81229     0.25  0.37542     C
C      0.81664   0.9953  0.37852     C
C      0.81807    0.132  0.71486     C
H       0.8222   0.5505   0.5374     H
C      0.82261   0.6538  0.88558     C
C      0.82593   0.5136  0.28534     C
Cl     0.82876  0.88116  0.98292    Cl
O      0.82987   0.9335  0.42506     O
C      0.83019   0.6865  0.80762     C
H       0.8323   0.0461   0.5312     H
H       0.8336   0.9479   0.7996     H
H       0.8358   0.1053    0.251     H
O      0.84042   0.2552  0.63456     O
O       0.8408    0.743    0.645     O
Cu     0.84455  0.52522  0.00916    Cu
N      0.84741   0.5705  0.90098     N
O      0.84828   0.4361  0.40204     O
N      0.85235   0.5255   0.1165     N
Cu     0.85371  0.02522  0.99084    Cu
C      0.85496    0.046  0.72188     C
C      0.86864   0.6331  0.73952     C
C      0.87502   0.1772  0.63556     C
Nd    0.880013 0.856902 0.533682    Nd
Nd    0.880152 0.364357 0.522354    Nd
O      0.88074   0.5155  0.52652     O
C      0.88125   0.5189   0.8351     C
C      0.88237   0.4455  0.23166     C
C      0.88597   0.0545  0.23166     C
C      0.88861   0.6673  0.65058     C
C      0.88873   0.9864  0.28534     C
O      0.88905     0.01   0.5241     O
C      0.89274   0.4535  0.14852     C
C       0.8933     0.75   0.2134     C
C        0.894    0.547   0.7544     C
H       0.8968   0.4612   0.8448     H
C       0.9016     0.25   0.1968     C
H       0.9038   0.5222    0.561     H
C      0.90967   0.7131  0.34566     C
H       0.9106   0.0152   0.6764     H
H       0.9109   0.0194   0.5584     H
H       0.9132   0.3947    0.251     H
C      0.91868   0.2202  0.32904     C
H       0.9191   0.5092   0.7104     H
H       0.9229     0.75   0.1542     H
H       0.9231   0.1439   0.8532     H
H       0.9294   0.4067   0.1132     H
H       0.9312     0.25   0.1376     H
O      0.93891   0.8704  0.64758     O
O      0.94639   0.3805  0.63322     O
C      0.95209   0.7108  0.25722     C
O      0.95313   0.1316  0.57974     O
O      0.95362   0.6185  0.59076     O
H       0.9574   0.0933   0.1132     H
C      0.95874   0.0465  0.14852     C
O      0.95942   0.7267  0.45256     O
C      0.96109   0.9111  0.25202     C
C      0.96232   0.2182  0.24036     C
H       0.9633   0.8633    0.286     H
O      0.96393   0.2362  0.43874     O
H       0.9675   0.8046   0.7894     H
N      0.96885   0.0255   0.8835     N
C      0.97071   0.0926  0.83138     C
C      0.97815   0.6828   0.3905     C
H       0.9791   0.3175   0.7726     H
C      0.98532   0.1925  0.37536     C
