data_I
_chemical_name_common  '/Users/gianmarcoterrones/Research/MOFs/MOF_structures/water_stability_work_extra_structs/cleaned_from_CCDC/LAZNEH'
_cell_length_a 15.24000
_cell_length_b 16.85030
_cell_length_c 17.47686
_cell_angle_alpha 82.34726
_cell_angle_beta  64.15073
_cell_angle_gamma 72.21600
_space_group_name_H-M_alt      'P 1'


loop_
_space_group_symop_operation_xyz
  'x, y, z' 

loop_
_atom_site_label
_atom_site_fract_x
_atom_site_fract_y
_atom_site_fract_z
_atom_site_type_symbol
C       0.0045   0.4535   0.8994     C
H       0.0047    0.409   0.9372     H
H        0.007   0.6289   0.7548     H
H       0.0074   0.7728   0.7858     H
C       0.0076   0.5827   0.7904     C
C       0.0107   0.1763   0.3616     C
O      0.01406   0.2582  0.64648     O
C       0.0234   0.1702   0.2122     C
O      0.02434   0.7466  0.63812     O
O      0.03109   0.1316  0.41862     O
H       0.0317   0.9767   0.5576     H
C       0.0359   0.1306   0.2824     C
H       0.0364   0.4743   0.5618     H
C      0.03895   0.6673   0.3479     C
O      0.04266   0.6186  0.40808     O
H       0.0476   0.1555   0.0922     H
C       0.0559   0.1267    0.139     C
H       0.0581    0.091   0.9372     H
H       0.0662    0.107   0.8026     H
C       0.0664   0.4136    0.129     C
N       0.0702   0.4768   0.0736     N
C       0.0783   0.0444    0.277     C
C       0.0812   0.4434    0.819     C
C        0.083   0.5093    0.763     C
O      0.08482   0.3795  0.36216     O
La    0.086656  0.14213 0.533348    La
O      0.08701   0.9866  0.52278     O
H       0.0872   0.0143    0.323     H
O      0.09073   0.8701  0.35034     O
O      0.09172   0.2734  0.44916     O
O      0.09295   0.4817   0.5265     O
C       0.0961   0.0465   0.8994     C
La    0.096968  0.63512 0.523264    La
O      0.09929   0.7649  0.43742     O
N      0.09938   0.0437  0.13284     N
C       0.0998   0.0566    0.819     C
C       0.1064   0.0049   0.2032     C
C       0.1079   0.6319   0.2594     C
H       0.1131   0.7408    0.198     H
H       0.1175   0.3639   0.1114     H
O      0.12063   0.0708  0.65294     O
H       0.1283   0.5101   0.2902     H
H       0.1312    0.393   0.8026     H
H       0.1323   0.9472   0.2014     H
C      0.13417   0.3169  0.38666     C
H       0.1367   0.9511   0.5292     H
C       0.1393   0.6833   0.1914     C
H       0.1398   0.6555   0.9078     H
H       0.1411   0.4474    0.536     H
C       0.1414   0.8076   0.3742     C
N       0.1438   0.9768   0.9264     N
C       0.1471   0.5472   0.2458     C
C        0.154   0.9907    0.763     C
Cu     0.15975  0.97985   0.0297    Cu
O      0.16168   0.5607  0.62424     O
C       0.1634   0.4994    0.673     C
C       0.1636   0.0006    0.673     C
Cu     0.18945  0.47985   0.9703    Cu
C       0.1949   0.6267    0.861     C
C       0.1954   0.9136    0.871     C
C        0.202   0.9173   0.7904     C
H       0.2068   0.7272   0.7858     H
C       0.2091     0.65   0.1142     C
O      0.21408   0.9393  0.62424     O
C       0.2141   0.5188   0.1658     C
O      0.22643   0.4292  0.65294     O
H       0.2289   0.8639   0.8886     H
H       0.2316   0.6861   0.0694     H
N      0.23222   0.5437  0.86716     N
C       0.2356   0.6702   0.7878     C
O      0.23587   0.1851  0.52186     O
H       0.2382   0.8711   0.7548     H
H       0.2383   0.4614   0.1572     H
O      0.24227   0.3149  0.52186     O
O      0.24551   0.6841  0.50638     O
O      0.24627   0.0637  0.42186     O
N      0.24719   0.5677  0.09922     N
C       0.2478   0.2861   0.3418     C
O      0.24811   0.8159  0.50638     O
O      0.24993    0.563  0.39774     O
H       0.2527   0.1334   0.2838     H
H       0.2535   0.3171   0.2244     H
C      0.25428   0.7792  0.32784     C
C       0.2573     0.25   0.4854     C
H       0.2583   0.8043   0.2104     H
C       0.2645     0.75    0.471     C
H       0.2821    0.141   0.1432     H
C       0.2899   0.0864   0.2494     C
C       0.2922   0.2891   0.2538     C
C       0.2985   0.7815   0.2398     C
H        0.301   0.1861   0.9306     H
C       0.3061   0.0899   0.1652     C
C       0.3061     0.25   0.3878     C
C       0.3077   0.0037    0.375     C
C       0.3096   0.5049   0.7968     C
H       0.3111   0.2408    0.802     H
C       0.3131     0.75   0.3738     C
C       0.3173   0.4963    0.375     C
Br      0.3181  0.86845  0.01382    Br
C       0.3183   0.6306   0.7176     C
H       0.3229   0.0526    0.536     H
C       0.3233     0.15   0.8858     C
C       0.3295   0.0119   0.2824     C
C       0.3307   0.1833   0.8086     C
O      0.33187   0.4363  0.42186     O
Br     0.33192  0.36845  0.98618    Br
H       0.3337   0.4472   0.7986     H
H       0.3341   0.5489   0.5292     H
H       0.3355   0.6047    0.248     H
O      0.33754   0.7534  0.63812     O
O      0.33946   0.2418  0.64648     O
Cu     0.34557  0.02118  0.00734    Cu
N      0.34641   0.0677  0.90078     N
O      0.35233    0.937  0.39774     O
Cu     0.35291  0.52118  0.99266    Cu
N      0.35467   0.0237  0.11346     N
C       0.3553   0.5444    0.723     C
C       0.3673   0.1319   0.7406     C
C       0.3723   0.6763   0.6384     C
La    0.379768  0.86488 0.523264    La
C       0.3799   0.0188   0.8342     C
La    0.379996  0.35787 0.533348    La
O      0.38055   0.0183   0.5265     O
C       0.3855   0.9453   0.2288     C
C       0.3857   0.5547   0.2288     C
C      0.38685   0.1673   0.6521     C
C       0.3881   0.4881   0.2824     C
O      0.39021   0.5134  0.52278     O
C       0.3929   0.0472   0.7542     C
C       0.3951     0.25   0.2098     C
H       0.3955   0.9614   0.8428     H
C       0.3957   0.9524   0.1462     C
H       0.4018   0.0257   0.5618     H
C       0.4021     0.75   0.1958     C
H       0.4102   0.5143    0.677     H
C       0.4104   0.2139   0.3418     C
H       0.4107   0.5233   0.5576     H
H       0.4165   0.8953    0.248     H
C      0.41788   0.7208  0.32784     C
H       0.4185   0.0101   0.7098     H
H       0.4246     0.25   0.1508     H
H       0.4253    0.641   0.8568     H
H       0.4317     0.75   0.1366     H
H       0.4327   0.9059    0.111     H
O      0.44107   0.3701  0.64966     O
O      0.44698   0.8795  0.63784     O
O      0.44971   0.6316  0.58138     O
O      0.45074   0.1186  0.59192     O
C        0.454   0.2109   0.2538     C
H       0.4563   0.5941    0.111     H
C       0.4581   0.5476   0.1462     C
O      0.45912   0.2266  0.44916     O
C       0.4607   0.4136   0.2494     C
C       0.4617   0.7185   0.2398     C
O      0.46329   0.7351  0.43742     O
H       0.4635   0.3666   0.2838     H
N      0.46813   0.5237  0.88654     N
H       0.4687   0.3043   0.7896     H
C       0.4713   0.5899   0.8348     C
H       0.4779   0.8171   0.7756     H
C      0.47917   0.1831  0.38666     C
C       0.4844   0.6924   0.3742     C
C       0.5156   0.3076   0.6258     C
C      0.52083   0.8169  0.61334     C
H       0.5221   0.1829   0.2244     H
C       0.5287   0.4101   0.1652     C
H       0.5313   0.6957   0.2104     H
N      0.53187   0.4763  0.11346     N
H       0.5365   0.6334   0.7162     H
O      0.53671   0.2649  0.56258     O
C       0.5383   0.2815   0.7602     C
C       0.5393   0.5864   0.7506     C
O      0.54088   0.7734  0.55084     O
C       0.5419   0.4524   0.8538     C
H       0.5437   0.4059    0.889     H
C        0.546   0.7891   0.7462     C
O      0.54926   0.8814  0.40808     O
O      0.55029   0.3684  0.41862     O
O      0.55302   0.1205  0.36216     O
O      0.55893   0.6299  0.35034     O
H       0.5673   0.0941    0.889     H
H       0.5683     0.25   0.8634     H
H       0.5747    0.359   0.1432     H
H       0.5754     0.75   0.8492     H
H       0.5815   0.9899   0.2902     H
C      0.58212   0.2792  0.67216     C
H       0.5835   0.1047    0.752     H
H       0.5893   0.4767   0.4424     H
C       0.5896   0.7861   0.6582     C
H       0.5898   0.4857    0.323     H
C       0.5979     0.25   0.8042     C
H       0.5982   0.9743   0.4382     H
C       0.6043   0.0476   0.8538     C
H       0.6045   0.0386   0.1572     H
C       0.6049     0.75   0.7902     C
C       0.6071   0.9528   0.2458     C
O      0.60979   0.4866  0.47722     O
C       0.6119   0.5119   0.7176     C
C      0.61315   0.8327   0.3479     C
C       0.6143   0.4453   0.7712     C
C       0.6145   0.0547   0.7712     C
O      0.61945   0.9817   0.4735     O
La    0.620004  0.64213 0.466652    La
C       0.6201   0.9812   0.1658     C
La    0.620232  0.13512 0.476736    La
C       0.6277   0.3237   0.3616     C
C       0.6327   0.8681   0.2594     C
C       0.6447   0.4556    0.277     C
N      0.64533   0.9763  0.88654     N
Cu     0.64709  0.47882  0.00734    Cu
O      0.64767    0.063  0.60226     O
N      0.65359   0.9323  0.09922     N
Cu     0.65443  0.97882  0.99266    Cu
O      0.66054   0.7582  0.35352     O
O      0.66246   0.2466  0.36188     O
H       0.6645   0.3953    0.752     H
H       0.6659   0.4511   0.4708     H
H       0.6663   0.5528   0.2014     H
Br     0.66808  0.63155  0.01382    Br
O      0.66813   0.5637  0.57814     O
C       0.6693   0.8167   0.1914     C
C       0.6705   0.9881   0.7176     C
C       0.6767     0.85   0.1142     C
H       0.6771   0.9474    0.464     H
C       0.6817   0.3694   0.2824     C
Br      0.6819  0.13155  0.98618    Br
C       0.6827   0.5037    0.625     C
C       0.6869     0.25   0.6262     C
H       0.6889   0.7592    0.198     H
C       0.6904   0.4951   0.2032     C
C       0.6923   0.9963    0.625     C
C       0.6939     0.75   0.6122     C
C       0.6939   0.9101   0.8348     C
H        0.699   0.8139   0.0694     H
C       0.7015   0.2185   0.7602     C
C       0.7078   0.7109   0.7462     C
C       0.7101   0.9136   0.7506     C
H       0.7179    0.859   0.8568     H
C       0.7355     0.25    0.529     C
H       0.7417   0.1957   0.7896     H
C       0.7427     0.75   0.5146     C
C      0.74572   0.2208  0.67216     C
H       0.7465   0.6829   0.7756     H
H       0.7473   0.8666   0.7162     H
O      0.75007    0.437  0.60226     O
O      0.75189   0.1841  0.49362     O
C       0.7522   0.7139   0.6582     C
N      0.75281   0.4323  0.90078     N
O      0.75373   0.9363  0.57814     O
O      0.75449   0.3159  0.49362     O
O      0.75773   0.6851  0.47814     O
H       0.7617   0.5386   0.8428     H
H       0.7618   0.1289   0.2452     H
O      0.76413   0.8149  0.47814     O
C       0.7644   0.3298   0.2122     C
N      0.76778   0.4563  0.13284     N
H       0.7684   0.3139   0.9306     H
H       0.7711   0.1361   0.1114     H
O      0.77357   0.5708  0.34706     O
C       0.7859   0.4812   0.8342     C
O      0.78592   0.0607  0.37576     O
C       0.7909     0.35   0.8858     C
H       0.7932   0.2728   0.2142     H
C        0.798   0.0827   0.2096     C
C       0.8046   0.0864    0.129     C
C       0.8051   0.3733    0.139     C
Cu     0.81055  0.52015   0.0297    Cu
C       0.8364   0.9994    0.327     C
C       0.8366   0.5006    0.327     C
O      0.83832   0.4393  0.37576     O
Cu     0.84025  0.02015   0.9703    Cu
C        0.846   0.0093    0.237     C
C       0.8529   0.4528   0.7542     C
N       0.8562   0.0232   0.0736     N
C       0.8586   0.1924   0.6258     C
H       0.8589   0.5526    0.464     H
H       0.8602   0.3445   0.0922     H
C       0.8607   0.3167   0.8086     C
H       0.8633   0.0489   0.4708     H
C      0.86583   0.6831  0.61334     C
H       0.8677   0.0528   0.7986     H
H       0.8688    0.607   0.1974     H
H       0.8717   0.4899   0.7098     H
O      0.87937   0.9292  0.34706     O
H       0.8825   0.6361   0.8886     H
H       0.8869   0.2592    0.802     H
C       0.8921   0.3681   0.7406     C
C       0.8936   0.9951   0.7968     C
C       0.9002   0.9434    0.181     C
N      0.90062   0.9563  0.86716     N
O      0.90071   0.2351  0.56258     O
La    0.903032  0.36488 0.476736    La
C       0.9039   0.9535   0.1006     C
O      0.90705   0.5183   0.4735     O
O      0.90828   0.7266  0.55084     O
O      0.90927   0.1299  0.64966     O
H       0.9128   0.9857    0.677     H
O      0.91299   0.0134  0.47722     O
La    0.913344  0.85787 0.466652    La
O      0.91518   0.6205  0.63784     O
C        0.917   0.4907    0.237     C
C       0.9188   0.5566    0.181     C
C       0.9217   0.9556    0.723     C
N       0.9298   0.5232   0.9264     N
C       0.9336   0.5864    0.871     C
H       0.9338    0.893   0.1974     H
H       0.9419    0.909   0.0628     H
C       0.9441   0.8733    0.861     C
H       0.9524   0.8445   0.9078     H
O      0.95734   0.3814  0.59192     O
C      0.96105   0.3327   0.6521     C
H       0.9636   0.5257   0.4382     H
C       0.9641   0.8694   0.7176     C
H       0.9683   0.0233   0.4424     H
O      0.96891   0.8684  0.58138     O
O      0.97566   0.2534  0.36188     O
C       0.9766   0.8298   0.7878     C
O      0.98594   0.7418  0.35352     O
C       0.9893   0.8237   0.6384     C
C       0.9924   0.4173   0.2096     C
H       0.9926   0.2272   0.2142     H
H        0.993   0.3711   0.2452     H
H       0.9953    0.591   0.0628     H
C       0.9955   0.5465   0.1006     C
