data_I
_chemical_name_common  '/Users/gianmarcoterrones/Research/MOFs/MOF_structures/water_stability_work_extra_structs/cleaned_from_CCDC/LAZPAF'
_cell_length_a 11.41050
_cell_length_b 15.45750
_cell_length_c 18.00440
_cell_angle_alpha 69.97500
_cell_angle_beta  80.50700
_cell_angle_gamma 68.54900
_space_group_name_H-M_alt      'P 1'


loop_
_space_group_symop_operation_xyz
  'x, y, z' 

loop_
_atom_site_label
_atom_site_fract_x
_atom_site_fract_y
_atom_site_fract_z
_atom_site_type_symbol
I          0.0      0.5      0.0     I
H       0.0012    0.967   0.2095     H
N       0.0064   0.2706   0.1813     N
C       0.0203      0.3   0.3021     C
O       0.0357   0.3791   0.5706     O
Cu     0.04543  0.92226  0.96201    Cu
Cu     0.05461  0.29202   0.0644    Cu
H        0.059   0.2384   0.6958     H
H       0.0673   0.3109 0.33333333     H
C       0.0676   0.2885   0.2284     C
C       0.0828   0.9944    0.787     C
C       0.0894   0.2625   0.7265     C
H       0.0908   0.1544   0.8286     H
C       0.0977   0.7054   0.6729     C
C       0.0984   0.4044   0.6061     C
H       0.0993   0.0481   0.6674     H
C       0.1033   0.7424   0.7902     C
O       0.1051    0.672   0.5526     O
C       0.1086   0.2124   0.8069     C
I      0.10944  0.72713  0.01114     I
C       0.1162   0.3481   0.6937     C
O       0.1179   0.7712    0.364     O
H        0.131   0.5092   0.2666     H
H       0.1311   0.5229   0.1362     H
N       0.1373   0.9351   0.8536     N
H       0.1399   0.2778   0.5086     H
C       0.1414   0.0036   0.7124     C
H       0.1445   0.1964   0.4884     H
O       0.1446   0.4701   0.5763     O
H       0.1449   0.7598     0.82     H
Cu     0.14637  0.17643  0.97261    Cu
H       0.1468   0.2937   0.2109     H
N       0.1505   0.2431   0.8533     N
C       0.1577   0.7312   0.7188     C
C       0.1607   0.3809   0.7422     C
C       0.1649   0.6767   0.6014     C
C       0.1756   0.3269   0.8209     C
Pr     0.17877  0.59125  0.44785    Pr
H       0.1801   0.4383   0.7221     H
O       0.1812    0.237   0.4839     O
I      0.19227   0.9838  0.02553     I
C       0.1972   0.4669    0.245     C
C       0.1976   0.4753   0.1663     C
H       0.2004   0.8886   0.2318     H
O       0.2035   0.8897   0.5179     O
H       0.2045   0.3497   0.8533     H
O       0.2096   0.4514   0.4037     O
C       0.2142   0.7803   0.3794     C
C       0.2247   0.9187   0.2604     C
H       0.2314   0.0361   0.1681     H
H       0.2346   0.7408   0.7012     H
C       0.2417   0.8737   0.3411     C
C        0.243   0.0067   0.2221     C
H       0.2522   0.5276   0.8511     H
C        0.257   0.8794   0.8478     C
C       0.2654   0.9436   0.7074     C
C       0.2789   0.0507   0.2653     C
C       0.2825   0.9163   0.3846     C
O       0.2834   0.6543   0.6003     O
Cu     0.28808  0.41762  0.02197    Cu
H        0.289   0.1113   0.2403     H
O       0.2901   0.6164   0.3045     O
N       0.2909   0.4169   0.1319     N
C       0.2926   0.3976   0.2924     C
O       0.2939    0.709   0.4266     O
C       0.2951   0.3907   0.3776     C
C       0.2964   0.8685   0.4733     C
H       0.2977    0.838   0.8941     H
I      0.30006  0.21926  0.04126     I
C       0.3003   0.0058    0.346     C
O        0.312   0.0386   0.5823     O
O       0.3142    0.145   0.3683     O
C       0.3232   0.8803   0.7764     C
H       0.3324   0.6589   0.1516     H
C       0.3369   0.4894   0.8508     C
C         0.34   0.9539   0.6292     C
H        0.344     0.48   0.5744     H
C       0.3462   0.0545   0.3881     C
H       0.3615   0.5317   0.7325     H
O       0.3698   0.5063    0.519     O
O       0.3726    0.197   0.6061     O
H       0.3788   0.0655   0.7356     H
C       0.3852   0.3498   0.1778     C
O       0.3861   0.3238   0.4178     O
N       0.3894   0.4345   0.9201     N
C       0.3897   0.3377   0.2572     C
C       0.4009   0.5617   0.3023     C
C        0.402   0.4922   0.7792     C
O       0.4049   0.8053   0.4962     O
H       0.4059   0.8387   0.7748     H
C         0.41   0.0903   0.7654     C
C       0.4134   0.2326   0.6439     C
Pr     0.41497  0.14502 0.487233    Pr
H       0.4158   0.9823   0.8666     H
C        0.417   0.6202   0.1524     C
O       0.4191   0.0001   0.4445     O
O       0.4249   0.8781   0.6212     O
C       0.4321   0.0409   0.8446     C
C       0.4345   0.1766   0.7312     C
O       0.4399   0.3094   0.6174     O
H       0.4479    0.657   0.0356     H
H       0.4513    0.309   0.1548     H
H       0.4571     0.29   0.2864     H
O       0.4589   0.5005   0.3628     O
Pr     0.46817  0.62982 0.516018    Pr
H       0.4728   0.8197   0.1106     H
C        0.473   0.5635   0.2233     C
N       0.4751   0.0721   0.8909     N
C       0.4798   0.2104   0.7791     C
C       0.4872    0.619    0.083     C
H       0.4976   0.2684   0.7584     H
C       0.4978   0.1566   0.8578     C
Cu         0.5      0.0      0.0    Cu
C       0.5022   0.8434   0.1422     C
H       0.5024   0.7316   0.2416     H
C       0.5128    0.381    0.917     C
C       0.5202   0.7896   0.2209     C
N       0.5249   0.9279   0.1091     N
C        0.527   0.4365   0.7767     C
H       0.5272   0.1803   0.8894     H
Pr     0.53183  0.37018 0.483982    Pr
O       0.5411   0.4995   0.6372     O
H       0.5429     0.71   0.7136     H
H       0.5487    0.691   0.8452     H
H       0.5521    0.343   0.9644     H
O       0.5601   0.6906   0.3826     O
C       0.5655   0.8234   0.2688     C
C       0.5679   0.9591   0.1554     C
O       0.5751   0.1219   0.3788     O
O       0.5809   0.9999   0.5555     O
C        0.583   0.3798   0.8476     C
H       0.5842   0.0177   0.1334     H
Pr     0.58503  0.85498 0.512767    Pr
C       0.5866   0.7674   0.3561     C
C         0.59   0.9097   0.2346     C
H       0.5941   0.1613   0.2252     H
O       0.5951   0.1947   0.5038     O
C        0.598   0.5078   0.2208     C
C       0.5991   0.4383   0.6977     C
C       0.6103   0.6623   0.7428     C
N       0.6106   0.5655   0.0799     N
O       0.6139   0.6762   0.5822     O
C       0.6148   0.6502   0.8222     C
H       0.6212   0.9345   0.2644     H
O       0.6274    0.803   0.3939     O
O       0.6302   0.4937    0.481     O
H       0.6385   0.4683   0.2675     H
C       0.6538   0.9455   0.6119     C
H        0.656     0.52   0.4256     H
C         0.66   0.0461   0.3708     C
C       0.6631   0.5106   0.1492     C
H       0.6676   0.3411   0.8484     H
C       0.6768   0.1197   0.2236     C
O       0.6858    0.855   0.6317     O
O        0.688   0.9614   0.4177     O
C       0.6997   0.9942    0.654     C
I      0.69994  0.78074  0.95874     I
H       0.7023    0.162   0.1059     H
C       0.7036   0.1315   0.5267     C
C       0.7049   0.6093   0.6224     C
O       0.7061    0.291   0.5734     O
C       0.7074   0.6024   0.7076     C
N       0.7091   0.5831   0.8681     N
O       0.7099   0.3836   0.6955     O
H        0.711   0.8887   0.7597     H
Cu     0.71192  0.58238  0.97803    Cu
O       0.7166   0.3457   0.3997     O
C       0.7175   0.0837   0.6154     C
C       0.7211   0.9493   0.7347     C
C       0.7346   0.0564   0.2926     C
C        0.743   0.1206   0.1522     C
H       0.7478   0.4724   0.1489     H
C        0.757   0.9933   0.7779     C
C       0.7583   0.1263   0.6589     C
H       0.7654   0.2592   0.2988     H
H       0.7686   0.9639   0.8319     H
C       0.7753   0.0813   0.7396     C
C       0.7858   0.2197   0.6206     C
O       0.7904   0.5486   0.5963     O
H       0.7955   0.6503   0.1467     H
O       0.7965   0.1103   0.4821     O
H       0.7996   0.1114   0.7682     H
C       0.8024   0.5247   0.8337     C
C       0.8028   0.5331    0.755     C
I      0.80773   0.0162  0.97447     I
O       0.8188    0.763   0.5161     O
H       0.8199   0.5617   0.2779     H
Pr     0.82123  0.40875  0.55215    Pr
C       0.8244   0.6731   0.1791     C
C       0.8351   0.3233   0.3986     C
C       0.8393   0.6191   0.2578     C
C       0.8423   0.2688   0.2812     C
N       0.8495   0.7569   0.1467     N
H       0.8532   0.7063   0.7891     H
Cu     0.85363  0.82357  0.02739    Cu
H       0.8551   0.2402     0.18     H
O       0.8554   0.5299   0.4237     O
H       0.8555   0.8036   0.5116     H
C       0.8586   0.9964   0.2876     C
H       0.8601   0.7222   0.4914     H
N       0.8627   0.0649   0.1464     N
H       0.8689   0.4771   0.8638     H
H        0.869   0.4908   0.7334     H
O       0.8821   0.2288    0.636     O
C       0.8838   0.6519   0.3063     C
I      0.89056  0.27287  0.98886     I
C       0.8914   0.7876   0.1931     C
O       0.8949    0.328   0.4474     O
C       0.8967   0.2576   0.2098     C
H       0.9007   0.9519   0.3326     H
C       0.9016   0.5956   0.3939     C
C       0.9023   0.2946   0.3271     C
H       0.9092   0.8456   0.1714     H
C       0.9106   0.7375   0.2735     C
C       0.9172   0.0056    0.213     C
C       0.9324   0.7115   0.7716     C
H       0.9327   0.6891 0.66666667     H
H        0.941   0.7616   0.3042     H
Cu     0.94539  0.70798   0.9356    Cu
Cu     0.95457  0.07774  0.03799    Cu
O       0.9643   0.6209   0.4294     O
C       0.9797      0.7   0.6979     C
N       0.9936   0.7294   0.8187     N
H       0.9988    0.033   0.7905     H
