data_I
_chemical_name_common  '/Users/gianmarcoterrones/Research/MOFs/MOF_structures/water_stability_work_extra_structs/cleaned_from_CCDC/LAZPEJ'
_cell_length_a 11.38950
_cell_length_b 15.38870
_cell_length_c 17.97310
_cell_angle_alpha 70.02500
_cell_angle_beta  80.61200
_cell_angle_gamma 68.61200
_space_group_name_H-M_alt      'P 1'


loop_
_space_group_symop_operation_xyz
  'x, y, z' 

loop_
_atom_site_label
_atom_site_fract_x
_atom_site_fract_y
_atom_site_fract_z
_atom_site_type_symbol
I          0.0      0.5      0.0     I
H       0.0021   0.9651   0.2101     H
N       0.0064   0.2708   0.1818     N
C       0.0206   0.2999   0.3022     C
O       0.0339   0.3797   0.5701     O
Cu     0.04611  0.92258  0.96196    Cu
Cu      0.0547  0.29234  0.06476    Cu
H       0.0571   0.2398   0.6954     H
H       0.0675   0.3113   0.3335     H
C       0.0688   0.2884   0.2289     C
C       0.0818   0.9958   0.7864     C
C       0.0887   0.2634   0.7261     C
H       0.0913   0.1541   0.8274     H
C       0.0962   0.7057   0.6723     C
C       0.0972   0.4047   0.6057     C
H       0.0994   0.0492   0.6664     H
C       0.1031   0.7427   0.7891     C
O        0.105   0.6713   0.5526     O
C       0.1084   0.2127    0.806     C
I      0.10997  0.72682  0.01081     I
C       0.1166   0.3488    0.693     C
O       0.1177   0.7701   0.3642     O
H       0.1293   0.5091   0.2682     H
H       0.1315   0.5213   0.1371     H
N        0.137   0.9354   0.8533     N
H       0.1408   0.2782   0.5081     H
C       0.1412   0.0045   0.7116     C
H       0.1445   0.7606    0.819     H
O       0.1447   0.4706    0.576     O
H       0.1461   0.1968   0.4881     H
Cu     0.14647  0.17707  0.97266    Cu
H       0.1484   0.2932   0.2116     H
N       0.1505   0.2443   0.8532     N
C       0.1581   0.7319   0.7184     C
C       0.1611   0.3817   0.7413     C
C       0.1662   0.6767   0.6008     C
C       0.1758   0.3274   0.8207     C
Nd     0.17892  0.59128 0.448294    Nd
H       0.1808   0.4392   0.7211     H
O       0.1831   0.2375   0.4833     O
I      0.19263  0.98384  0.02574     I
C       0.1961   0.4671   0.2465     C
C       0.1985   0.4744   0.1674     C
H       0.1988   0.8889   0.2321     H
O       0.2042    0.889   0.5177     O
H        0.205   0.3505    0.853     H
O       0.2096   0.4516   0.4048     O
C       0.2141   0.7806   0.3793     C
C       0.2242   0.9186   0.2608     C
H       0.2333   0.0355   0.1684     H
H       0.2351   0.7418   0.7009     H
C       0.2416    0.873   0.3417     C
C       0.2438   0.0063   0.2226     C
H       0.2534   0.5305   0.8528     H
C       0.2579   0.8792   0.8475     C
C       0.2649   0.9443   0.7066     C
C       0.2798    0.051   0.2664     C
O       0.2837   0.6546   0.5995     O
C       0.2839   0.9165   0.3841     C
H       0.2898    0.112   0.2418     H
Cu     0.29062  0.41819  0.02278    Cu
O        0.292    0.615    0.306     O
N       0.2922   0.4175   0.1327     N
C       0.2939   0.3967   0.2933     C
O       0.2945   0.7083   0.4268     O
C        0.295   0.3902    0.379     C
C       0.2959   0.8683   0.4738     C
H       0.2988   0.8373   0.8937     H
C       0.3007   0.0055   0.3458     C
I      0.30076  0.21967  0.04141     I
O       0.3114   0.0391   0.5817     O
O       0.3147   0.1454    0.369     O
C       0.3237   0.8809   0.7763     C
H       0.3314   0.6593   0.1521     H
C       0.3376   0.4913   0.8519     C
C       0.3399   0.9543   0.6286     C
H        0.344   0.4805   0.5737     H
C       0.3467   0.0548   0.3881     C
H       0.3594   0.5346    0.733     H
O       0.3697   0.5068   0.5182     O
O       0.3731   0.1959   0.6061     O
H       0.3793   0.0661   0.7344     H
O       0.3865   0.3238   0.4192     O
C       0.3867     0.35   0.1779     C
N       0.3905   0.4351   0.9209     N
C       0.3907   0.3372   0.2572     C
C       0.4008   0.4945   0.7795     C
C       0.4017   0.5598   0.3036     C
O       0.4057    0.805   0.4961     O
H        0.407     0.84   0.7746     H
C       0.4101   0.0908   0.7647     C
C       0.4143   0.2323   0.6443     C
Nd     0.41542  0.14504 0.487379    Nd
C       0.4158     0.62   0.1527     C
H       0.4162   0.9807   0.8656     H
O       0.4201   0.9995   0.4448     O
O        0.425   0.8787     0.62     O
C       0.4319   0.0399   0.8439     C
C       0.4338   0.1766   0.7312     C
O       0.4401    0.309   0.6165     O
H       0.4462   0.6542   0.0357     H
H        0.453   0.3096   0.1545     H
H       0.4581   0.2888   0.2863     H
O        0.462   0.4984   0.3637     O
Nd     0.46776  0.62972  0.51573    Nd
H       0.4689   0.8209   0.1118     H
C       0.4738   0.5626   0.2235     C
N       0.4746   0.0728   0.8904     N
C        0.479   0.2113   0.7786     C
C       0.4864   0.6172   0.0831     C
H       0.4955   0.2702   0.7579     H
C        0.499   0.1564    0.857     C
Cu         0.5      0.0      0.0    Cu
C        0.501   0.8436    0.143     C
H       0.5045   0.7298   0.2421     H
C       0.5136   0.3828   0.9169     C
C        0.521   0.7887   0.2214     C
N       0.5254   0.9272   0.1096     N
C       0.5262   0.4374   0.7765     C
H       0.5311   0.1791   0.8882     H
Nd     0.53224  0.37028  0.48427    Nd
O        0.538   0.5016   0.6363     O
H       0.5419   0.7112   0.7137     H
H        0.547   0.6904   0.8455     H
H       0.5538   0.3458   0.9643     H
O       0.5599    0.691   0.3835     O
C       0.5662   0.8234   0.2688     C
C       0.5681   0.9601   0.1561     C
O        0.575   0.1213     0.38     O
O       0.5799   0.0005   0.5552     O
H       0.5838   0.0193   0.1344     H
C       0.5842     0.38   0.8473     C
Nd     0.58458  0.85496 0.512621    Nd
C       0.5857   0.7677   0.3557     C
C       0.5899   0.9092   0.2353     C
H        0.593     0.16   0.2254     H
O       0.5943    0.195   0.5039     O
C       0.5983   0.4402   0.6964     C
C       0.5992   0.5055   0.2205     C
C       0.6093   0.6628   0.7428     C
N       0.6095   0.5649   0.0791     N
C       0.6133     0.65   0.8221     C
O       0.6135   0.6762   0.5808     O
H       0.6207   0.9339   0.2656     H
O       0.6269   0.8041   0.3939     O
O       0.6303   0.4932   0.4818     O
H       0.6406   0.4654    0.267     H
C       0.6533   0.9452   0.6119     C
H        0.656   0.5195   0.4263     H
C       0.6601   0.0457   0.3714     C
C       0.6624   0.5087   0.1481     C
H       0.6686   0.3407   0.8479     H
C       0.6763   0.1191   0.2237     C
O       0.6853   0.8546    0.631     O
O       0.6886   0.9609   0.4183     O
I      0.69924  0.78033  0.95859     I
C       0.6993   0.9945   0.6542     C
H       0.7012   0.1627   0.1063     H
C       0.7041   0.1317   0.5262     C
C        0.705   0.6098    0.621     C
O       0.7055   0.2917   0.5732     O
C       0.7061   0.6033   0.7067     C
N       0.7078   0.5825   0.8673     N
O        0.708    0.385    0.694     O
Cu     0.70938  0.58181  0.97722    Cu
H       0.7102    0.888   0.7582     H
C       0.7161   0.0835   0.6159     C
O       0.7163   0.3454   0.4005     O
C       0.7202    0.949   0.7336     C
C       0.7351   0.0557   0.2934     C
C       0.7421   0.1208   0.1525     C
H       0.7466   0.4695   0.1472     H
C       0.7562   0.9937   0.7774     C
C       0.7584    0.127   0.6583     C
H       0.7649   0.2582   0.2991     H
H       0.7667   0.9645   0.8316     H
C       0.7758   0.0814   0.7392     C
C       0.7859   0.2194   0.6207     C
O       0.7904   0.5484   0.5952     O
H        0.795   0.6495    0.147     H
O       0.7958    0.111   0.4823     O
H       0.8012   0.1111   0.7679     H
C       0.8015   0.5256   0.8326     C
C       0.8039   0.5329   0.7535     C
I      0.80737  0.01616  0.97426     I
O       0.8169   0.7625   0.5167     O
H       0.8192   0.5608   0.2789     H
Nd     0.82108  0.40872 0.551706    Nd
C       0.8242   0.6726   0.1793     C
C       0.8338   0.3233   0.3992     C
C       0.8389   0.6183   0.2587     C
C       0.8419   0.2681   0.2816     C
N       0.8495   0.7557   0.1468     N
H       0.8516   0.7068   0.7884     H
Cu     0.85353  0.82293  0.02734    Cu
H       0.8539   0.8032   0.5119     H
O       0.8553   0.5294    0.424     O
H       0.8555   0.2394    0.181     H
C       0.8588   0.9955   0.2884     C
H       0.8592   0.7218   0.4919     H
N        0.863   0.0646   0.1467     N
H       0.8685   0.4787   0.8629     H
H       0.8707   0.4909   0.7318     H
O       0.8823   0.2299   0.6358     O
C       0.8834   0.6512    0.307     C
I      0.89003  0.27318  0.98919     I
C       0.8916   0.7873    0.194     C
O        0.895   0.3287   0.4474     O
C       0.8969   0.2573   0.2109     C
H       0.9006   0.9508   0.3336     H
C       0.9028   0.5953   0.3943     C
C       0.9038   0.2943   0.3277     C
H       0.9087   0.8459   0.1726     H
C       0.9113   0.7366   0.2739     C
C       0.9182   0.0042   0.2136     C
C       0.9312   0.7116   0.7711     C
H       0.9325   0.6887   0.6665     H
H       0.9429   0.7602   0.3046     H
Cu      0.9453  0.70766  0.93524    Cu
Cu     0.95389  0.07742  0.03804    Cu
O       0.9661   0.6203   0.4299     O
C       0.9794   0.7001   0.6978     C
N       0.9936   0.7292   0.8182     N
H       0.9979   0.0349   0.7899     H
