data_I
_chemical_name_common  '/Users/gianmarcoterrones/Research/MOFs/MOF_structures/water_stability_work_extra_structs/cleaned_from_CCDC/LIHDUC'
_cell_length_a 10.83003
_cell_length_b 10.83003
_cell_length_c 10.83003
_cell_angle_alpha 96.55130
_cell_angle_beta  96.55130
_cell_angle_gamma 96.55130
_space_group_name_H-M_alt      'P 1'


loop_
_space_group_symop_operation_xyz
  'x, y, z' 

loop_
_atom_site_label
_atom_site_fract_x
_atom_site_fract_y
_atom_site_fract_z
_atom_site_type_symbol
C      0.00422  0.55407  0.28532     C
C       0.0062   0.9141   0.1686     C
H       0.0113    0.189   0.7887     H
H       0.0122   0.2189   0.1803     H
H       0.0156   0.9543   0.2001     H
H         0.02   0.1438   0.9063     H
H       0.0202   0.4033   0.5324     H
C      0.02049  0.50692  0.06075     C
H       0.0312    0.117   0.7629     H
N       0.0353   0.9643   0.8434     N
N       0.0357   0.1566   0.9647     N
C       0.0384    0.122   0.8316     C
H       0.0457   0.7999   0.9844     H
C       0.0463   0.1407   0.1767     C
C      0.05001  0.45237  0.83683     C
H       0.0575   0.7911   0.5823     H
C      0.06009     0.41   0.6161     C
C      0.06075  0.02049  0.50692     C
H       0.0772   0.8127   0.9042     H
H       0.0839   0.1031    0.489     H
C       0.0859   0.8314   0.9938     C
H       0.0869   0.5335   0.3022     H
H       0.0937     0.98   0.8562     H
H       0.0958   0.9228   0.1873     H
H       0.1031    0.489   0.0839     H
H        0.117   0.7629   0.0312     H
H       0.1229    0.112   0.8177     H
C       0.1407   0.1767   0.0463     C
C      0.14101  0.82821  0.58081     C
O       0.1424   0.1924   0.1627     O
H       0.1438   0.9063     0.02     H
N       0.1566   0.9647   0.0357     N
O       0.1627   0.1424   0.1924     O
C      0.16317  0.94999  0.54763     C
C       0.1684   0.9616    0.878     C
C      0.17179  0.41919  0.85899     C
C       0.1767   0.0463   0.1407     C
H       0.1803   0.0122   0.2189     H
C      0.18218  0.38377  0.63832     C
H       0.1823   0.8771    0.888     H
O      0.18899   0.3145  0.42526     O
H        0.189   0.7887   0.0113     H
O       0.1924   0.1627   0.1424     O
H       0.2001   0.0156   0.9543     H
H       0.2089   0.4177   0.9425     H
H       0.2113   0.9887    0.811     H
H       0.2189   0.1803   0.0122     H
H       0.2234   0.6779   0.6289     H
H       0.2371   0.9688    0.883     H
C      0.23818  0.38869  0.76049     C
C      0.23951  0.76182  0.61131     C
C      0.25355   0.3528  0.53171     C
C      0.28532  0.00422  0.55407     C
Zn    0.28676933 0.28676933 0.28676933    Zn
H       0.3022   0.0869   0.5335     H
O       0.3145  0.42526  0.18899     O
H       0.3221   0.3711   0.7766     H
C       0.3528  0.53171  0.25355     C
C      0.36168  0.81782  0.61623     C
O      0.36317  0.55051  0.37066     O
O      0.37066  0.36317  0.55051     O
H       0.3711   0.7766   0.3221     H
C      0.38377  0.63832  0.18218     C
C       0.3839  0.93991     0.59     C
C      0.38869  0.76049  0.23818     C
H       0.4033   0.5324   0.0202     H
C         0.41   0.6161  0.06009     C
H       0.4177   0.9425   0.2089     H
C      0.41919  0.85899  0.17179     C
O      0.42526  0.18899   0.3145     O
C      0.44593  0.71468  0.99578     C
O      0.44949  0.62934  0.63683     O
C      0.45237  0.83683  0.05001     C
H       0.4665   0.6978   0.9131     H
H       0.4676   0.9798   0.5967     H
C      0.46829  0.74645   0.6472     C
H        0.489   0.0839   0.1031     H
C      0.49308  0.93925  0.97951     C
Zn    0.49996667 0.49996667 0.49996667    Zn
C      0.50692  0.06075  0.02049     C
H        0.511   0.9161   0.8969     H
C      0.53171  0.25355   0.3528     C
H       0.5324   0.0202   0.4033     H
H       0.5335   0.3022   0.0869     H
C      0.54763  0.16317  0.94999     C
O      0.55051  0.37066  0.36317     O
C      0.55407  0.28532  0.00422     C
O      0.57474  0.81101   0.6855     O
C      0.58081  0.14101  0.82821     C
H       0.5823   0.0575   0.7911     H
C         0.59   0.3839  0.93991     C
H       0.5967   0.4676   0.9798     H
C      0.61131  0.23951  0.76182     C
C       0.6161  0.06009     0.41     C
C      0.61623  0.36168  0.81782     C
H       0.6289   0.2234   0.6779     H
O      0.62934  0.63683  0.44949     O
O      0.63683  0.44949  0.62934     O
C      0.63832  0.18218  0.38377     C
C       0.6472  0.46829  0.74645     C
H       0.6779   0.6289   0.2234     H
O       0.6855  0.57474  0.81101     O
H       0.6978   0.9131   0.4665     H
Zn    0.71323067 0.71323067 0.71323067    Zn
C      0.71468  0.99578  0.44593     C
C      0.74645   0.6472  0.46829     C
C      0.76049  0.23818  0.38869     C
C      0.76182  0.61131  0.23951     C
H       0.7629   0.0312    0.117     H
H       0.7766   0.3221   0.3711     H
H       0.7811   0.8197   0.9878     H
H       0.7887   0.0113    0.189     H
H       0.7911   0.5823   0.0575     H
H       0.7999   0.9844   0.0457     H
O       0.8076   0.8373   0.8576     O
H        0.811   0.2113   0.9887     H
O      0.81101   0.6855  0.57474     O
H       0.8127   0.9042   0.0772     H
C      0.81782  0.61623  0.36168     C
H       0.8197   0.9878   0.7811     H
C       0.8233   0.9537   0.8593     C
C      0.82821  0.58081  0.14101     C
C       0.8314   0.9938   0.0859     C
C      0.83683  0.05001  0.45237     C
O       0.8373   0.8576   0.8076     O
N       0.8434   0.0353   0.9643     N
H       0.8562   0.0937     0.98     H
O       0.8576   0.8076   0.8373     O
C      0.85899  0.17179  0.41919     C
C       0.8593   0.8233   0.9537     C
C        0.878   0.1684   0.9616     C
H        0.883   0.2371   0.9688     H
H        0.888   0.1823   0.8771     H
H       0.8969    0.511   0.9161     H
H       0.9063     0.02   0.1438     H
H       0.9131   0.4665   0.6978     H
H       0.9161   0.8969    0.511     H
C      0.93925  0.97951  0.49308     C
C      0.93991     0.59   0.3839     C
H       0.9425   0.2089   0.4177     H
C      0.94999  0.54763  0.16317     C
C       0.9537   0.8593   0.8233     C
H       0.9543   0.2001   0.0156     H
N       0.9643   0.8434   0.0353     N
N       0.9647   0.0357   0.1566     N
H       0.9688    0.883   0.2371     H
C      0.97951  0.49308  0.93925     C
H       0.9798   0.5967   0.4676     H
H         0.98   0.8562   0.0937     H
H       0.9844   0.0457   0.7999     H
H       0.9878   0.7811   0.8197     H
H       0.9887    0.811   0.2113     H
C      0.99578  0.44593  0.71468     C
