data_I
_chemical_name_common  '/Users/gianmarcoterrones/Research/MOFs/MOF_structures/water_stability_work_extra_structs/cleaned_from_CCDC/MAKDOU'
_cell_length_a  8.17920
_cell_length_b 12.80650
_cell_length_c 16.58640
_cell_angle_alpha 90.00000
_cell_angle_beta  90.00000
_cell_angle_gamma 104.99700
_space_group_name_H-M_alt      'P 1'


loop_
_space_group_symop_operation_xyz
  'x, y, z' 

loop_
_atom_site_label
_atom_site_fract_x
_atom_site_fract_y
_atom_site_fract_z
_atom_site_type_symbol
O        0.014   0.6825  0.84913     O
N        0.017   0.2219  0.57695     N
C       0.0359   0.3599   0.0149     C
H       0.0541   0.8912   0.9449     H
C       0.0562   0.9589   0.9209     C
N        0.059   0.3565  0.66206     N
H       0.0661   0.2158   0.8253     H
C       0.0664   0.1501   0.8518     C
C       0.0753   0.5892    0.136     C
H        0.078    0.821   0.5453     H
C       0.0815   0.9316   0.1415     C
Eu     0.08204  0.69735  0.70927    Eu
N        0.086   0.0277   0.1081     N
C        0.094   0.3412   0.0984     C
C       0.0962   0.4476    0.885     C
O       0.1013   0.8247   0.5959     O
N       0.1045   0.6978  0.32805     N
H       0.1112   0.4146   0.6892     H
H       0.1136    0.571   0.1869     H
C       0.1237   0.7794   0.3793     C
C       0.1307   0.3091   0.6047     C
C       0.1354   0.6766   0.0066     C
O        0.137   0.4362    0.353     O
O       0.1492   0.2268   0.2761     O
C       0.1501    0.421   0.9596     C
O       0.1633   0.5394   0.7598     O
C       0.1707    0.133   0.2841     C
H       0.1838   0.9191   0.1613     H
C       0.1888   0.6524   0.0819     C
H       0.1916   0.9777   0.4412     H
O       0.1983   0.8879    0.759     O
H        0.205     0.86    0.603     H
C       0.2097    0.037   0.9189     C
H       0.2147   0.7179   0.9695     H
C       0.2161   0.5218   0.8294     C
C       0.2173   0.1351   0.8846     C
H       0.2334   0.5553   0.4733     H
O       0.2493   0.3498  0.10722     O
O       0.2507   0.6502  0.60722     O
H       0.2666   0.4447   0.9733     H
C       0.2827   0.8649   0.3846     C
C       0.2839   0.4782   0.3294     C
H       0.2853   0.2821   0.4695     H
C       0.2903    0.963   0.4189     C
H        0.295     0.14    0.103     H
O       0.3017   0.1121    0.259     O
H       0.3084   0.0223   0.9412     H
C       0.3112   0.3476   0.5819     C
H       0.3162   0.0809   0.6613     H
C       0.3293    0.867   0.7841     C
O       0.3367   0.4606   0.2598     O
C       0.3499    0.579   0.4596     C
O       0.3508   0.7732   0.7761     O
O        0.363   0.5638    0.853     O
C       0.3646   0.3234   0.5066     C
C       0.3693   0.6909   0.1047     C
C       0.3763   0.2206   0.8793     C
H       0.3864    0.429   0.6869     H
H       0.3888   0.5854   0.1892     H
N       0.3955   0.3022  0.82805     N
O       0.3987   0.1753   0.0959     O
C       0.4038   0.5524    0.385     C
C        0.406   0.6588   0.5984     C
N        0.414   0.9723   0.6081     N
Eu     0.41796  0.30265  0.20927    Eu
C       0.4185   0.0684   0.6415     C
H        0.422    0.179   0.0453     H
C       0.4247   0.4108    0.636     C
C       0.4336   0.8499   0.3518     C
H       0.4339   0.7842   0.3253     H
N        0.441   0.6435  0.16206     N
C       0.4438   0.0411   0.4209     C
H       0.4459   0.1088   0.4449     H
C       0.4641   0.6401   0.5149     C
N        0.483   0.7781  0.07695     N
O        0.486   0.3175  0.34913     O
O        0.514   0.6825  0.65087     O
N        0.517   0.2219  0.92305     N
C       0.5359   0.3599   0.4851     C
H       0.5541   0.8912   0.5551     H
C       0.5562   0.9589   0.5791     C
N        0.559   0.3565  0.83794     N
H       0.5661   0.2158   0.6747     H
C       0.5664   0.1501   0.6482     C
C       0.5753   0.5892    0.364     C
H        0.578    0.821   0.9547     H
C       0.5815   0.9316   0.3585     C
Eu     0.58204  0.69735  0.79073    Eu
N        0.586   0.0277   0.3919     N
C        0.594   0.3412   0.4016     C
C       0.5962   0.4476    0.615     C
O       0.6013   0.8247   0.9041     O
N       0.6045   0.6978  0.17195     N
H       0.6112   0.4146   0.8108     H
H       0.6136    0.571   0.3131     H
C       0.6237   0.7794   0.1207     C
C       0.6307   0.3091   0.8953     C
C       0.6354   0.6766   0.4934     C
O        0.637   0.4362    0.147     O
O       0.6492   0.2268   0.2239     O
C       0.6501    0.421   0.5404     C
O       0.6633   0.5394   0.7402     O
C       0.6707    0.133   0.2159     C
H       0.6838   0.9191   0.3387     H
C       0.6888   0.6524   0.4181     C
H       0.6916   0.9777   0.0588     H
O       0.6983   0.8879    0.741     O
H        0.705     0.86    0.897     H
C       0.7097    0.037   0.5811     C
H       0.7147   0.7179   0.5305     H
C       0.7161   0.5218   0.6706     C
C       0.7173   0.1351   0.6154     C
H       0.7334   0.5553   0.0267     H
O       0.7493   0.3498  0.39278     O
O       0.7507   0.6502  0.89278     O
H       0.7666   0.4447   0.5267     H
C       0.7827   0.8649   0.1154     C
C       0.7839   0.4782   0.1706     C
H       0.7853   0.2821   0.0305     H
C       0.7903    0.963   0.0811     C
H        0.795     0.14    0.397     H
O       0.8017   0.1121    0.241     O
H       0.8084   0.0223   0.5588     H
C       0.8112   0.3476   0.9181     C
H       0.8162   0.0809   0.8387     H
C       0.8293    0.867   0.7159     C
O       0.8367   0.4606   0.2402     O
C       0.8499    0.579   0.0404     C
O       0.8508   0.7732   0.7239     O
O        0.863   0.5638    0.647     O
C       0.8646   0.3234   0.9934     C
C       0.8693   0.6909   0.3953     C
C       0.8763   0.2206   0.6207     C
H       0.8864    0.429   0.8131     H
H       0.8888   0.5854   0.3108     H
N       0.8955   0.3022  0.67195     N
O       0.8987   0.1753   0.4041     O
C       0.9038   0.5524    0.115     C
C        0.906   0.6588   0.9016     C
N        0.914   0.9723   0.8919     N
Eu     0.91796  0.30265  0.29073    Eu
C       0.9185   0.0684   0.8585     C
H        0.922    0.179   0.4547     H
C       0.9247   0.4108    0.864     C
C       0.9336   0.8499   0.1482     C
H       0.9339   0.7842   0.1747     H
N        0.941   0.6435  0.33794     N
C       0.9438   0.0411   0.0791     C
H       0.9459   0.1088   0.0551     H
C       0.9641   0.6401   0.9851     C
N        0.983   0.7781  0.42305     N
O        0.986   0.3175  0.15087     O
