data_I
_chemical_name_common  '/Users/gianmarcoterrones/Research/MOFs/MOF_structures/water_stability_work_extra_structs/cleaned_from_CCDC/MAKDIO'
_cell_length_a  8.14460
_cell_length_b 12.64150
_cell_length_c 16.51060
_cell_angle_alpha 90.00000
_cell_angle_beta  90.00000
_cell_angle_gamma 104.50600
_space_group_name_H-M_alt      'P 1'


loop_
_space_group_symop_operation_xyz
  'x, y, z' 

loop_
_atom_site_label
_atom_site_fract_x
_atom_site_fract_y
_atom_site_fract_z
_atom_site_type_symbol
O       0.0146   0.6838    0.152     O
N       0.0155  0.22126  0.42345     N
H       0.0273   0.8707   0.3943     H
C       0.0355   0.3582   0.9857     C
H       0.0532   0.8881   0.0519     H
N       0.0552  0.35719  0.33812     N
C       0.0555   0.9562   0.0768     C
H       0.0628    0.217    0.175     H
H        0.064   0.7937   0.4476     H
C       0.0642   0.1503   0.1488     C
C       0.0764   0.5891   0.8636     C
Sm     0.07887  0.70043 0.291272    Sm
C       0.0821   0.9329   0.8568     C
N       0.0881   0.0282   0.8924     N
C       0.0933   0.4481   0.1152     C
O        0.094    0.829   0.4034     O
C       0.0944   0.3385   0.9019     C
H       0.1065   0.4169   0.3119     H
N        0.109  0.69812  0.67357     N
H       0.1141   0.5714   0.8121     H
C       0.1256   0.7793    0.621     C
C       0.1293   0.3086   0.3952     C
C       0.1349   0.6769    0.994     C
O       0.1379   0.4346   0.6477     O
C       0.1512   0.4209   0.0408     C
O       0.1547   0.2247   0.7243     O
O       0.1602   0.5413   0.2415     O
C       0.1776  0.12866  0.71654     C
H       0.1836   0.9215   0.8342     H
H       0.1923   0.9786   0.5567     H
C       0.1924    0.653   0.9181     C
O       0.1929   0.8921   0.2421     O
C       0.2083   0.0356   0.0795     C
H       0.2132   0.7176   0.0321     H
C        0.215   0.1351   0.1155     C
C       0.2152   0.5229    0.172     C
H       0.2319   0.5554   0.5274     H
O       0.2485   0.6545   0.3934     O
O       0.2515   0.3455   0.8934     O
H       0.2681   0.4446   0.0274     H
C       0.2848   0.4771    0.672     C
C        0.285   0.8649   0.6155     C
H       0.2868   0.2824   0.5321     H
C       0.2917   0.9644   0.5795     C
O       0.3071   0.1079   0.7421     O
C       0.3076    0.347   0.4181     C
H       0.3077   0.0214   0.0567     H
H       0.3164   0.0785   0.3342     H
C       0.3224  0.87134  0.21654     C
O       0.3398   0.4587   0.7415     O
O       0.3453   0.7753   0.2243     O
C       0.3488   0.5791   0.5408     C
O       0.3621   0.5654   0.1477     O
C       0.3651   0.3231    0.494     C
C       0.3707   0.6914   0.8952     C
C       0.3744   0.2207    0.121     C
H       0.3859   0.4286   0.3121     H
N        0.391  0.30188  0.17357     N
H       0.3935   0.5831   0.8119     H
C       0.4056   0.6615   0.4019     C
O        0.406    0.171   0.9034     O
C       0.4067   0.5519   0.6152     C
N       0.4119   0.9718   0.3924     N
C       0.4179   0.0671   0.3568     C
Sm     0.42113  0.29957 0.791272    Sm
C       0.4236   0.4109   0.3636     C
C       0.4358   0.8497   0.6488     C
H        0.436   0.2063   0.9476     H
H       0.4372    0.783    0.675     H
C       0.4445   0.0438   0.5768     C
N       0.4448  0.64281  0.83812     N
H       0.4468   0.1119   0.5519     H
C       0.4645   0.6418   0.4857     C
H       0.4727   0.1293   0.8943     H
N       0.4845  0.77874  0.92345     N
O       0.4854   0.3162    0.652     O
O       0.5146   0.6838    0.348     O
N       0.5155  0.22126  0.07655     N
H       0.5273   0.8707   0.1057     H
C       0.5355   0.3582   0.5143     C
H       0.5532   0.8881   0.4481     H
N       0.5552  0.35719  0.16188     N
C       0.5555   0.9562   0.4232     C
H       0.5628    0.217    0.325     H
H        0.564   0.7937   0.0524     H
C       0.5642   0.1503   0.3512     C
C       0.5764   0.5891   0.6364     C
Sm     0.57887  0.70043 0.208728    Sm
C       0.5821   0.9329   0.6432     C
N       0.5881   0.0282   0.6076     N
C       0.5933   0.4481   0.3848     C
O        0.594    0.829   0.0966     O
C       0.5944   0.3385   0.5981     C
H       0.6065   0.4169   0.1881     H
N        0.609  0.69812  0.82643     N
H       0.6141   0.5714   0.6879     H
C       0.6256   0.7793    0.879     C
C       0.6293   0.3086   0.1048     C
C       0.6349   0.6769    0.506     C
O       0.6379   0.4346   0.8523     O
C       0.6512   0.4209   0.4592     C
O       0.6547   0.2247   0.7757     O
O       0.6602   0.5413   0.2585     O
C       0.6776  0.12866  0.78346     C
H       0.6836   0.9215   0.6658     H
H       0.6923   0.9786   0.9433     H
C       0.6924    0.653   0.5819     C
O       0.6929   0.8921   0.2579     O
C       0.7083   0.0356   0.4205     C
H       0.7132   0.7176   0.4679     H
C        0.715   0.1351   0.3845     C
C       0.7152   0.5229    0.328     C
H       0.7319   0.5554   0.9726     H
O       0.7485   0.6545   0.1066     O
O       0.7515   0.3455   0.6066     O
H       0.7681   0.4446   0.4726     H
C       0.7848   0.4771    0.828     C
C        0.785   0.8649   0.8845     C
H       0.7868   0.2824   0.9679     H
C       0.7917   0.9644   0.9205     C
O       0.8071   0.1079   0.7579     O
C       0.8076    0.347   0.0819     C
H       0.8077   0.0214   0.4433     H
H       0.8164   0.0785   0.1658     H
C       0.8224  0.87134  0.28346     C
O       0.8398   0.4587   0.7585     O
O       0.8453   0.7753   0.2757     O
C       0.8488   0.5791   0.9592     C
O       0.8621   0.5654   0.3523     O
C       0.8651   0.3231    0.006     C
C       0.8707   0.6914   0.6048     C
C       0.8744   0.2207    0.379     C
H       0.8859   0.4286   0.1879     H
N        0.891  0.30188  0.32643     N
H       0.8935   0.5831   0.6881     H
C       0.9056   0.6615   0.0981     C
O        0.906    0.171   0.5966     O
C       0.9067   0.5519   0.8848     C
N       0.9119   0.9718   0.1076     N
C       0.9179   0.0671   0.1432     C
Sm     0.92113  0.29957 0.708728    Sm
C       0.9236   0.4109   0.1364     C
C       0.9358   0.8497   0.8512     C
H        0.936   0.2063   0.5524     H
H       0.9372    0.783    0.825     H
C       0.9445   0.0438   0.9232     C
N       0.9448  0.64281  0.66188     N
H       0.9468   0.1119   0.9481     H
C       0.9645   0.6418   0.0143     C
H       0.9727   0.1293   0.6057     H
N       0.9845  0.77874  0.57655     N
O       0.9854   0.3162    0.848     O
