data_I
_chemical_name_common  '/Users/gianmarcoterrones/Research/MOFs/MOF_structures/water_stability_work_extra_structs/cleaned_from_CCDC/MAKFAI'
_cell_length_a  8.13630
_cell_length_b 12.82060
_cell_length_c 16.52700
_cell_angle_alpha 90.00000
_cell_angle_beta  90.00000
_cell_angle_gamma 104.87800
_space_group_name_H-M_alt      'P 1'


loop_
_space_group_symop_operation_xyz
  'x, y, z' 

loop_
_atom_site_label
_atom_site_fract_x
_atom_site_fract_y
_atom_site_fract_z
_atom_site_type_symbol
O       0.0149   0.1816   0.3482     O
N       0.0174  0.72244  0.07709     N
C       0.0372   0.8607    0.515     C
H       0.0527   0.3898   0.4447     H
H        0.054   0.2898   0.0526     H
C       0.0553   0.4578   0.4212     C
N       0.0568   0.8561  0.16121     N
H       0.0645   0.7173    0.326     H
C       0.0655   0.6509   0.3512     C
C       0.0747   0.0889   0.6362     C
Tb     0.08102   0.1969 0.209825    Tb
C       0.0837   0.4332   0.6433     C
N       0.0878    0.528   0.6079     N
C       0.0955  0.84126  0.59821     C
O       0.0967  0.32384  0.09815     O
C       0.0975   0.9486   0.3852     C
N        0.107  0.19827  0.82681     N
H       0.1085   0.9151   0.1874     H
H       0.1127    0.071   0.6875     H
C       0.1239   0.2794   0.8784     C
C       0.1301   0.8091   0.1047     C
O       0.1341  0.93578  0.85201     O
C       0.1347   0.1756   0.5062     C
O         0.15   0.7281   0.7756     O
C       0.1523   0.9223   0.4597     C
O       0.1629   0.0408   0.2591     O
C       0.1728   0.6342   0.7846     C
H       0.1858   0.4226   0.6657     H
H       0.1877   0.4772   0.9425     H
C       0.1904   0.1527   0.5818     C
O        0.197  0.38565  0.25976     O
H        0.204   0.3602   0.0877     H
C       0.2127   0.5366   0.4197     C
H       0.2138   0.2162   0.4685     H
C       0.2161   0.6344    0.384     C
C       0.2181  0.02239  0.32772     C
H       0.2308   0.0538   0.9735     H
O       0.2467  0.14974  0.10848     O
O       0.2533  0.85026  0.60848     O
H       0.2692   0.9462   0.4735     H
C       0.2819  0.97761  0.82772     C
C       0.2839   0.3656    0.884     C
H       0.2862   0.7838   0.9685     H
C       0.2873   0.4634   0.9197     C
H        0.296   0.6398   0.5877     H
O        0.303  0.61435  0.75976     O
C       0.3096   0.8473   0.0818     C
H       0.3123   0.5228   0.4425     H
H       0.3142   0.5774   0.1657     H
C       0.3272   0.3658   0.2846     C
O       0.3371   0.9592   0.7591     O
C       0.3477   0.0777   0.9597     C
O         0.35   0.2719   0.2756     O
C       0.3653   0.8244   0.0062     C
O       0.3659  0.06422  0.35201     O
C       0.3699   0.1909   0.6047     C
C       0.3761   0.7206   0.3784     C
H       0.3873    0.929   0.1875     H
H       0.3915   0.0849   0.6874     H
N        0.393  0.80173  0.32681     N
C       0.4025   0.0514   0.8852     C
O       0.4033  0.67616  0.59815     O
C       0.4045  0.15874  0.09821     C
N       0.4122    0.472   0.1079     N
C       0.4163   0.5668   0.1433     C
Tb     0.41898   0.8031 0.709825    Tb
C       0.4253   0.9111   0.1362     C
C       0.4345   0.3491   0.8512     C
H       0.4355   0.2827    0.826     H
N       0.4432   0.1439  0.66121     N
C       0.4447   0.5422   0.9212     C
H        0.446   0.7102   0.5526     H
H       0.4473   0.6102   0.9447     H
C       0.4628   0.1393    0.015     C
N       0.4826  0.27756  0.57709     N
O       0.4851   0.8184   0.8482     O
O       0.5149   0.1816   0.1518     O
N       0.5174  0.72244  0.42291     N
C       0.5372   0.8607    0.985     C
H       0.5527   0.3898   0.0553     H
H        0.554   0.2898   0.4474     H
C       0.5553   0.4578   0.0788     C
N       0.5568   0.8561  0.33879     N
H       0.5645   0.7173    0.174     H
C       0.5655   0.6509   0.1488     C
C       0.5747   0.0889   0.8638     C
Tb     0.58102   0.1969 0.290175    Tb
C       0.5837   0.4332   0.8567     C
N       0.5878    0.528   0.8921     N
C       0.5955  0.84126  0.90179     C
O       0.5967  0.32384  0.40185     O
C       0.5975   0.9486   0.1148     C
N        0.607  0.19827  0.67319     N
H       0.6085   0.9151   0.3126     H
H       0.6127    0.071   0.8125     H
C       0.6239   0.2794   0.6216     C
C       0.6301   0.8091   0.3953     C
O       0.6341  0.93578  0.64799     O
C       0.6347   0.1756   0.9938     C
O         0.65   0.7281   0.7244     O
C       0.6523   0.9223   0.0403     C
O       0.6629   0.0408   0.2409     O
C       0.6728   0.6342   0.7154     C
H       0.6858   0.4226   0.8343     H
H       0.6877   0.4772   0.5575     H
C       0.6904   0.1527   0.9182     C
O        0.697  0.38565  0.24024     O
H        0.704   0.3602   0.4123     H
C       0.7127   0.5366   0.0803     C
H       0.7138   0.2162   0.0315     H
C       0.7161   0.6344    0.116     C
C       0.7181  0.02239  0.17228     C
H       0.7308   0.0538   0.5265     H
O       0.7467  0.14974  0.39152     O
O       0.7533  0.85026  0.89152     O
H       0.7692   0.9462   0.0265     H
C       0.7819  0.97761  0.67228     C
C       0.7839   0.3656    0.616     C
H       0.7862   0.7838   0.5315     H
C       0.7873   0.4634   0.5803     C
H        0.796   0.6398   0.9123     H
O        0.803  0.61435  0.74024     O
C       0.8096   0.8473   0.4182     C
H       0.8123   0.5228   0.0575     H
H       0.8142   0.5774   0.3343     H
C       0.8272   0.3658   0.2154     C
O       0.8371   0.9592   0.7409     O
C       0.8477   0.0777   0.5403     C
O         0.85   0.2719   0.2244     O
C       0.8653   0.8244   0.4938     C
O       0.8659  0.06422  0.14799     O
C       0.8699   0.1909   0.8953     C
C       0.8761   0.7206   0.1216     C
H       0.8873    0.929   0.3125     H
H       0.8915   0.0849   0.8126     H
N        0.893  0.80173  0.17319     N
C       0.9025   0.0514   0.6148     C
O       0.9033  0.67616  0.90185     O
C       0.9045  0.15874  0.40179     C
N       0.9122    0.472   0.3921     N
C       0.9163   0.5668   0.3567     C
Tb     0.91898   0.8031 0.790175    Tb
C       0.9253   0.9111   0.3638     C
C       0.9345   0.3491   0.6488     C
H       0.9355   0.2827    0.674     H
N       0.9432   0.1439  0.83879     N
C       0.9447   0.5422   0.5788     C
H        0.946   0.7102   0.9474     H
H       0.9473   0.6102   0.5553     H
C       0.9628   0.1393    0.485     C
N       0.9826  0.27756  0.92291     N
O       0.9851   0.8184   0.6518     O
