data_I
_chemical_name_common  '/Users/gianmarcoterrones/Research/MOFs/MOF_structures/water_stability_work_extra_structs/cleaned_from_CCDC/MAKGIR'
_cell_length_a 10.18604
_cell_length_b 10.18604
_cell_length_c 21.30410
_cell_angle_alpha 98.84648
_cell_angle_beta  98.84648
_cell_angle_gamma 110.89810
_space_group_name_H-M_alt      'P 1'


loop_
_space_group_symop_operation_xyz
  'x, y, z' 

loop_
_atom_site_label
_atom_site_fract_x
_atom_site_fract_y
_atom_site_fract_z
_atom_site_type_symbol
C      0.00279  0.66559  0.37978     C
C       0.0054   0.2818   0.2172     C
N         0.01   0.9574   0.2378     N
C       0.0119   0.5839   0.1434     C
C      0.01393  0.63213  0.26266     C
C      0.01483  0.30503  0.28406     C
N      0.02813  0.46433  0.63246     N
N       0.0304   0.4778   0.7378     N
O      0.04232  0.75672  0.43484     O
N       0.0426     0.99   0.7622     N
N      0.04859  0.93979  0.85878     N
N      0.06021  0.95141  0.14122     N
H        0.064   0.4832   0.5922     H
C       0.0785   0.5481   0.6914     C
H       0.0839   0.3349   0.2002     H
C      0.08433  0.70093  0.32746     C
C      0.08656  0.66056  0.21292     C
O      0.09257  0.59017  0.10314     O
Eu    0.099191 0.393211 0.028982    Eu
C      0.11106  0.01026  0.20372     C
C       0.1371   0.1067   0.8086     C
N      0.14567  0.08187  0.86754     N
O      0.14639  0.54899  0.95238     O
C       0.1507   0.4089    0.333     C
O      0.15339  0.05599  0.45238     O
H       0.1593   0.7279   0.6122     H
O      0.15977  0.42937  0.38974     O
C      0.17512  0.69992  0.70764     C
H       0.1788   0.1648   0.6952     H
C      0.20478  0.77518  0.65656     C
C      0.21748  0.24228  0.79236     C
H       0.2218    0.141   0.9078     H
C      0.22482  0.79522  0.34344     C
C      0.22656  0.24996  0.72892     C
C      0.22896  0.75236  0.22892     C
H       0.2336   0.7196   0.8048     H
O      0.23881  0.25541  0.99622     O
O      0.24328  0.95768  0.56516     O
C      0.24764  0.77104  0.77108     C
O      0.25099  0.47219  0.30358     O
C      0.25427  0.11667  0.23374     C
H       0.2549   0.1167   0.3296     H
O      0.26297  0.26057  0.60314     O
H       0.2721   0.8407   0.3878     H
O      0.27224  0.43044  0.12988     O
H       0.2804   0.7664   0.1952     H
H       0.2971   0.3657   0.8878     H
C      0.29822  0.36862  0.84344     C
C      0.29907  0.91567  0.67254     C
H       0.2993   0.1527   0.1454     H
C      0.30008  0.82488  0.29236     C
C      0.30236  0.37636  0.71292     C
C       0.3095   0.3815   0.6434     C
C      0.31223  0.15643  0.30066     C
C      0.33441  0.99721  0.62022     C
C      0.33923  0.17683  0.19106     C
C      0.33944  0.91344  0.78708     C
O      0.34589  0.39109  0.50158     O
O      0.35748  0.57188  0.06516     O
O      0.35852  0.49912  0.62704     O
C      0.36787  0.98607  0.73734     C
C      0.37301  0.53581  0.12022     C
C      0.37653  0.49313  0.82746     C
C      0.38053  0.49873  0.76266     C
Eu    0.385771 0.179791 0.528982    Eu
O      0.40983  0.90743  0.89686     O
H       0.4136   0.5632   0.2474     H
C       0.4161   0.9881   0.8566     C
O      0.42812  0.64252  0.93484     O
H       0.4342   0.0838   0.7474     H
H       0.4368   0.5864   0.7526     H
O      0.44944  0.10764  0.62988     O
O      0.45101  0.85361  0.04762     O
O      0.45141  0.21241  0.43042     O
C       0.4519   0.9215   0.3086     C
C       0.4526    0.253    0.325     C
C      0.46419  0.62699  0.87978     C
C      0.48077  0.27097  0.21594     C
O      0.48148  0.12208  0.87296     O
O      0.49081  0.00741  0.49622     O
O      0.50088  0.64148  0.37296     O
C      0.50127  0.61947  0.23734     C
C      0.50687  0.62347  0.17254     C
H       0.5168    0.936   0.4078     H
C       0.5197   0.2931    0.397     C
O      0.52003  0.28963  0.11026     O
N       0.5222   0.9696   0.2622     N
O      0.52781  0.74901  0.69642     O
N      0.53567  0.97187  0.36754     N
C       0.5382   0.3146   0.2828     C
C       0.5677   0.3259    0.167     C
O      0.56956  0.72776  0.87012     O
O      0.57063  0.84023  0.61026     O
O      0.58139  0.30259  0.80358     O
C       0.5911   0.8493    0.667     C
O      0.59431  0.13951  0.99842     O
O      0.59801  0.36781  0.58162     O
Eu    0.606789 0.900809 0.971018    Eu
O      0.60891  0.65411  0.49842     O
H       0.6153   0.3663   0.7002     H
C       0.6185   0.6905   0.3566     C
C      0.62364  0.69764  0.28708     C
C      0.63138  0.70178  0.15656     C
O      0.63219  0.40199  0.41838     O
H       0.6337   0.3847   0.2998     H
H       0.6343   0.7029   0.1122     H
C      0.65734  0.05654  0.29628     C
H       0.6651   0.9161   0.7998     H
N      0.66899  0.06019  0.35878     N
C       0.6741   0.4323    0.833     C
H       0.6753   0.0371   0.1704     H
C       0.6854   0.4618   0.7172     C
C      0.69497  0.98517  0.71594     C
O      0.69741  0.41861  0.19642     O
C       0.7069   0.4803    0.603     C
O      0.71037  0.47997  0.88974     O
C       0.7182   0.9946   0.7828     C
C      0.72903  0.51923  0.78406     C
O      0.73943  0.73703  0.39686     O
H       0.7427   0.0961   0.6454     H
O      0.74459  0.76119  0.00378     O
C        0.747   0.5474    0.675     C
C      0.75004  0.77344  0.27108     C
C      0.75772  0.78252  0.20764     C
C      0.76157  0.10577  0.19934     C
C      0.76423  0.10183  0.69106     C
O      0.76639  0.03619  0.91838     O
C      0.77053  0.13293  0.26626     C
O      0.77099  0.03199  0.06958     O
O      0.78759  0.54859  0.56958     O
Eu    0.820209 0.614229 0.471018    Eu
C        0.822   0.1224    0.825     C
C      0.82317  0.66077  0.80894     C
H       0.8352   0.8212   0.3048     H
C      0.84357  0.68777  0.69934     C
H       0.8473   0.7007   0.8546     H
C       0.8539   0.1273    0.897     C
H        0.859   0.7782   0.0922     H
O      0.86049  0.40569  0.00158     O
C      0.86707  0.22947  0.73374     C
C       0.8727   0.1461    0.103     C
C       0.8776    0.178    0.175     C
O      0.87792  0.51852  0.12704     O
H       0.8833   0.7451   0.6704     H
C      0.88333  0.74573  0.76626     C
O      0.89236  0.55056  0.37012     O
C       0.8933   0.8629   0.1914     C
C      0.89423  0.23843  0.80066     C
C      0.89817  0.23577  0.30894     C
H       0.9039   0.2573   0.3546     H
H       0.9162   0.5658   0.2526     H
N      0.91813  0.85433  0.13246     N
N      0.93981  0.33101  0.64122     N
C      0.94346  0.34266  0.70372     C
O      0.94401  0.84661  0.54762     O
H       0.9629   0.3247   0.8296     H
O      0.96381  0.23361  0.08162     O
O      0.96801  0.22901  0.93042     O
C      0.98974  0.88894  0.79628     C
O      0.99259  0.50919  0.50378     O
