data_I
_chemical_name_common  '/Users/gianmarcoterrones/Research/MOFs/MOF_structures/water_stability_work_extra_structs/cleaned_from_CCDC/MEKDEM'
_cell_length_a  9.23290
_cell_length_b 12.73005
_cell_length_c 17.11600
_cell_angle_alpha 110.65580
_cell_angle_beta  90.00000
_cell_angle_gamma 111.26253
_space_group_name_H-M_alt      'P 1'


loop_
_space_group_symop_operation_xyz
  'x, y, z' 

loop_
_atom_site_label
_atom_site_fract_x
_atom_site_fract_y
_atom_site_fract_z
_atom_site_type_symbol
S      0.00247  0.64446  0.65856     S
H       0.0032   0.0504   0.8586     H
H       0.0148    0.232   0.6913     H
O      0.01487  0.92046  0.64894     O
O      0.01625   0.4105  0.11113     O
Zn     0.03055  0.24604 0.418494    Zn
C      0.03235   0.6427  0.21505     C
H        0.033   0.4242   0.7741     H
C      0.03452  0.31264  0.05075     C
C      0.04523  0.75946  0.26496     C
H       0.0472   0.0504   0.3586     H
S      0.05362  0.82862  0.95335     S
O      0.09441  0.07954  0.85106     O
C       0.1104   0.5086  0.09443     C
C      0.11838  0.62816  0.14916     C
N      0.13101   0.3529  0.00242     N
N      0.13668  0.85856  0.25447     N
H       0.1443   0.6104   0.4733     H
N      0.14523   0.7738  0.50727     N
C      0.15668  0.74936  0.73405     C
Zn     0.16106      0.0     0.75    Zn
N      0.18018  0.47938  0.03068     N
H       0.1827    0.943   0.5258     H
C      0.18726  0.68272  0.46428     C
C      0.21036  0.87832   0.4954     C
C      0.21398  0.73136  0.13656     C
Zn     0.21549  0.24604 0.918494    Zn
H       0.2172    0.232   0.1913     H
C      0.21857  0.84354   0.1912     C
N      0.22189   0.3529  0.50242     N
S        0.225  0.17138  0.54665     S
N      0.22603   0.8679  0.76004     N
O      0.22855  0.70728  0.77871     O
H       0.2397    0.057   0.9742     H
H       0.2737   0.7258   0.0926     H
N      0.27812  0.14144  0.24553     N
C      0.27812  0.31264  0.55075     C
H       0.2836   0.9126   0.1825     H
C      0.28577  0.24054  0.23504     C
C      0.29105   0.6903  0.40722     C
N       0.2992  0.47938  0.53068     N
H       0.3074   0.6242   0.8778     H
C      0.31658  0.89416  0.44022     C
H       0.3168   0.6242   0.3778     H
C      0.33204  0.12168   0.0046     C
C      0.34383  0.81006  0.83374     C
N      0.34915  0.90734   0.8248     N
C      0.35683  0.79786  0.39425     C
S      0.35801  0.35554  0.84144     S
N      0.35813   0.1321  0.73996     N
H       0.3606   0.9684   0.4339     H
H        0.371   0.0874   0.3175     H
N      0.37143   0.2262  0.99273     N
C      0.37503  0.15646   0.3088     C
C      0.38965   0.3573  0.28495     C
H       0.3912   0.4242   0.2741     H
H       0.3922   0.0316   0.0661     H
O      0.39425   0.4105  0.61113     O
C       0.3982   0.5086  0.59443     C
C      0.39925   0.6903  0.90722     C
C      0.40732  0.25064  0.76595     C
C      0.42242  0.10584  0.05978     C
C      0.44103  0.79786  0.89425     C
N      0.44181  0.09266   0.6752     N
H       0.4521   0.7258   0.5926     H
H       0.4661   0.6104   0.9733     H
C      0.46623  0.81006  0.33374     C
O      0.47873  0.70728  0.27871     O
C      0.48262  0.26864  0.36344     C
C      0.49022  0.37184  0.35084     C
C      0.49546  0.68272  0.96428     C
C      0.50454  0.31728  0.03572     C
C      0.50978  0.62816  0.64916     C
C      0.51738  0.73136  0.63656     C
O      0.52127  0.29272  0.72129     O
C      0.53377  0.18994  0.66626     C
H       0.5339   0.3896   0.0267     H
H       0.5479   0.2742   0.4074     H
N      0.55819  0.90734   0.3248     N
C      0.55897  0.20214  0.10575     C
C      0.57758  0.89416  0.94022     C
C      0.59268  0.74936  0.23405     C
C      0.60075   0.3097  0.09278     C
C       0.6018   0.4914  0.40557     C
O      0.60575   0.5895  0.38887     O
H       0.6078   0.9684   0.9339     H
H       0.6088   0.5758   0.7259     H
C      0.61035   0.6427  0.71505     C
C      0.62497  0.84354   0.6912     C
N      0.62857   0.7738  0.00727     N
H        0.629   0.9126   0.6825     H
H       0.6394   0.0316   0.5661     H
N      0.64187   0.8679  0.26004     N
S      0.64199  0.64446  0.15856     S
C      0.64317  0.20214  0.60575     C
N      0.65085  0.09266   0.1752     N
C      0.65617  0.18994  0.16626     C
C      0.66796  0.87832   0.9954     C
H       0.6832   0.3758   0.6222     H
C      0.68342  0.10584  0.55978     C
H       0.6926   0.3758   0.1222     H
N       0.7008  0.52062  0.46932     N
C      0.70895   0.3097  0.59278     C
C      0.71423  0.75946  0.76496     C
H       0.7164   0.0874   0.8175     H
C      0.72188  0.68736  0.44925     C
N      0.72188  0.85856  0.75447     N
H       0.7263   0.2742   0.9074     H
H       0.7603    0.943   0.0258     H
O      0.77145  0.29272  0.22129     O
N      0.77397   0.1321  0.23996     N
S        0.775  0.82862  0.45335     S
N      0.77811   0.6471  0.49758     N
C      0.78143  0.15646   0.8088     C
H       0.7828    0.768   0.8087     H
Zn     0.78451  0.75396 0.081506    Zn
C      0.78602  0.26864  0.86344     C
C      0.78964  0.12168   0.5046     C
C      0.81274  0.31728  0.53572     C
H       0.8173    0.057   0.4742     H
N      0.81982  0.52062  0.96932     N
Zn     0.83894      0.0     0.25    Zn
C      0.84332  0.25064  0.26595     C
N      0.85477   0.2262  0.49273     N
H       0.8557   0.3896   0.5267     H
N      0.86332  0.14144  0.74553     N
N      0.86899   0.6471  0.99758     N
C      0.88162  0.37184  0.85084     C
C       0.8896   0.4914  0.90557     C
O      0.90559  0.92046  0.14894     O
S      0.94638  0.17138  0.04665     S
H       0.9528   0.9496   0.6414     H
C      0.95477  0.24054  0.73504     C
C      0.96548  0.68736  0.94925     C
H        0.967   0.5758   0.2259     H
C      0.96765   0.3573  0.78495     C
Zn     0.96945  0.75396 0.581506    Zn
O      0.98375   0.5895  0.88887     O
O      0.98513  0.07954  0.35106     O
H       0.9852    0.768   0.3087     H
H       0.9968   0.9496   0.1414     H
S      0.99753  0.35554  0.34144     S
