data_I
_chemical_name_common  '/Users/gianmarcoterrones/Downloads/mil-96'
_cell_length_a 14.20742
_cell_length_b 14.20742
_cell_length_c 31.23029
_cell_angle_alpha 90.00000
_cell_angle_beta  90.00000
_cell_angle_gamma 120.00000
_space_group_name_H-M_alt      'P 1'


loop_
_space_group_symop_operation_xyz
  'x, y, z' 

loop_
_atom_site_label
_atom_site_fract_x
_atom_site_fract_y
_atom_site_fract_z
_atom_site_type_symbol
O          0.0      0.0     0.25     O
O          0.0      0.0     0.75     O
Al         0.0      0.5      0.0    Al
Al         0.0      0.5      0.5    Al
H       0.0033   0.2785   0.1452     H
H       0.0033   0.2785   0.3548     H
H       0.0033   0.7248   0.1452     H
H       0.0033   0.7248   0.3548     H
O     0.0087218  0.17323 0.706317     O
O     0.0087218  0.17323 0.793697     O
O     0.0087218 0.8354917 0.706317     O
O     0.0087218 0.8354917 0.793697     O
C      0.01894  0.38676 0.5737511     C
C      0.01894  0.38676 0.9262511     C
C      0.01894  0.63224 0.5737511     C
C      0.01894  0.63224 0.9262511     C
O      0.04892  0.43203 0.537651     O
O      0.04892  0.43203 0.962351     O
O      0.04892  0.61692 0.537651     O
O      0.04892  0.61692 0.962351     O
C      0.06284  0.29436 0.6322211     C
C      0.06284  0.29436 0.8677811     C
C      0.06284  0.76854 0.6322211     C
C      0.06284  0.76854 0.8677811     C
O     0.0629217 0.4366617 0.093957     O
O     0.0629217 0.4366617 0.406057     O
O     0.0629217  0.62633 0.093957     O
O     0.0629217  0.62633 0.406057     O
Al    0.074517 0.1490313     0.25    Al
Al    0.0745215 0.925497     0.25    Al
C      0.09084  0.35196 0.5943412     C
C      0.09084  0.35196 0.9056612     C
C      0.09084  0.73894 0.5943412     C
C      0.09084  0.73894 0.9056612     C
C     0.0995717  0.19913 0.6909714     C
C     0.0995717  0.19913 0.8090314     C
C     0.0995717 0.9004317 0.6909714     C
C     0.0995717 0.9004317 0.8090314     C
C      0.13242  0.26483 0.6509716     C
C      0.13242  0.26483 0.8490316     C
C      0.13242  0.86762 0.6509716     C
C      0.13242  0.86762 0.8490316     C
O      0.13422 0.5670811 0.025758     O
O      0.13422 0.5670811 0.474258     O
Al    0.1490313 0.0745215     0.75    Al
O      0.15355 0.8464417     0.25     O
O     0.1535617  0.30714     0.25     O
O     0.1645117  0.17323 0.706317     O
O     0.1645117  0.17323 0.793697     O
O     0.1645117 0.9912818 0.706317     O
O     0.1645117 0.9912818 0.793697     O
Al    0.169269 0.584635 0.083334    Al
Al    0.169269 0.584635 0.416674    Al
O      0.17323 0.0087218 0.206317     O
O      0.17323 0.0087218 0.293697     O
O      0.17323 0.1645117 0.206317     O
O      0.17323 0.1645117 0.293697     O
C      0.19002  0.38003 0.5752818     C
C      0.19002  0.38003 0.9247218     C
C      0.19002  0.81002 0.5752818     C
C      0.19002  0.81002 0.9247218     C
O      0.19734 0.5986416 0.1431411     O
O      0.19734 0.5986416 0.3568611     O
C      0.19913 0.0995717 0.1909714     C
C      0.19913 0.0995717 0.3090314     C
H        0.209    0.418   0.5495     H
H        0.209    0.418   0.9505     H
H        0.209    0.791   0.5495     H
H        0.209    0.791   0.9505     H
C      0.23154  0.29436 0.6322211     C
C      0.23154  0.29436 0.8677811     C
C      0.23154  0.93724 0.6322211     C
C      0.23154  0.93724 0.8677811     C
C      0.26114  0.35196 0.5943412     C
C      0.26114  0.35196 0.9056612     C
C      0.26114  0.90924 0.5943412     C
C      0.26114  0.90924 0.9056612     C
C      0.26483  0.13242 0.1509716     C
C      0.26483  0.13242 0.3490316     C
O     0.2716911 0.5433816 0.075351     O
O     0.2716911 0.5433816 0.424651     O
O     0.2716911 0.7283111 0.075351     O
O     0.2716911 0.7283111 0.424651     O
H       0.2752   0.2785   0.1452     H
H       0.2752   0.2785   0.3548     H
H       0.2752   0.9967   0.1452     H
H       0.2752   0.9967   0.3548     H
H       0.2785   0.0033   0.6452     H
H       0.2785   0.0033   0.8548     H
H       0.2785   0.2752   0.6452     H
H       0.2785   0.2752   0.8548     H
C      0.29436  0.06284 0.1322211     C
C      0.29436  0.06284 0.3677811     C
C      0.29436  0.23154 0.1322211     C
C      0.29436  0.23154 0.3677811     C
O      0.30714  0.15355     0.75     O
C      0.35196  0.09084 0.0943412     C
C      0.35196  0.09084 0.4056612     C
C      0.35196  0.26114 0.0943412     C
C      0.35196  0.26114 0.4056612     C
C      0.36784  0.38676 0.5737511     C
C      0.36784  0.38676 0.9262511     C
C      0.36784  0.98114 0.5737511     C
C      0.36784  0.98114 0.9262511     C
O      0.37373 0.4366617 0.093957     O
O      0.37373 0.4366617 0.406057     O
O      0.37373 0.9370817 0.093957     O
O      0.37373 0.9370817 0.406057     O
C      0.38003  0.19002 0.0752818     C
C      0.38003  0.19002 0.4247218     C
O      0.38312  0.43203 0.537651     O
O      0.38312  0.43203 0.962351     O
O      0.38312  0.95112 0.537651     O
O      0.38312  0.95112 0.962351     O
C      0.38676  0.01894 0.0737511     C
C      0.38676  0.01894 0.4262511     C
C      0.38676  0.36784 0.0737511     C
C      0.38676  0.36784 0.4262511     C
O      0.40135  0.80274 0.1431411     O
O      0.40135  0.80274 0.3568611     O
O     0.4013616  0.59875 0.1431411     O
O     0.4013616  0.59875 0.3568611     O
Al    0.4153711 0.830749 0.083334    Al
Al    0.4153711 0.830749 0.416674    Al
Al    0.415375 0.5846311 0.083334    Al
Al    0.415375 0.5846311 0.416674    Al
H        0.418    0.209   0.0495     H
H        0.418    0.209   0.4505     H
O      0.43203  0.04892 0.037651     O
O      0.43203  0.04892 0.462351     O
O      0.43203  0.38312 0.037651     O
O      0.43203  0.38312 0.462351     O
O     0.4329211  0.56713 0.025758     O
O     0.4329211  0.56713 0.474258     O
O      0.43293  0.86582 0.025758     O
O      0.43293  0.86582 0.474258     O
O     0.4366617 0.0629217 0.593957     O
O     0.4366617 0.0629217 0.906057     O
O     0.4366617  0.37373 0.593957     O
O     0.4366617  0.37373 0.906057     O
O     0.4566216 0.7283111 0.075351     O
O     0.4566216 0.7283111 0.424651     O
Al         0.5      0.0      0.0    Al
Al         0.5      0.0      0.5    Al
Al         0.5      0.5      0.0    Al
Al         0.5      0.5      0.5    Al
O     0.5433816 0.2716911 0.575351     O
O     0.5433816 0.2716911 0.924651     O
O     0.5633417  0.62633 0.093957     O
O     0.5633417  0.62633 0.406057     O
O     0.5633417 0.9370817 0.093957     O
O     0.5633417 0.9370817 0.406057     O
O     0.5670811  0.43293 0.525758     O
O     0.5670811  0.43293 0.974258     O
O      0.56713  0.13422 0.525758     O
O      0.56713  0.13422 0.974258     O
O      0.56803  0.61692 0.537651     O
O      0.56803  0.61692 0.962351     O
O      0.56803  0.95112 0.537651     O
O      0.56803  0.95112 0.962351     O
H        0.582    0.791   0.5495     H
H        0.582    0.791   0.9505     H
Al    0.5846311 0.169269 0.583334    Al
Al    0.5846311 0.169269 0.916674    Al
Al    0.584635 0.4153711 0.583334    Al
Al    0.584635 0.4153711 0.916674    Al
O     0.5986416  0.40135 0.6431411     O
O     0.5986416  0.40135 0.8568611     O
O      0.59875  0.19734 0.6431411     O
O      0.59875  0.19734 0.8568611     O
C      0.61336  0.63224 0.5737511     C
C      0.61336  0.63224 0.9262511     C
C      0.61336  0.98114 0.5737511     C
C      0.61336  0.98114 0.9262511     C
O      0.61692  0.04892 0.037651     O
O      0.61692  0.04892 0.462351     O
O      0.61692  0.56803 0.037651     O
O      0.61692  0.56803 0.462351     O
C      0.62003  0.81002 0.5752818     C
C      0.62003  0.81002 0.9247218     C
O      0.62633 0.0629217 0.593957     O
O      0.62633 0.0629217 0.906057     O
O      0.62633 0.5633417 0.593957     O
O      0.62633 0.5633417 0.906057     O
C      0.63224  0.01894 0.0737511     C
C      0.63224  0.01894 0.4262511     C
C      0.63224  0.61336 0.0737511     C
C      0.63224  0.61336 0.4262511     C
C      0.64816  0.73894 0.5943412     C
C      0.64816  0.73894 0.9056612     C
C      0.64816  0.90924 0.5943412     C
C      0.64816  0.90924 0.9056612     C
O      0.69294  0.84655     0.25     O
C      0.70576  0.76854 0.6322211     C
C      0.70576  0.76854 0.8677811     C
C      0.70576  0.93724 0.6322211     C
C      0.70576  0.93724 0.8677811     C
H       0.7215   0.7248   0.1452     H
H       0.7215   0.7248   0.3548     H
H       0.7215   0.9967   0.1452     H
H       0.7215   0.9967   0.3548     H
H       0.7248   0.0033   0.6452     H
H       0.7248   0.0033   0.8548     H
H       0.7248   0.7215   0.6452     H
H       0.7248   0.7215   0.8548     H
O     0.7283111 0.2716911 0.575351     O
O     0.7283111 0.2716911 0.924651     O
O     0.7283111 0.4566216 0.575351     O
O     0.7283111 0.4566216 0.924651     O
C      0.73523  0.86762 0.6509716     C
C      0.73523  0.86762 0.8490316     C
C      0.73894  0.09084 0.0943412     C
C      0.73894  0.09084 0.4056612     C
C      0.73894  0.64816 0.0943412     C
C      0.73894  0.64816 0.4056612     C
C      0.76854  0.06284 0.1322211     C
C      0.76854  0.06284 0.3677811     C
C      0.76854  0.70576 0.1322211     C
C      0.76854  0.70576 0.3677811     C
H        0.791    0.209   0.0495     H
H        0.791    0.209   0.4505     H
H        0.791    0.582   0.0495     H
H        0.791    0.582   0.4505     H
C      0.80093 0.9004317 0.6909714     C
C      0.80093 0.9004317 0.8090314     C
O      0.80274 0.4013616 0.6431411     O
O      0.80274 0.4013616 0.8568611     O
C      0.81002  0.19002 0.0752818     C
C      0.81002  0.19002 0.4247218     C
C      0.81002  0.62003 0.0752818     C
C      0.81002  0.62003 0.4247218     C
O      0.82683 0.8354917 0.706317     O
O      0.82683 0.8354917 0.793697     O
O      0.82683 0.9912818 0.706317     O
O      0.82683 0.9912818 0.793697     O
Al    0.830749 0.415375 0.583334    Al
Al    0.830749 0.415375 0.916674    Al
O     0.8354917 0.0087218 0.206317     O
O     0.8354917 0.0087218 0.293697     O
O     0.8354917  0.82683 0.206317     O
O     0.8354917  0.82683 0.293697     O
O     0.8464417  0.69294     0.75     O
O      0.84655 0.1535617     0.75     O
Al    0.8509713 0.9254815     0.25    Al
O      0.86582 0.4329211 0.525758     O
O      0.86582 0.4329211 0.974258     O
C      0.86762  0.13242 0.1509716     C
C      0.86762  0.13242 0.3490316     C
C      0.86762  0.73523 0.1509716     C
C      0.86762  0.73523 0.3490316     C
C     0.9004317 0.0995717 0.1909714     C
C     0.9004317 0.0995717 0.3090314     C
C     0.9004317  0.80093 0.1909714     C
C     0.9004317  0.80093 0.3090314     C
C      0.90924  0.26114 0.0943412     C
C      0.90924  0.26114 0.4056612     C
C      0.90924  0.64816 0.0943412     C
C      0.90924  0.64816 0.4056612     C
Al    0.9254815 0.074517     0.75    Al
Al    0.925497 0.8509713     0.75    Al
O     0.9370817  0.37373 0.593957     O
O     0.9370817  0.37373 0.906057     O
O     0.9370817 0.5633417 0.593957     O
O     0.9370817 0.5633417 0.906057     O
C      0.93724  0.23154 0.1322211     C
C      0.93724  0.23154 0.3677811     C
C      0.93724  0.70576 0.1322211     C
C      0.93724  0.70576 0.3677811     C
O      0.95112  0.38312 0.037651     O
O      0.95112  0.38312 0.462351     O
O      0.95112  0.56803 0.037651     O
O      0.95112  0.56803 0.462351     O
C      0.98114  0.36784 0.0737511     C
C      0.98114  0.36784 0.4262511     C
C      0.98114  0.61336 0.0737511     C
C      0.98114  0.61336 0.4262511     C
O     0.9912818 0.1645117 0.206317     O
O     0.9912818 0.1645117 0.293697     O
O     0.9912818  0.82683 0.206317     O
O     0.9912818  0.82683 0.293697     O
H       0.9967   0.2752   0.6452     H
H       0.9967   0.2752   0.8548     H
H       0.9967   0.7215   0.6452     H
H       0.9967   0.7215   0.8548     H
