data_I
_chemical_name_common  '/Users/gianmarcoterrones/Downloads/mil-47'
_cell_length_a  6.81790
_cell_length_b 16.14300
_cell_length_c 13.93900
_cell_angle_alpha 90.00000
_cell_angle_beta  90.00000
_cell_angle_gamma 90.00000
_space_group_name_H-M_alt      'P 1'


loop_
_space_group_symop_operation_xyz
  'x, y, z' 

loop_
_atom_site_label
_atom_site_fract_x
_atom_site_fract_y
_atom_site_fract_z
_atom_site_type_symbol
C       0.0089   0.5649    0.065     C
C       0.0089   0.9351    0.065     C
C       0.0219   0.6366   0.1333     C
C       0.0219   0.8634   0.1333     C
O       0.0249     0.75   0.3084     O
O       0.1415   0.1626   0.8335     O
O       0.1415   0.3374   0.8335     O
C       0.1675   0.0323   0.9631     C
C       0.1675   0.4677   0.9631     C
C       0.1775   0.5329   0.0261     C
C       0.1775   0.9671   0.0261     C
O       0.1882   0.6632   0.1555     O
O       0.1882   0.8368   0.1555     O
V       0.2002     0.25  0.73916     V
H       0.2015   0.0554   0.5425     H
H       0.2015   0.4446   0.5425     H
H        0.217   0.5548   0.4389     H
H        0.217   0.9452   0.4389     H
H        0.283   0.0548   0.9389     H
H        0.283   0.4452   0.9389     H
H       0.2985   0.5554   0.0425     H
H       0.2985   0.9446   0.0425     H
V       0.2998     0.75  0.23916     V
O       0.3118   0.1632   0.6555     O
O       0.3118   0.3368   0.6555     O
C       0.3225   0.0329   0.5261     C
C       0.3225   0.4671   0.5261     C
C       0.3325   0.5323   0.4631     C
C       0.3325   0.9677   0.4631     C
O       0.3585   0.6626   0.3335     O
O       0.3585   0.8374   0.3335     O
O       0.4751     0.25   0.8084     O
C       0.4781   0.1366   0.6333     C
C       0.4781   0.3634   0.6333     C
C       0.4911   0.0649    0.565     C
C       0.4911   0.4351    0.565     C
C       0.5089   0.5649    0.435     C
C       0.5089   0.9351    0.435     C
C       0.5219   0.6366   0.3667     C
C       0.5219   0.8634   0.3667     C
O       0.5249     0.75   0.1916     O
O       0.6415   0.1626   0.6665     O
O       0.6415   0.3374   0.6665     O
C       0.6675   0.0323   0.5369     C
C       0.6675   0.4677   0.5369     C
C       0.6775   0.5329   0.4739     C
C       0.6775   0.9671   0.4739     C
O       0.6882   0.6632   0.3445     O
O       0.6882   0.8368   0.3445     O
V       0.7002     0.25  0.76084     V
H       0.7015   0.0554   0.9575     H
H       0.7015   0.4446   0.9575     H
H        0.717   0.5548   0.0611     H
H        0.717   0.9452   0.0611     H
H        0.783   0.0548   0.5611     H
H        0.783   0.4452   0.5611     H
H       0.7985   0.5554   0.4575     H
H       0.7985   0.9446   0.4575     H
V       0.7998     0.75  0.26084     V
O       0.8118   0.1632   0.8445     O
O       0.8118   0.3368   0.8445     O
C       0.8225   0.0329   0.9739     C
C       0.8225   0.4671   0.9739     C
C       0.8325   0.5323   0.0369     C
C       0.8325   0.9677   0.0369     C
O       0.8585   0.6626   0.1665     O
O       0.8585   0.8374   0.1665     O
O       0.9751     0.25   0.6916     O
C       0.9781   0.1366   0.8667     C
C       0.9781   0.3634   0.8667     C
C       0.9911   0.0649    0.935     C
C       0.9911   0.4351    0.935     C
