data_I
_chemical_name_common  '/Users/gianmarcoterrones/Downloads/mil-140'
_cell_length_a 31.89310
_cell_length_b 15.60990
_cell_length_c  7.93480
_cell_angle_alpha 90.00000
_cell_angle_beta  84.83000
_cell_angle_gamma 90.00000
_space_group_name_H-M_alt      'P 1'


loop_
_space_group_symop_operation_xyz
  'x, y, z' 

loop_
_atom_site_label
_atom_site_fract_x
_atom_site_fract_y
_atom_site_fract_z
_atom_site_type_symbol
C       0.0202   0.0237   0.4895     C
C       0.0202   0.4763   0.9895     C
H       0.0213   0.0383   0.2161     H
H       0.0213   0.4617   0.7161     H
H       0.0312    0.022   0.7568     H
H       0.0312    0.478   0.2568     H
C       0.0376   0.0514   0.3291     C
C       0.0376   0.4486   0.8291     C
C        0.043   0.0428   0.6293     C
C        0.043   0.4572   0.1293     C
C       0.0755   0.0958    0.309     C
C       0.0755   0.4042    0.809     C
C       0.0804   0.0887   0.6106     C
C       0.0804   0.4113   0.1106     C
H       0.0887   0.1171   0.1835     H
H       0.0887   0.3829   0.6835     H
C       0.0971   0.1157     0.45     C
C       0.0971   0.3843     0.95     C
H       0.0974   0.1042   0.7208     H
H       0.0974   0.3958   0.2208     H
C       0.1367   0.1668   0.4286     C
C       0.1367   0.3332   0.9286     C
O       0.1489   0.2028   0.5607     O
O       0.1489   0.2972   0.0607     O
O        0.155   0.1724   0.2794     O
O        0.155   0.3276   0.7794     O
H       0.1883    0.697   0.6401     H
H       0.1883    0.803   0.1401     H
H       0.1887   0.6795   0.1434     H
H       0.1887   0.8205   0.6434     H
H       0.1891   0.5393    0.641     H
H       0.1891   0.9607    0.141     H
H       0.1894   0.5219   0.1434     H
H       0.1894   0.9781   0.6434     H
Zr      0.2077   0.2406   0.1378    Zr
Zr      0.2077   0.2594   0.6378    Zr
C       0.2158   0.5749   0.5786     C
C       0.2158   0.6639   0.5775     C
C       0.2158   0.8361   0.0775     C
C       0.2158   0.9251   0.0786     C
C        0.216   0.5575   0.0801     C
C        0.216   0.6465   0.0791     C
C        0.216   0.8535   0.5791     C
C        0.216   0.9425   0.5801     C
O       0.2203   0.1039   0.0912     O
O       0.2203   0.3961   0.5912     O
O       0.2216   0.1215   0.5976     O
O       0.2216   0.3785   0.0976     O
O       0.2245   0.2383    0.878     O
O       0.2245   0.2617    0.378     O
C         0.25   0.0661      0.0     C
C         0.25   0.0835      0.5     C
C         0.25   0.4165      0.0     C
C         0.25   0.4339      0.5     C
C         0.25   0.5118      0.0     C
C         0.25   0.5292      0.5     C
C         0.25   0.6937      0.0     C
C         0.25   0.7112      0.5     C
C         0.25   0.7888      0.0     C
C         0.25   0.8063      0.5     C
C         0.25   0.9708      0.0     C
C         0.25   0.9882      0.5     C
O       0.2755   0.2383    0.122     O
O       0.2755   0.2617    0.622     O
O       0.2784   0.1215   0.4024     O
O       0.2784   0.3785   0.9024     O
O       0.2797   0.1039   0.9088     O
O       0.2797   0.3961   0.4088     O
C        0.284   0.5575   0.9199     C
C        0.284   0.6465   0.9209     C
C        0.284   0.8535   0.4209     C
C        0.284   0.9425   0.4199     C
C       0.2842   0.5749   0.4214     C
C       0.2842   0.6639   0.4225     C
C       0.2842   0.8361   0.9225     C
C       0.2842   0.9251   0.9214     C
Zr      0.2923   0.2406   0.8622    Zr
Zr      0.2923   0.2594   0.3622    Zr
H       0.3106   0.5219   0.8566     H
H       0.3106   0.9781   0.3566     H
H       0.3109   0.5393    0.359     H
H       0.3109   0.9607    0.859     H
H       0.3113   0.6795   0.8566     H
H       0.3113   0.8205   0.3566     H
H       0.3117    0.697   0.3599     H
H       0.3117    0.803   0.8599     H
O        0.345   0.1724   0.7206     O
O        0.345   0.3276   0.2206     O
O       0.3511   0.2028   0.4393     O
O       0.3511   0.2972   0.9393     O
C       0.3633   0.1668   0.5714     C
C       0.3633   0.3332   0.0714     C
H       0.4026   0.1042   0.2792     H
H       0.4026   0.3958   0.7792     H
C       0.4029   0.1157     0.55     C
C       0.4029   0.3843     0.05     C
H       0.4113   0.1171   0.8165     H
H       0.4113   0.3829   0.3165     H
C       0.4196   0.0887   0.3894     C
C       0.4196   0.4113   0.8894     C
C       0.4245   0.0958    0.691     C
C       0.4245   0.4042    0.191     C
C        0.457   0.0428   0.3707     C
C        0.457   0.4572   0.8707     C
C       0.4624   0.0514   0.6709     C
C       0.4624   0.4486   0.1709     C
H       0.4688    0.022   0.2432     H
H       0.4688    0.478   0.7432     H
H       0.4787   0.0383   0.7839     H
H       0.4787   0.4617   0.2839     H
C       0.4798   0.0237   0.5105     C
C       0.4798   0.4763   0.0105     C
C       0.5202   0.5237   0.9895     C
C       0.5202   0.9763   0.4895     C
H       0.5213   0.5383   0.7161     H
H       0.5213   0.9617   0.2161     H
H       0.5312    0.522   0.2568     H
H       0.5312    0.978   0.7568     H
C       0.5376   0.5514   0.8291     C
C       0.5376   0.9486   0.3291     C
C        0.543   0.5428   0.1293     C
C        0.543   0.9572   0.6293     C
C       0.5755   0.5958    0.809     C
C       0.5755   0.9042    0.309     C
C       0.5804   0.5887   0.1106     C
C       0.5804   0.9113   0.6106     C
H       0.5887   0.6171   0.6835     H
H       0.5887   0.8829   0.1835     H
C       0.5971   0.6157     0.95     C
C       0.5971   0.8843     0.45     C
H       0.5974   0.6042   0.2208     H
H       0.5974   0.8958   0.7208     H
C       0.6367   0.6668   0.9286     C
C       0.6367   0.8332   0.4286     C
O       0.6489   0.7028   0.0607     O
O       0.6489   0.7972   0.5607     O
O        0.655   0.6724   0.7794     O
O        0.655   0.8276   0.2794     O
H       0.6883    0.197   0.1401     H
H       0.6883    0.303   0.6401     H
H       0.6887   0.1795   0.6434     H
H       0.6887   0.3205   0.1434     H
H       0.6891   0.0393    0.141     H
H       0.6891   0.4607    0.641     H
H       0.6894   0.0219   0.6434     H
H       0.6894   0.4781   0.1434     H
Zr      0.7077   0.7406   0.6378    Zr
Zr      0.7077   0.7594   0.1378    Zr
C       0.7158   0.0749   0.0786     C
C       0.7158   0.1639   0.0775     C
C       0.7158   0.3361   0.5775     C
C       0.7158   0.4251   0.5786     C
C        0.716   0.0575   0.5801     C
C        0.716   0.1465   0.5791     C
C        0.716   0.3535   0.0791     C
C        0.716   0.4425   0.0801     C
O       0.7203   0.6039   0.5912     O
O       0.7203   0.8961   0.0912     O
O       0.7216   0.6215   0.0976     O
O       0.7216   0.8785   0.5976     O
O       0.7245   0.7383    0.378     O
O       0.7245   0.7617    0.878     O
C         0.75   0.0118      0.5     C
C         0.75   0.0292      0.0     C
C         0.75   0.1937      0.5     C
C         0.75   0.2112      0.0     C
C         0.75   0.2888      0.5     C
C         0.75   0.3063      0.0     C
C         0.75   0.4708      0.5     C
C         0.75   0.4882      0.0     C
C         0.75   0.5661      0.5     C
C         0.75   0.5835      0.0     C
C         0.75   0.9165      0.5     C
C         0.75   0.9339      0.0     C
O       0.7755   0.7383    0.622     O
O       0.7755   0.7617    0.122     O
O       0.7784   0.6215   0.9024     O
O       0.7784   0.8785   0.4024     O
O       0.7797   0.6039   0.4088     O
O       0.7797   0.8961   0.9088     O
C        0.784   0.0575   0.4199     C
C        0.784   0.1465   0.4209     C
C        0.784   0.3535   0.9209     C
C        0.784   0.4425   0.9199     C
C       0.7842   0.0749   0.9214     C
C       0.7842   0.1639   0.9225     C
C       0.7842   0.3361   0.4225     C
C       0.7842   0.4251   0.4214     C
Zr      0.7923   0.7406   0.3622    Zr
Zr      0.7923   0.7594   0.8622    Zr
H       0.8106   0.0219   0.3566     H
H       0.8106   0.4781   0.8566     H
H       0.8109   0.0393    0.859     H
H       0.8109   0.4607    0.359     H
H       0.8113   0.1795   0.3566     H
H       0.8113   0.3205   0.8566     H
H       0.8117    0.197   0.8599     H
H       0.8117    0.303   0.3599     H
O        0.845   0.6724   0.2206     O
O        0.845   0.8276   0.7206     O
O       0.8511   0.7028   0.9393     O
O       0.8511   0.7972   0.4393     O
C       0.8633   0.6668   0.0714     C
C       0.8633   0.8332   0.5714     C
H       0.9026   0.6042   0.7792     H
H       0.9026   0.8958   0.2792     H
C       0.9029   0.6157     0.05     C
C       0.9029   0.8843     0.55     C
H       0.9113   0.6171   0.3165     H
H       0.9113   0.8829   0.8165     H
C       0.9196   0.5887   0.8894     C
C       0.9196   0.9113   0.3894     C
C       0.9245   0.5958    0.191     C
C       0.9245   0.9042    0.691     C
C        0.957   0.5428   0.8707     C
C        0.957   0.9572   0.3707     C
C       0.9624   0.5514   0.1709     C
C       0.9624   0.9486   0.6709     C
H       0.9688    0.522   0.7432     H
H       0.9688    0.978   0.2432     H
H       0.9787   0.5383   0.2839     H
H       0.9787   0.9617   0.7839     H
C       0.9798   0.5237   0.0105     C
C       0.9798   0.9763   0.5105     C
