data_I
_chemical_name_common  '/Users/gianmarcoterrones/Downloads/mil-125-t'
_cell_length_a 18.65431
_cell_length_b 18.65431
_cell_length_c 18.14441
_cell_angle_alpha 90.00000
_cell_angle_beta  90.00000
_cell_angle_gamma 90.00000
_space_group_name_H-M_alt      'P 1'


loop_
_space_group_symop_operation_xyz
  'x, y, z' 

loop_
_atom_site_label
_atom_site_fract_x
_atom_site_fract_y
_atom_site_fract_z
_atom_site_type_symbol
O          0.0   0.1819   0.4265     O
O          0.0   0.1819   0.5735     O
C          0.0   0.3507      0.5     C
C          0.0   0.4265      0.5     C
C          0.0   0.5735      0.5     C
C          0.0   0.6493      0.5     C
O          0.0   0.8181   0.4265     O
O          0.0   0.8181   0.5735     O
C       0.0368   0.4295      0.0     C
C       0.0368   0.5705      0.0     C
O        0.058   0.3111      0.5     O
O        0.058   0.6889      0.5     O
H     0.067085 0.379592      0.0     H
H     0.067085 0.620408      0.0     H
C       0.0705   0.4632      0.5     C
C       0.0705   0.5368      0.5     C
C       0.0735      0.5      0.0     C
Ti       0.074   0.2083      0.5    Ti
Ti       0.074   0.7917      0.5    Ti
O       0.1074   0.1074      0.5     O
O       0.1074   0.8926      0.5     O
H     0.120408 0.432915      0.5     H
H     0.120408 0.567085      0.5     H
O       0.1442   0.2259   0.4268     O
O       0.1442   0.2259   0.5732     O
O       0.1442   0.7741   0.4268     O
O       0.1442   0.7741   0.5732     O
C       0.1493      0.5      0.0     C
H     0.170556 0.322432 0.176345     H
H     0.170556 0.322432 0.823655     H
H     0.170556 0.677568 0.176345     H
H     0.170556 0.677568 0.823655     H
H     0.177568 0.329444 0.323655     H
H     0.177568 0.329444 0.676345     H
H     0.177568 0.670556 0.323655     H
H     0.177568 0.670556 0.676345     H
O       0.1819      0.0   0.4265     O
O       0.1819      0.0   0.5735     O
O       0.1889    0.442      0.0     O
O       0.1889    0.558      0.0     O
C        0.194    0.194   0.4023     C
C        0.194    0.194   0.5977     C
C        0.194    0.806   0.4023     C
C        0.194    0.806   0.5977     C
C       0.2015   0.2876   0.2898     C
C       0.2015   0.2876   0.7102     C
C       0.2015   0.7124   0.2898     C
C       0.2015   0.7124   0.7102     C
Ti      0.2083    0.074      0.5    Ti
Ti      0.2083    0.926      0.5    Ti
C       0.2124   0.2985   0.2102     C
C       0.2124   0.2985   0.7898     C
C       0.2124   0.7015   0.2102     C
C       0.2124   0.7015   0.7898     C
C       0.2225   0.2225   0.3209     C
C       0.2225   0.2225   0.6791     C
C       0.2225   0.7775   0.3209     C
C       0.2225   0.7775   0.6791     C
O       0.2259   0.1442   0.4268     O
O       0.2259   0.1442   0.5732     O
O       0.2259   0.8558   0.4268     O
O       0.2259   0.8558   0.5732     O
O       0.2741   0.3558   0.0732     O
O       0.2741   0.3558   0.9268     O
O       0.2741   0.6442   0.0732     O
O       0.2741   0.6442   0.9268     O
C       0.2775   0.2775   0.1791     C
C       0.2775   0.2775   0.8209     C
C       0.2775   0.7225   0.1791     C
C       0.2775   0.7225   0.8209     C
C       0.2876   0.2015   0.2898     C
C       0.2876   0.2015   0.7102     C
C       0.2876   0.7985   0.2898     C
C       0.2876   0.7985   0.7102     C
Ti      0.2917    0.426      0.0    Ti
Ti      0.2917    0.574      0.0    Ti
C       0.2985   0.2124   0.2102     C
C       0.2985   0.2124   0.7898     C
C       0.2985   0.7876   0.2102     C
C       0.2985   0.7876   0.7898     C
C        0.306    0.306   0.0977     C
C        0.306    0.306   0.9023     C
C        0.306    0.694   0.0977     C
C        0.306    0.694   0.9023     C
O       0.3111    0.058      0.5     O
O       0.3111    0.942      0.5     O
O       0.3181      0.5   0.0735     O
O       0.3181      0.5   0.9265     O
H     0.322432 0.170556 0.176345     H
H     0.322432 0.170556 0.823655     H
H     0.322432 0.829444 0.176345     H
H     0.322432 0.829444 0.823655     H
H     0.329444 0.177568 0.323655     H
H     0.329444 0.177568 0.676345     H
H     0.329444 0.822432 0.323655     H
H     0.329444 0.822432 0.676345     H
C       0.3507      0.0      0.5     C
O       0.3558   0.2741   0.0732     O
O       0.3558   0.2741   0.9268     O
O       0.3558   0.7259   0.0732     O
O       0.3558   0.7259   0.9268     O
H     0.379592 0.067085      0.0     H
H     0.379592 0.932915      0.0     H
O       0.3926   0.3926      0.0     O
O       0.3926   0.6074      0.0     O
Ti       0.426   0.2917      0.0    Ti
Ti       0.426   0.7083      0.0    Ti
C       0.4265      0.0      0.5     C
C       0.4295   0.0368      0.0     C
C       0.4295   0.9632      0.0     C
H     0.432915 0.120408      0.5     H
H     0.432915 0.879592      0.5     H
O        0.442   0.1889      0.0     O
O        0.442   0.8111      0.0     O
C       0.4632   0.0705      0.5     C
C       0.4632   0.9295      0.5     C
C          0.5   0.0735      0.0     C
C          0.5   0.1493      0.0     C
O          0.5   0.3181   0.0735     O
O          0.5   0.3181   0.9265     O
O          0.5   0.6819   0.0735     O
O          0.5   0.6819   0.9265     O
C          0.5   0.8507      0.0     C
C          0.5   0.9265      0.0     C
C       0.5368   0.0705      0.5     C
C       0.5368   0.9295      0.5     C
O        0.558   0.1889      0.0     O
O        0.558   0.8111      0.0     O
H     0.567085 0.120408      0.5     H
H     0.567085 0.879592      0.5     H
C       0.5705   0.0368      0.0     C
C       0.5705   0.9632      0.0     C
C       0.5735      0.0      0.5     C
Ti       0.574   0.2917      0.0    Ti
Ti       0.574   0.7083      0.0    Ti
O       0.6074   0.3926      0.0     O
O       0.6074   0.6074      0.0     O
H     0.620408 0.067085      0.0     H
H     0.620408 0.932915      0.0     H
O       0.6442   0.2741   0.0732     O
O       0.6442   0.2741   0.9268     O
O       0.6442   0.7259   0.0732     O
O       0.6442   0.7259   0.9268     O
C       0.6493      0.0      0.5     C
H     0.670556 0.177568 0.323655     H
H     0.670556 0.177568 0.676345     H
H     0.670556 0.822432 0.323655     H
H     0.670556 0.822432 0.676345     H
H     0.677568 0.170556 0.176345     H
H     0.677568 0.170556 0.823655     H
H     0.677568 0.829444 0.176345     H
H     0.677568 0.829444 0.823655     H
O       0.6819      0.5   0.0735     O
O       0.6819      0.5   0.9265     O
O       0.6889    0.058      0.5     O
O       0.6889    0.942      0.5     O
C        0.694    0.306   0.0977     C
C        0.694    0.306   0.9023     C
C        0.694    0.694   0.0977     C
C        0.694    0.694   0.9023     C
C       0.7015   0.2124   0.2102     C
C       0.7015   0.2124   0.7898     C
C       0.7015   0.7876   0.2102     C
C       0.7015   0.7876   0.7898     C
Ti      0.7083    0.426      0.0    Ti
Ti      0.7083    0.574      0.0    Ti
C       0.7124   0.2015   0.2898     C
C       0.7124   0.2015   0.7102     C
C       0.7124   0.7985   0.2898     C
C       0.7124   0.7985   0.7102     C
C       0.7225   0.2775   0.1791     C
C       0.7225   0.2775   0.8209     C
C       0.7225   0.7225   0.1791     C
C       0.7225   0.7225   0.8209     C
O       0.7259   0.3558   0.0732     O
O       0.7259   0.3558   0.9268     O
O       0.7259   0.6442   0.0732     O
O       0.7259   0.6442   0.9268     O
O       0.7741   0.1442   0.4268     O
O       0.7741   0.1442   0.5732     O
O       0.7741   0.8558   0.4268     O
O       0.7741   0.8558   0.5732     O
C       0.7775   0.2225   0.3209     C
C       0.7775   0.2225   0.6791     C
C       0.7775   0.7775   0.3209     C
C       0.7775   0.7775   0.6791     C
C       0.7876   0.2985   0.2102     C
C       0.7876   0.2985   0.7898     C
C       0.7876   0.7015   0.2102     C
C       0.7876   0.7015   0.7898     C
Ti      0.7917    0.074      0.5    Ti
Ti      0.7917    0.926      0.5    Ti
C       0.7985   0.2876   0.2898     C
C       0.7985   0.2876   0.7102     C
C       0.7985   0.7124   0.2898     C
C       0.7985   0.7124   0.7102     C
C        0.806    0.194   0.4023     C
C        0.806    0.194   0.5977     C
C        0.806    0.806   0.4023     C
C        0.806    0.806   0.5977     C
O       0.8111    0.442      0.0     O
O       0.8111    0.558      0.0     O
O       0.8181      0.0   0.4265     O
O       0.8181      0.0   0.5735     O
H     0.822432 0.329444 0.323655     H
H     0.822432 0.329444 0.676345     H
H     0.822432 0.670556 0.323655     H
H     0.822432 0.670556 0.676345     H
H     0.829444 0.322432 0.176345     H
H     0.829444 0.322432 0.823655     H
H     0.829444 0.677568 0.176345     H
H     0.829444 0.677568 0.823655     H
C       0.8507      0.5      0.0     C
O       0.8558   0.2259   0.4268     O
O       0.8558   0.2259   0.5732     O
O       0.8558   0.7741   0.4268     O
O       0.8558   0.7741   0.5732     O
H     0.879592 0.432915      0.5     H
H     0.879592 0.567085      0.5     H
O       0.8926   0.1074      0.5     O
O       0.8926   0.8926      0.5     O
Ti       0.926   0.2083      0.5    Ti
Ti       0.926   0.7917      0.5    Ti
C       0.9265      0.5      0.0     C
C       0.9295   0.4632      0.5     C
C       0.9295   0.5368      0.5     C
H     0.932915 0.379592      0.0     H
H     0.932915 0.620408      0.0     H
O        0.942   0.3111      0.5     O
O        0.942   0.6889      0.5     O
C       0.9632   0.4295      0.0     C
C       0.9632   0.5705      0.0     C
