data_I
_chemical_name_common  '/Users/gianmarcoterrones/Downloads/mil-140a'
_cell_length_a 23.86880
_cell_length_b 11.19680
_cell_length_c  7.82520
_cell_angle_alpha 90.00000
_cell_angle_beta  95.47500
_cell_angle_gamma 90.00000
_space_group_name_H-M_alt      'P 1'


loop_
_space_group_symop_operation_xyz
  'x, y, z' 

loop_
_atom_site_label
_atom_site_fract_x
_atom_site_fract_y
_atom_site_fract_z
_atom_site_type_symbol
C      0.01683  0.57174  0.86686     C
C      0.01683  0.92826  0.36686     C
H       0.0307  0.62835   0.7661     H
H       0.0307  0.87165   0.2661     H
C      0.03177  0.00359  0.65988     C
C      0.03177  0.49641  0.15988     C
C      0.04856   0.5679  0.02683     C
C      0.04856   0.9321  0.52683     C
H      0.05739   0.0042  0.78255     H
H      0.05739   0.4958  0.28255     H
C      0.10053  0.64014  0.05724     C
C      0.10053  0.85986  0.55724     C
O      0.11363  0.70699  0.93517     O
O      0.11363  0.79301  0.43517     O
O       0.1279  0.62956    0.203     O
O       0.1279  0.87044    0.703     O
H      0.16797  0.11547  0.36035     H
H      0.16797  0.38453  0.86035     H
H      0.16813  0.15997  0.85962     H
H      0.16813  0.34003  0.35962     H
Zr     0.19443  0.72604  0.35956    Zr
Zr     0.19443  0.77396  0.85956    Zr
C      0.20345  0.16569   0.4212     C
C      0.20345  0.33431   0.9212     C
C       0.2035   0.2104    0.921     C
C       0.2035   0.2896    0.421     C
O      0.21058  0.58068  0.90766     O
O      0.21058  0.91932  0.40766     O
O      0.21122  0.53527  0.40347     O
O      0.21122  0.96473  0.90347     O
O      0.21626  0.72353  0.62214     O
O      0.21626  0.77647  0.12214     O
C         0.25  0.01618      0.0     C
C         0.25  0.10365      0.5     C
C         0.25  0.14839      0.0     C
C         0.25  0.35161      0.5     C
C         0.25  0.39635      0.0     C
C         0.25  0.48382      0.5     C
C         0.25  0.52882      0.0     C
C         0.25  0.97118      0.5     C
O      0.28374  0.72353  0.37786     O
O      0.28374  0.77647  0.87786     O
O      0.28878  0.53527  0.59653     O
O      0.28878  0.96473  0.09653     O
O      0.28942  0.58068  0.09234     O
O      0.28942  0.91932  0.59234     O
C       0.2965   0.2104    0.079     C
C       0.2965   0.2896    0.579     C
C      0.29655  0.16569   0.5788     C
C      0.29655  0.33431   0.0788     C
Zr     0.30557  0.72604  0.64044    Zr
Zr     0.30557  0.77396  0.14044    Zr
H      0.33187  0.15997  0.14038     H
H      0.33187  0.34003  0.64038     H
H      0.33203  0.11547  0.63965     H
H      0.33203  0.38453  0.13965     H
O       0.3721  0.62956    0.797     O
O       0.3721  0.87044    0.297     O
O      0.38637  0.70699  0.06483     O
O      0.38637  0.79301  0.56483     O
C      0.39947  0.64014  0.94276     C
C      0.39947  0.85986  0.44276     C
H      0.44261   0.0042  0.21745     H
H      0.44261   0.4958  0.71745     H
C      0.45144   0.5679  0.97317     C
C      0.45144   0.9321  0.47317     C
C      0.46823  0.00359  0.34012     C
C      0.46823  0.49641  0.84012     C
H       0.4693  0.62835   0.2339     H
H       0.4693  0.87165   0.7339     H
C      0.48317  0.57174  0.13314     C
C      0.48317  0.92826  0.63314     C
C      0.51683  0.07174  0.36686     C
C      0.51683  0.42826  0.86686     C
H       0.5307  0.12835   0.2661     H
H       0.5307  0.37165   0.7661     H
C      0.53177  0.50359  0.15988     C
C      0.53177  0.99641  0.65988     C
C      0.54856   0.0679  0.52683     C
C      0.54856   0.4321  0.02683     C
H      0.55739   0.5042  0.28255     H
H      0.55739   0.9958  0.78255     H
C      0.60053  0.14014  0.55724     C
C      0.60053  0.35986  0.05724     C
O      0.61363  0.20699  0.43517     O
O      0.61363  0.29301  0.93517     O
O       0.6279  0.12956    0.703     O
O       0.6279  0.37044    0.203     O
H      0.66797  0.61547  0.86035     H
H      0.66797  0.88453  0.36035     H
H      0.66813  0.65997  0.35962     H
H      0.66813  0.84003  0.85962     H
Zr     0.69443  0.22604  0.85956    Zr
Zr     0.69443  0.27396  0.35956    Zr
C      0.70345  0.66569   0.9212     C
C      0.70345  0.83431   0.4212     C
C       0.7035   0.7104    0.421     C
C       0.7035   0.7896    0.921     C
O      0.71058  0.08068  0.40766     O
O      0.71058  0.41932  0.90766     O
O      0.71122  0.03527  0.90347     O
O      0.71122  0.46473  0.40347     O
O      0.71626  0.22353  0.12214     O
O      0.71626  0.27647  0.62214     O
C         0.75  0.02882      0.5     C
C         0.75  0.47118      0.0     C
C         0.75  0.51618      0.5     C
C         0.75  0.60365      0.0     C
C         0.75  0.64839      0.5     C
C         0.75  0.85161      0.0     C
C         0.75  0.89635      0.5     C
C         0.75  0.98382      0.0     C
O      0.78374  0.22353  0.87786     O
O      0.78374  0.27647  0.37786     O
O      0.78878  0.03527  0.09653     O
O      0.78878  0.46473  0.59653     O
O      0.78942  0.08068  0.59234     O
O      0.78942  0.41932  0.09234     O
C       0.7965   0.7104    0.579     C
C       0.7965   0.7896    0.079     C
C      0.79655  0.66569   0.0788     C
C      0.79655  0.83431   0.5788     C
Zr     0.80557  0.22604  0.14044    Zr
Zr     0.80557  0.27396  0.64044    Zr
H      0.83187  0.65997  0.64038     H
H      0.83187  0.84003  0.14038     H
H      0.83203  0.61547  0.13965     H
H      0.83203  0.88453  0.63965     H
O       0.8721  0.12956    0.297     O
O       0.8721  0.37044    0.797     O
O      0.88637  0.20699  0.56483     O
O      0.88637  0.29301  0.06483     O
C      0.89947  0.14014  0.44276     C
C      0.89947  0.35986  0.94276     C
H      0.94261   0.5042  0.71745     H
H      0.94261   0.9958  0.21745     H
C      0.95144   0.0679  0.47317     C
C      0.95144   0.4321  0.97317     C
C      0.96823  0.50359  0.84012     C
C      0.96823  0.99641  0.34012     C
H       0.9693  0.12835   0.7339     H
H       0.9693  0.37165   0.2339     H
C      0.98317  0.07174  0.63314     C
C      0.98317  0.42826  0.13314     C
