data_I
_chemical_name_common  '/Users/gianmarcoterrones/Downloads/mil-53-al'
_cell_length_a 17.29140
_cell_length_b  6.60062
_cell_length_c 11.88730
_cell_angle_alpha 90.00000
_cell_angle_beta  90.00000
_cell_angle_gamma 90.00000
_space_group_name_H-M_alt      'P 1'


loop_
_space_group_symop_operation_xyz
  'x, y, z' 

loop_
_atom_site_label
_atom_site_fract_x
_atom_site_fract_y
_atom_site_fract_z
_atom_site_type_symbol
O     -0.07336 -0.084217 -0.11178     O
O     -0.07336 0.084217  0.11178     O
O     -0.07336 0.415817  0.11178     O
O     -0.07336 0.584217 -0.11178     O
O          0.0    -0.25 0.0665418     O
Al         0.0      0.0      0.0    Al
O          0.0     0.25 -0.0665418     O
Al         0.0      0.5      0.0    Al
Al         0.0      0.5      1.0    Al
Al         0.0      1.0      0.0    Al
Al         0.0      1.0      1.0    Al
O      0.07336 -0.084217 -0.11178     O
O      0.07336 0.084217  0.11178     O
O      0.07336 0.415817  0.11178     O
O      0.07336 0.584217 -0.11178     O
C      0.10047     0.25  0.13801     C
C      0.10047     0.75  0.86201     C
C      0.17207     0.25  0.20781     C
C      0.17207     0.75  0.79221     C
H     0.179529 0.573609 0.215642     H
H     0.179529  1.07361 0.784358     H
C      0.20685 0.430613  0.23831     C
C      0.20685 0.930613  0.76171     C
H     0.207692 -0.0635708 0.153006     H
H     0.207692 0.436429 0.846994     H
C      0.22415 0.068213  0.20279     C
C      0.22415 0.568213  0.79739     C
C      0.27595 0.431813  0.29739     C
C      0.27595 0.931813  0.70279     C
H     0.292308 0.563571 0.346994     H
H     0.292308  1.06357 0.653006     H
C      0.29325 0.069413  0.26171     C
C      0.29325 0.569413  0.73831     C
H     0.320471 -0.0736087 0.284358     H
H     0.320471 0.426391 0.715642     H
C      0.32807     0.25  0.29221     C
C      0.32807     0.75  0.70781     C
C      0.39967     0.25  0.36201     C
C      0.39967     0.75  0.63801     C
O      0.42676 -0.084217  0.61178     O
O      0.42676 0.084217  0.38838     O
O      0.42676 0.415817  0.38838     O
O      0.42676 0.584217  0.61178     O
O          0.5    -0.25 0.4334618     O
Al         0.5      0.0      0.5    Al
O          0.5     0.25 0.5665418     O
Al         0.5      0.5      0.5    Al
Al         0.5      1.0      0.5    Al
O      0.57336 -0.084217  0.61178     O
O      0.57336 0.084217  0.38838     O
O      0.57336 0.415817  0.38838     O
O      0.57336 0.584217  0.61178     O
C      0.60047     0.25  0.36201     C
C      0.60047     0.75  0.63801     C
C      0.67207     0.25  0.29221     C
C      0.67207     0.75  0.70781     C
H     0.679529 -0.0736087 0.284358     H
H     0.679529  1.07361 0.715642     H
C      0.70685 0.069413  0.26171     C
C      0.70685 0.930613  0.73831     C
H     0.707692 0.436429 0.653006     H
H     0.707692 0.563571 0.346994     H
C      0.72415 0.431813  0.29739     C
C      0.72415 0.568213  0.70279     C
C      0.77595 0.068213  0.20279     C
C      0.77595 0.931813  0.79739     C
H     0.792308 -0.0635708 0.153006     H
H     0.792308  1.06357 0.846994     H
C      0.79325 0.430613  0.23831     C
C      0.79325 0.569413  0.76171     C
H     0.820471 0.426391 0.784358     H
H     0.820471 0.573609 0.215642     H
C      0.82807     0.25  0.20781     C
C      0.82807     0.75  0.79221     C
C      0.89967     0.25  0.13801     C
C      0.89967     0.75  0.86201     C
Al         1.0      0.0      0.0    Al
Al         1.0      0.5      0.0    Al
Al         1.0      0.5      1.0    Al
Al         1.0      1.0      1.0    Al
