data_I
_chemical_name_common  '/Users/gianmarcoterrones/Research/MOFs/MOF_structures/water_stability_work_extra_structs/cleaned_from_CCDC/MIMJEX'
_cell_length_a 10.28200
_cell_length_b 20.28720
_cell_length_c 20.55180
_cell_angle_alpha 90.00000
_cell_angle_beta  90.00000
_cell_angle_gamma 90.00000
_space_group_name_H-M_alt      'P 1'


loop_
_space_group_symop_operation_xyz
  'x, y, z' 

loop_
_atom_site_label
_atom_site_fract_x
_atom_site_fract_y
_atom_site_fract_z
_atom_site_type_symbol
N       0.0056  0.36401  0.50007     N
H       0.0056   0.5801   0.8246     H
N       0.0071  0.65837  0.88935     N
H       0.0103   0.2752   0.6681     H
N       0.0126  0.34452  0.88511     N
C       0.0223   0.7123   0.6514     C
H       0.0261   0.9082   0.6907     H
C        0.028   0.6999  0.25946     C
H       0.0315   0.6155   0.6834     H
C       0.0328   0.3305   0.2619     C
H       0.0328    0.513   0.5219     H
C       0.0364    0.389   0.8376     C
C       0.0383   0.4142   0.5192     C
H       0.0483   0.2311   0.8253     H
H       0.0502   0.6551    0.267     H
H       0.0524   0.4798   0.5918     H
H       0.0546   0.3754   0.2696     H
C        0.055   0.6089  0.85136     C
C       0.0659   0.6495   0.6566     C
N       0.0757  0.79523  0.48087     N
C       0.0768   0.4777   0.5458     C
Ag     0.08185 0.765139 0.009103    Ag
C       0.0885  0.28421  0.64518     C
C       0.0954  0.81309  0.24636     C
N       0.0978  0.74326  0.60697     N
C       0.1016  0.21756  0.24874     C
N       0.1033  0.19393  0.47778     N
N       0.1061  0.68975  0.92119     N
C        0.111  0.81415   0.5977     C
H       0.1131   0.1784   0.3812     H
H       0.1131   0.7987    0.384     H
C       0.1244  0.74685   0.2568     C
N        0.125  0.32711  0.91591     N
C       0.1272  0.17222  0.59409     C
C       0.1313   0.2833   0.2591     C
C       0.1341   0.1629  0.42356     C
C       0.1383   0.8123  0.42642     C
H       0.1405   0.3788   0.6731     H
N       0.1446  0.82602  0.52925     N
Ag     0.14504  0.28341  0.01707    Ag
N       0.1495  0.24317  0.60312     N
N       0.1522  0.15545  0.52595     N
C       0.1593   0.3403   0.6486     C
H       0.1636    0.907   0.2313     H
C       0.1664   0.4012   0.8376     C
H        0.167   0.6396   0.1006     H
H       0.1701   0.1227   0.2403     H
C       0.1708   0.6453   0.6149     C
H       0.1712   0.4829   0.5416     H
C       0.1867   0.6084   0.8589     C
H       0.1884   0.8565   0.1267     H
O       0.1898  0.81921  0.70441     O
H       0.1916    0.116   0.0301     H
O       0.1938  0.15335  0.70213     O
H       0.1942   0.1783   0.1273     H
H       0.1943   0.6395    0.399     H
N       0.1945  0.70228  0.58613     N
H       0.1958    0.129   0.9089     H
C        0.201   0.8644  0.24536     C
H       0.2014   0.3291   0.4168     H
C       0.2017   0.1043   0.4359     C
H       0.2056   0.0856   0.6332     H
C       0.2077   0.1665   0.2504     C
C       0.2099  0.10102  0.50175     C
H       0.2125   0.7338   0.2622     H
H       0.2131   0.4302   0.8099     H
C       0.2137   0.6594   0.9025     C
C       0.2164   0.3619   0.8873     C
H       0.2194   0.2963   0.2643     H
H       0.2199   0.6063   0.6078     H
C       0.2202  0.13355  0.63813     C
C        0.221  0.84011  0.64113     C
H       0.2256   0.8888    0.639     H
C       0.2341   0.6709   0.1081     C
H       0.2345   0.0737    0.405     H
H       0.2356   0.8701   0.2899     H
N       0.2371  0.73033  0.08138     N
H       0.2449   0.1645   0.2948     H
C       0.2451   0.8525   0.4394     C
C       0.2466   0.8597  0.50547     C
H       0.2473   0.5795   0.8388     H
H       0.2491   0.0667   0.5263     H
H       0.2509   0.9333   0.0263     H
H       0.2527   0.4205   0.3388     H
C       0.2534   0.1403  0.00547     C
C       0.2549   0.1475   0.9394     C
H       0.2551   0.8355   0.7948     H
N       0.2629  0.26967  0.58138     N
H       0.2644   0.1299   0.7899     H
H       0.2655   0.9263    0.905     H
C       0.2659   0.3291   0.6081     C
H       0.2744   0.1112    0.139     H
C        0.279  0.15989  0.14113     C
C       0.2798  0.86645  0.13813     C
H       0.2801   0.3937   0.1078     H
H       0.2806   0.7037   0.7643     H
C       0.2836   0.6381   0.3873     C
C       0.2863   0.3406   0.4025     C
H       0.2869   0.5698   0.3099     H
H       0.2875   0.2662   0.7622     H
C       0.2901  0.89898  0.00175     C
C       0.2923   0.8335   0.7504     C
H       0.2944   0.9144   0.1332     H
C       0.2983   0.8957   0.9359     C
H       0.2986   0.6709   0.9168     H
C        0.299   0.1356  0.74536     C
H       0.3042    0.871   0.4089     H
N       0.3055  0.29772  0.08613     N
H       0.3057   0.3605    0.899     H
H       0.3058   0.8217   0.6273     H
O       0.3062  0.84665  0.20213     O
H       0.3084    0.884   0.5301     H
O       0.3102  0.18079  0.20441     O
H       0.3116   0.1435   0.6267     H
C       0.3133   0.3916   0.3589     C
H       0.3288   0.5171   0.0416     H
C       0.3292   0.3547   0.1149     C
H       0.3299   0.8773   0.7403     H
H        0.333   0.3604   0.6006     H
C       0.3336   0.5988   0.3376     C
H       0.3364    0.093   0.7313     H
C       0.3407   0.6597   0.1486     C
N       0.3478  0.84455  0.02595     N
N       0.3505  0.75683  0.10312     N
Ag     0.35496  0.71659  0.51707    Ag
N       0.3554  0.17398  0.02925     N
H       0.3595   0.6212   0.1731     H
C       0.3617   0.1877  0.92642     C
C       0.3659   0.8371  0.92356     C
C       0.3687   0.7167   0.7591     C
C       0.3728  0.82778  0.09409     C
N        0.375  0.67289  0.41591     N
C       0.3756  0.25315   0.7568     C
H       0.3869   0.2013    0.884     H
H       0.3869   0.8216   0.8812     H
C        0.389  0.18585   0.0977     C
N       0.3939  0.31025  0.42119     N
N       0.3967  0.80607  0.97778     N
C       0.3984  0.78244  0.74874     C
N       0.4022  0.25674  0.10697     N
C       0.4046  0.18691  0.74636     C
C       0.4115  0.71579  0.14518     C
Ag     0.41815 0.234861 0.509103    Ag
C       0.4232   0.5223   0.0458     C
N       0.4243  0.20477  0.98087     N
C       0.4341   0.3505   0.1566     C
C        0.445   0.3911  0.35136     C
H       0.4454   0.6246   0.7696     H
H       0.4476   0.5202   0.0918     H
H       0.4498   0.3449    0.767     H
H       0.4517   0.7689   0.3253     H
C       0.4617   0.5858   0.0192     C
C       0.4636    0.611   0.3376     C
H       0.4672    0.487   0.0219     H
C       0.4672   0.6695   0.7619     C
H       0.4685   0.3845   0.1834     H
C        0.472   0.3001  0.75946     C
H       0.4739   0.0918   0.1907     H
C       0.4777   0.2877   0.1514     C
N       0.4874  0.65548  0.38511     N
H       0.4897   0.7248   0.1681     H
N       0.4929  0.34163  0.38935     N
H       0.4944   0.4199   0.3246     H
N       0.4944  0.63599    7e-05     N
N       0.5056  0.13599  0.49993     N
H       0.5056   0.9199   0.1754     H
N       0.5071  0.84163  0.11065     N
H       0.5103   0.2248   0.3319     H
N       0.5126  0.15548  0.11489     N
C       0.5223   0.7877   0.3486     C
H       0.5261   0.5918   0.3093     H
C        0.528   0.8001  0.74054     C
H       0.5315   0.8845   0.3166     H
C       0.5328   0.1695   0.7381     C
H       0.5328    0.987   0.4781     H
C       0.5364    0.111   0.1624     C
C       0.5383   0.0858   0.4808     C
H       0.5483   0.2689   0.1747     H
H       0.5502   0.8449    0.733     H
H       0.5524   0.0202   0.4082     H
H       0.5546   0.1246   0.7304     H
C        0.555   0.8911  0.14864     C
C       0.5659   0.8505   0.3434     C
N       0.5757  0.70477  0.51913     N
C       0.5768   0.0223   0.4542     C
Ag     0.58185 0.734861 0.990897    Ag
C       0.5885  0.21579  0.35482     C
C       0.5954  0.68691  0.75364     C
N       0.5978  0.75674  0.39303     N
C       0.6016  0.28244  0.75126     C
N       0.6033  0.30607  0.52222     N
N       0.6061  0.81025  0.07881     N
C        0.611  0.68585   0.4023     C
H       0.6131   0.3216   0.6188     H
H       0.6131   0.7013    0.616     H
C       0.6244  0.75315   0.7432     C
N        0.625  0.17289  0.08409     N
C       0.6272  0.32778  0.40591     C
C       0.6313   0.2167   0.7409     C
C       0.6341   0.3371  0.57644     C
C       0.6383   0.6877  0.57358     C
H       0.6405   0.1212   0.3269     H
N       0.6446  0.67398  0.47075     N
Ag     0.64504  0.21659  0.98293    Ag
N       0.6495  0.25683  0.39688     N
N       0.6522  0.34455  0.47405     N
C       0.6593   0.1597   0.3514     C
H       0.6636    0.593   0.7687     H
C       0.6664   0.0988   0.1624     C
H        0.667   0.8604   0.8994     H
H       0.6701   0.3773   0.7597     H
C       0.6708   0.8547   0.3851     C
H       0.6712   0.0171   0.4584     H
C       0.6867   0.8916   0.1411     C
H       0.6884   0.6435   0.8733     H
O       0.6898  0.68079  0.29559     O
H       0.6916    0.384   0.9699     H
O       0.6938  0.34665  0.29787     O
H       0.6942   0.3217   0.8727     H
H       0.6943   0.8605    0.601     H
N       0.6945  0.79772  0.41387     N
H       0.6958    0.371   0.0911     H
C        0.701   0.6356  0.75464     C
H       0.7014   0.1709   0.5832     H
C       0.7017   0.3957   0.5641     C
H       0.7056   0.4144   0.3668     H
C       0.7077   0.3335   0.7496     C
C       0.7099  0.39898  0.49825     C
H       0.7125   0.7662   0.7378     H
H       0.7131   0.0698   0.1901     H
C       0.7137   0.8406   0.0975     C
C       0.7164   0.1381   0.1127     C
H       0.7194   0.2037   0.7357     H
H       0.7199   0.8937   0.3922     H
C       0.7202  0.36645  0.36187     C
C        0.721  0.65989  0.35887     C
H       0.7256   0.6112    0.361     H
C       0.7341   0.8291   0.8919     C
H       0.7345   0.4263    0.595     H
H       0.7356   0.6299   0.7101     H
N       0.7371  0.76967  0.91862     N
H       0.7449   0.3355   0.7052     H
C       0.7451   0.6475   0.5606     C
C       0.7466   0.6403  0.49453     C
H       0.7473   0.9205   0.1612     H
H       0.7491   0.4333   0.4737     H
H       0.7509   0.5667   0.9737     H
H       0.7527   0.0795   0.6612     H
C       0.7534   0.3597  0.99453     C
C       0.7549   0.3525   0.0606     C
H       0.7551   0.6645   0.2052     H
N       0.7629  0.23033  0.41862     N
H       0.7644   0.3701   0.2101     H
H       0.7655   0.5737    0.095     H
C       0.7659   0.1709   0.3919     C
H       0.7744   0.3888    0.861     H
C        0.779  0.34011  0.85887     C
C       0.7798  0.63355  0.86187     C
H       0.7801   0.1063   0.8922     H
H       0.7806   0.7963   0.2357     H
C       0.7836   0.8619   0.6127     C
C       0.7863   0.1594   0.5975     C
H       0.7869   0.9302   0.6901     H
H       0.7875   0.2338   0.2378     H
C       0.7901  0.60102  0.99825     C
C       0.7923   0.6665   0.2496     C
H       0.7944   0.5856   0.8668     H
C       0.7983   0.6043   0.0641     C
H       0.7986   0.8291   0.0832     H
C        0.799   0.3644  0.25464     C
H       0.8042    0.629   0.5911     H
N       0.8055  0.20228  0.91387     N
H       0.8057   0.1395    0.101     H
H       0.8058   0.6783   0.3727     H
O       0.8062  0.65335  0.79787     O
H       0.8084    0.616   0.4699     H
O       0.8102  0.31921  0.79559     O
H       0.8116   0.3565   0.3733     H
C       0.8133   0.1084   0.6411     C
H       0.8288   0.9829   0.9584     H
C       0.8292   0.1453   0.8851     C
H       0.8299   0.6227   0.2597     H
H        0.833   0.1396   0.3994     H
C       0.8336   0.9012   0.6624     C
H       0.8364    0.407   0.2687     H
C       0.8407   0.8403   0.8514     C
N       0.8478  0.65545  0.97405     N
N       0.8505  0.74317  0.89688     N
Ag     0.85496  0.78341  0.48293    Ag
N       0.8554  0.32602  0.97075     N
H       0.8595   0.8788   0.8269     H
C       0.8617   0.3123  0.07358     C
C       0.8659   0.6629  0.07644     C
C       0.8687   0.7833   0.2409     C
C       0.8728  0.67222  0.90591     C
N        0.875  0.82711  0.58409     N
C       0.8756  0.24685   0.2432     C
H       0.8869   0.2987    0.116     H
H       0.8869   0.6784   0.1188     H
C        0.889  0.31415   0.9023     C
N       0.8939  0.18975  0.57881     N
N       0.8967  0.69393  0.02222     N
C       0.8984  0.71756  0.25126     C
N       0.9022  0.24326  0.89303     N
C       0.9046  0.31309  0.25364     C
C       0.9115  0.78421  0.85482     C
Ag     0.91815 0.265139 0.490897    Ag
C       0.9232   0.9777   0.9542     C
N       0.9243  0.29523  0.01913     N
C       0.9341   0.1495   0.8434     C
C        0.945   0.1089  0.64864     C
H       0.9454   0.8754   0.2304     H
H       0.9476   0.9798   0.9082     H
H       0.9498   0.1551    0.233     H
H       0.9517   0.7311   0.6747     H
C       0.9617   0.9142   0.9808     C
C       0.9636    0.889   0.6624     C
H       0.9672    0.013   0.9781     H
C       0.9672   0.8305   0.2381     C
H       0.9685   0.1155   0.8166     H
C        0.972   0.1999  0.24054     C
H       0.9739   0.4082   0.8093     H
C       0.9777   0.2123   0.8486     C
N       0.9874  0.84452  0.61489     N
H       0.9897   0.7752   0.8319     H
N       0.9929  0.15837  0.61065     N
H       0.9944   0.0801   0.6754     H
N       0.9944  0.86401  0.99993     N
