data_I
_chemical_name_common  '/Users/gianmarcoterrones/Research/MOFs/MOF_structures/water_stability_work_extra_structs/cleaned_from_CoRE/MITSEO_charged'
_cell_length_a 12.60520
_cell_length_b 20.18240
_cell_length_c 20.18240
_cell_angle_alpha 90.00000
_cell_angle_beta  90.00000
_cell_angle_gamma 90.00000
_space_group_name_H-M_alt      'P 1'


loop_
_space_group_symop_operation_xyz
  'x, y, z' 

loop_
_atom_site_label
_atom_site_fract_x
_atom_site_fract_y
_atom_site_fract_z
_atom_site_type_symbol
Cd         0.0      0.0      0.0    Cd
Cd         0.0      0.5      0.5    Cd
O       0.1052   0.0866   0.9669     O
O       0.1052   0.4669   0.4134     O
O       0.1052   0.5331   0.5866     O
O       0.1052   0.9134   0.0331     O
O        0.128   0.0732    0.073     O
O        0.128    0.427   0.5732     O
O        0.128    0.573   0.4268     O
O        0.128   0.9268    0.927     O
C       0.1509   0.1009   0.0201     C
C       0.1509   0.4799   0.6009     C
C       0.1509   0.5201   0.3991     C
C       0.1509   0.8991   0.9799     C
Cl     0.22634  0.15729  0.69335    Cl
Cl     0.22634  0.19335  0.34271    Cl
Cl     0.22634  0.80665  0.65729    Cl
Cl     0.22634  0.84271  0.30665    Cl
C       0.2382   0.1522   0.0186     C
C       0.2382   0.4814   0.6522     C
C       0.2382   0.5186   0.3478     C
C       0.2382   0.8478   0.9814     C
H       0.2515   0.1572    0.919     H
H       0.2515    0.419   0.3428     H
H       0.2515    0.581   0.6572     H
H       0.2515   0.8428    0.081     H
H       0.2533   0.1628    0.117     H
H       0.2533    0.383   0.6628     H
H       0.2533    0.617   0.3372     H
H       0.2533   0.8372    0.883     H
C       0.2819   0.1759   0.0767     C
C       0.2819   0.4233   0.6759     C
C       0.2819   0.5767   0.3241     C
C       0.2819   0.8241   0.9233     C
C        0.282   0.1716   0.9584     C
C        0.282   0.4584   0.3284     C
C        0.282   0.5416   0.6716     C
C        0.282   0.8284   0.0416     C
O       0.3673   0.2262  0.19307     O
O       0.3673  0.30693   0.7262     O
O       0.3673  0.69307   0.2738     O
O       0.3673   0.7738  0.80693     O
C       0.3688   0.2195    0.076     C
C       0.3688    0.424   0.7195     C
C       0.3688    0.576   0.2805     C
C       0.3688   0.7805    0.924     C
C       0.3708   0.2124   0.9565     C
C       0.3708   0.4565   0.2876     C
C       0.3708   0.5435   0.7124     C
C       0.3708   0.7876   0.0435     C
O       0.3786   0.2038  0.84007     O
O       0.3786  0.34007   0.2962     O
O       0.3786  0.65993   0.7038     O
O       0.3786   0.7962  0.15993     O
Cd     0.39967  0.19976  0.72762    Cd
Cd     0.39967  0.22762  0.30024    Cd
Cd     0.39967  0.77238  0.69976    Cd
Cd     0.39967  0.80024  0.27238    Cd
C       0.4119   0.2369   0.0144     C
C       0.4119   0.4856   0.7369     C
C       0.4119   0.5144   0.2631     C
C       0.4119   0.7631   0.9856     C
C       0.4148   0.2437   0.1409     C
C       0.4148   0.3591   0.7437     C
C       0.4148   0.6409   0.2563     C
C       0.4148   0.7563   0.8591     C
C       0.4213   0.2268   0.8902     C
C       0.4213   0.3902   0.2732     C
C       0.4213   0.6098   0.7268     C
C       0.4213   0.7732   0.1098     C
H       0.4696   0.2656   0.0129     H
H       0.4696   0.4871   0.7656     H
H       0.4696   0.5129   0.2344     H
H       0.4696   0.7344   0.9871     H
O       0.4937  0.10749   0.7414     O
O       0.4937   0.2414  0.39251     O
O       0.4937   0.7586  0.60749     O
O       0.4937  0.89251   0.2586     O
O       0.4985   0.2767  0.13847     O
O       0.4985  0.36153   0.7767     O
O       0.4985  0.63847   0.2233     O
O       0.4985   0.7233  0.86153     O
O       0.5015  0.13847   0.2767     O
O       0.5015   0.2233  0.63847     O
O       0.5015   0.7767  0.36153     O
O       0.5015  0.86153   0.7233     O
O       0.5063   0.2586  0.89251     O
O       0.5063  0.39251   0.2414     O
O       0.5063  0.60749   0.7586     O
O       0.5063   0.7414  0.10749     O
H       0.5304   0.0129   0.2656     H
H       0.5304   0.2344   0.5129     H
H       0.5304   0.7656   0.4871     H
H       0.5304   0.9871   0.7344     H
C       0.5787   0.1098   0.7732     C
C       0.5787   0.2732   0.3902     C
C       0.5787   0.7268   0.6098     C
C       0.5787   0.8902   0.2268     C
C       0.5852   0.1409   0.2437     C
C       0.5852   0.2563   0.6409     C
C       0.5852   0.7437   0.3591     C
C       0.5852   0.8591   0.7563     C
C       0.5881   0.0144   0.2369     C
C       0.5881   0.2631   0.5144     C
C       0.5881   0.7369   0.4856     C
C       0.5881   0.9856   0.7631     C
Cd     0.60033  0.27238  0.80024    Cd
Cd     0.60033  0.30024  0.22762    Cd
Cd     0.60033  0.69976  0.77238    Cd
Cd     0.60033  0.72762  0.19976    Cd
O       0.6214  0.15993   0.7962     O
O       0.6214   0.2962  0.34007     O
O       0.6214   0.7038  0.65993     O
O       0.6214  0.84007   0.2038     O
C       0.6292   0.0435   0.7876     C
C       0.6292   0.2876   0.4565     C
C       0.6292   0.7124   0.5435     C
C       0.6292   0.9565   0.2124     C
C       0.6312    0.076   0.2195     C
C       0.6312   0.2805    0.576     C
C       0.6312   0.7195    0.424     C
C       0.6312    0.924   0.7805     C
O       0.6327  0.19307   0.2262     O
O       0.6327   0.2738  0.69307     O
O       0.6327   0.7262  0.30693     O
O       0.6327  0.80693   0.7738     O
C        0.718   0.0416   0.8284     C
C        0.718   0.3284   0.4584     C
C        0.718   0.6716   0.5416     C
C        0.718   0.9584   0.1716     C
C       0.7181   0.0767   0.1759     C
C       0.7181   0.3241   0.5767     C
C       0.7181   0.6759   0.4233     C
C       0.7181   0.9233   0.8241     C
H       0.7467    0.117   0.1628     H
H       0.7467   0.3372    0.617     H
H       0.7467   0.6628    0.383     H
H       0.7467    0.883   0.8372     H
H       0.7485    0.081   0.8428     H
H       0.7485   0.3428    0.419     H
H       0.7485   0.6572    0.581     H
H       0.7485    0.919   0.1572     H
C       0.7618   0.0186   0.1522     C
C       0.7618   0.3478   0.5186     C
C       0.7618   0.6522   0.4814     C
C       0.7618   0.9814   0.8478     C
Cl     0.77366  0.30665  0.84271    Cl
Cl     0.77366  0.34271  0.19335    Cl
Cl     0.77366  0.65729  0.80665    Cl
Cl     0.77366  0.69335  0.15729    Cl
C       0.8491   0.0201   0.1009     C
C       0.8491   0.3991   0.5201     C
C       0.8491   0.6009   0.4799     C
C       0.8491   0.9799   0.8991     C
O        0.872    0.073   0.0732     O
O        0.872   0.4268    0.573     O
O        0.872   0.5732    0.427     O
O        0.872    0.927   0.9268     O
O       0.8948   0.0331   0.9134     O
O       0.8948   0.4134   0.4669     O
O       0.8948   0.5866   0.5331     O
O       0.8948   0.9669   0.0866     O
