data_I
_chemical_name_common  '/Users/gianmarcoterrones/Research/MOFs/MOF_structures/water_stability_work_extra_structs/cleaned_from_CCDC/MITSOY'
_cell_length_a 11.06100
_cell_length_b 12.34300
_cell_length_c 16.13600
_cell_angle_alpha 90.00000
_cell_angle_beta  90.00000
_cell_angle_gamma 102.48000
_space_group_name_H-M_alt      'P 1'


loop_
_space_group_symop_operation_xyz
  'x, y, z' 

loop_
_atom_site_label
_atom_site_fract_x
_atom_site_fract_y
_atom_site_fract_z
_atom_site_type_symbol
H       0.0268   0.9125   0.5823     H
C       0.0317   0.8647   0.6262     C
O       0.0374   0.3809   0.1264     O
C       0.0447   0.7212   0.7561     C
C       0.0526    0.645   0.8275     C
C       0.0579   0.2337   0.2528     C
O       0.0599   0.3985  0.96509     O
C       0.0653   0.1606   0.3175     C
H       0.1229   0.2522   0.2153     H
C        0.135     0.82   0.6344     C
C       0.1403   0.7481   0.6997     C
O       0.1525   0.6125   0.8342     O
O       0.1591   0.6703   0.0944     O
O       0.1734   0.0444   0.3862     O
C       0.1771   0.1099   0.3257     C
Zn     0.18843  0.51798  0.92043    Zn
H       0.2095   0.7174   0.7055     H
O       0.2196   0.9016   0.5116     O
O       0.2394   0.3681   0.7749     O
C       0.2424   0.8516   0.5759     C
C       0.2576   0.6484   0.0759     C
O       0.2606   0.1319   0.2749     O
O       0.2804   0.5984   0.0116     O
H       0.2905   0.7826   0.2055     H
Zn     0.31157  0.98202  0.42043    Zn
C       0.3229   0.3901   0.8257     C
O       0.3266   0.4556   0.8862     O
O       0.3409   0.8297   0.5944     O
O       0.3475   0.8875   0.3342     O
C       0.3597   0.7519   0.1997     C
C        0.365     0.68   0.1344     C
H       0.3771   0.2478   0.7153     H
C       0.4347   0.3394   0.8175     C
O       0.4401   0.1015  0.46509     O
C       0.4421   0.2663   0.7528     C
C       0.4474    0.855   0.3275     C
C       0.4553   0.7788   0.2561     C
O       0.4626   0.1191   0.6264     O
C       0.4683   0.6353   0.1262     C
H       0.4732   0.5875   0.0823     H
H       0.5268   0.4125   0.9177     H
C       0.5317   0.3647   0.8738     C
O       0.5374   0.8809   0.3736     O
C       0.5447   0.2212   0.7439     C
C       0.5526    0.145   0.6725     C
C       0.5579   0.7337   0.2472     C
O       0.5599   0.8985  0.53491     O
C       0.5653   0.6606   0.1825     C
H       0.6229   0.7522   0.2847     H
C        0.635     0.32   0.8656     C
C       0.6403   0.2481   0.8003     C
O       0.6525   0.1125   0.6658     O
O       0.6591   0.1703   0.4056     O
O       0.6734   0.5444   0.1138     O
C       0.6771   0.6099   0.1743     C
Zn     0.68843  0.01798  0.57957    Zn
H       0.7095   0.2174   0.7945     H
O       0.7196   0.4016   0.9884     O
O       0.7394   0.8681   0.7251     O
C       0.7424   0.3516   0.9241     C
C       0.7576   0.1484   0.4241     C
O       0.7606   0.6319   0.2251     O
O       0.7804   0.0984   0.4884     O
H       0.7905   0.2826   0.2945     H
Zn     0.81157  0.48202  0.07957    Zn
C       0.8229   0.8901   0.6743     C
O       0.8266   0.9556   0.6138     O
O       0.8409   0.3297   0.9056     O
O       0.8475   0.3875   0.1658     O
C       0.8597   0.2519   0.3003     C
C        0.865     0.18   0.3656     C
H       0.8771   0.7478   0.7847     H
C       0.9347   0.8394   0.6825     C
O       0.9401   0.6015  0.03491     O
C       0.9421   0.7663   0.7472     C
C       0.9474    0.355   0.1725     C
C       0.9553   0.2788   0.2439     C
O       0.9626   0.6191   0.8736     O
C       0.9683   0.1353   0.3738     C
H       0.9732   0.0875   0.4177     H
