data_I
_chemical_name_common  '/Users/gianmarcoterrones/Research/MOFs/MOF_structures/water_stability_work_extra_structs/cleaned_from_CoRE/MITTAL_charged'
_cell_length_a 10.22350
_cell_length_b 12.98940
_cell_length_c 30.48700
_cell_angle_alpha 90.00000
_cell_angle_beta  91.99300
_cell_angle_gamma 90.00000
_space_group_name_H-M_alt      'P 1'


loop_
_space_group_symop_operation_xyz
  'x, y, z' 

loop_
_atom_site_label
_atom_site_fract_x
_atom_site_fract_y
_atom_site_fract_z
_atom_site_type_symbol
C       0.0009   0.6714  0.79673     C
C       0.0009   0.8286  0.29673     C
O       0.0084   0.6053  0.82689     O
O       0.0084   0.8947  0.32689     O
O        0.068   0.5713  0.48608     O
O        0.068   0.9287  0.98608     O
H       0.0788   0.1785   0.2598     H
H       0.0788   0.3215   0.7598     H
O       0.0985   0.7053  0.77882     O
O       0.0985   0.7947  0.27882     O
O       0.1228   0.6015   0.5581     O
O       0.1228   0.8985   0.0581     O
C       0.1348   0.2082  0.71711     C
C       0.1348   0.2918  0.21711     C
C        0.143   0.6106  0.51634     C
C        0.143   0.8894  0.01634     C
C       0.1508   0.2114  0.24836     C
C       0.1508   0.2886  0.74836     C
H       0.1692   0.7042   0.4389     H
H       0.1692   0.7958   0.9389     H
C       0.2105   0.7424  0.46113     C
C       0.2105   0.7576  0.96113     C
C       0.2126   0.7076  0.50363     C
C       0.2126   0.7924  0.00363     C
O       0.2209  0.02475  0.29327     O
O       0.2209  0.47525  0.79327     O
H        0.228   0.1115   0.6788     H
H        0.228   0.3885   0.1788     H
Cd     0.22919   0.6195  0.81561    Cd
Cd     0.22919   0.8805  0.31561    Cd
C       0.2404   0.1632  0.69968     C
C       0.2404   0.3368  0.19968     C
O       0.2453   0.6854  0.87534     O
O       0.2453   0.8146  0.37534     O
C       0.2711   0.6643  0.95162     C
C       0.2711   0.8357  0.45162     C
C       0.2724   0.6238  0.90483     C
C       0.2724   0.8762  0.40483     C
C        0.277   0.7369  0.03636     C
C        0.277   0.7631  0.53636     C
C        0.279   0.1834  0.26135     C
C        0.279   0.3166  0.76135     C
H       0.2822   0.7373   0.5648     H
H       0.2822   0.7627   0.0648     H
C       0.2979   0.0976  0.29508     C
C       0.2979   0.4024  0.79508     C
O       0.3029  0.53282  0.89939     O
O       0.3029  0.96718  0.39939     O
C       0.3273   0.6058  0.98417     C
C       0.3273   0.8942  0.48417     C
C       0.3344   0.6423  0.02702     C
C       0.3344   0.8577  0.52702     C
H        0.361   0.5413   0.9777     H
H        0.361   0.9587   0.4777     H
C       0.3695   0.1931  0.71253     C
C       0.3695   0.3069  0.21253     C
C       0.3864   0.2316  0.24486     C
C       0.3864   0.2684  0.74486     C
O       0.3959  0.10875  0.32098     O
O       0.3959  0.39125  0.82098     O
C       0.4009   0.5772  0.06184     C
C       0.4009   0.9228  0.56184     C
O       0.4033  0.66118  0.79269     O
O       0.4033  0.83882  0.29269     O
O       0.4111   0.0172  0.55653     O
O       0.4111   0.4828  0.05653     O
O       0.4455   0.6263   0.0953     O
O       0.4455   0.8737   0.5953     O
Cd     0.45517  0.02324   0.3702    Cd
Cd     0.45517  0.47676   0.8702    Cd
O       0.4559   0.0883  0.65849     O
O       0.4559   0.4117  0.15849     O
H       0.4701   0.2142   0.2552     H
H       0.4701   0.2858   0.7552     H
C       0.4836   0.1445  0.69087     C
C       0.4836   0.3555  0.19087     C
C       0.5164   0.6445  0.80913     C
C       0.5164   0.8555  0.30913     C
H       0.5299   0.7142   0.2448     H
H       0.5299   0.7858   0.7448     H
O       0.5441   0.5883  0.84151     O
O       0.5441   0.9117  0.34151     O
Cd     0.54483  0.52324   0.1298    Cd
Cd     0.54483  0.97676   0.6298    Cd
O       0.5545   0.1263   0.4047     O
O       0.5545   0.3737   0.9047     O
O       0.5889   0.5172  0.94347     O
O       0.5889   0.9828  0.44347     O
O       0.5967  0.16118  0.70731     O
O       0.5967  0.33882  0.20731     O
C       0.5991   0.0772  0.43816     C
C       0.5991   0.4228  0.93816     C
O       0.6041  0.60875  0.17902     O
O       0.6041  0.89125  0.67902     O
C       0.6136   0.7316  0.25514     C
C       0.6136   0.7684  0.75514     C
C       0.6305   0.6931  0.78747     C
C       0.6305   0.8069  0.28747     C
H        0.639   0.0413   0.5223     H
H        0.639   0.4587   0.0223     H
C       0.6656   0.1423  0.47298     C
C       0.6656   0.3577  0.97298     C
C       0.6727   0.1058  0.51583     C
C       0.6727   0.3942  0.01583     C
O       0.6971  0.03282  0.60061     O
O       0.6971  0.46718  0.10061     O
C       0.7021   0.5976  0.20492     C
C       0.7021   0.9024  0.70492     C
H       0.7178   0.2373   0.9352     H
H       0.7178   0.2627   0.4352     H
C        0.721   0.6834  0.23865     C
C        0.721   0.8166  0.73865     C
C        0.723   0.2369  0.46364     C
C        0.723   0.2631  0.96364     C
C       0.7276   0.1238  0.59517     C
C       0.7276   0.3762  0.09517     C
C       0.7289   0.1643  0.54838     C
C       0.7289   0.3357  0.04838     C
O       0.7547   0.1854  0.62466     O
O       0.7547   0.3146  0.12466     O
C       0.7596   0.6632  0.80032     C
C       0.7596   0.8368  0.30032     C
Cd     0.77081   0.1195  0.68439    Cd
Cd     0.77081   0.3805  0.18439    Cd
H        0.772   0.6115   0.8212     H
H        0.772   0.8885   0.3212     H
O       0.7791  0.52475  0.20673     O
O       0.7791  0.97525  0.70673     O
C       0.7874   0.2076  0.99637     C
C       0.7874   0.2924  0.49637     C
C       0.7895   0.2424  0.03887     C
C       0.7895   0.2576  0.53887     C
H       0.8308   0.2042   0.0611     H
H       0.8308   0.2958   0.5611     H
C       0.8492   0.7114  0.25164     C
C       0.8492   0.7886  0.75164     C
C        0.857   0.1106  0.98366     C
C        0.857   0.3894  0.48366     C
C       0.8652   0.7082  0.78289     C
C       0.8652   0.7918  0.28289     C
O       0.8772   0.1015   0.9419     O
O       0.8772   0.3985   0.4419     O
O       0.9015   0.2053  0.72118     O
O       0.9015   0.2947  0.22118     O
H       0.9212   0.6785   0.2402     H
H       0.9212   0.8215   0.7402     H
O        0.932   0.0713  0.01392     O
O        0.932   0.4287  0.51392     O
O       0.9916   0.1053  0.67311     O
O       0.9916   0.3947  0.17311     O
C       0.9991   0.1714  0.70327     C
C       0.9991   0.3286  0.20327     C
