data_I
_chemical_name_common  '/Users/gianmarcoterrones/Research/MOFs/MOF_structures/water_stability_work_extra_structs/cleaned_from_CoRE/MIXYOJ_clean'
_cell_length_a 16.58600
_cell_length_b 16.58600
_cell_length_c 18.12400
_cell_angle_alpha 90.00000
_cell_angle_beta  90.00000
_cell_angle_gamma 120.00000
_space_group_name_H-M_alt      'P 1'


loop_
_space_group_symop_operation_xyz
  'x, y, z' 

loop_
_atom_site_label
_atom_site_fract_x
_atom_site_fract_y
_atom_site_fract_z
_atom_site_type_symbol
C        0.003   0.5804   0.0727     C
C        0.009   0.5834   0.9122     C
C        0.011   0.5906   0.1581     C
C        0.012   0.5883   0.8278     C
C       0.0293   0.9389   0.2981     C
C       0.0296   0.9362    0.688     C
H        0.039    0.795   0.9298     H
H       0.0416   0.8018   0.1757     H
H       0.0425     0.57   0.5542     H
H       0.0437   0.5725    0.436     H
C       0.0474   0.6285   0.0733     C
C       0.0524    0.638   0.8428     C
C       0.0534   0.6405   0.9195     C
C       0.0559   0.8614   0.3019     C
C        0.059     0.75   0.9142     C
H       0.0592   0.5848   0.0498     H
C       0.0596    0.863    0.687     C
C       0.0611   0.0904   0.2981     C
C        0.062    0.757   0.1612     C
H       0.0627   0.8056   0.0529     H
C       0.0638   0.0934    0.688     C
H       0.0646   0.8013   0.8078     H
C       0.0677 0.73436667   0.4518     C
H       0.0685   0.7918   0.4359     H
H       0.0687   0.5958   0.9338     H
C        0.069    0.749   0.8305     C
C       0.0701   0.7327   0.5372     C
C        0.071    0.756   0.0766     C
H       0.0737   0.6045   0.1734     H
H       0.0739   0.6014   0.8103     H
H       0.0769   0.7919   0.5561     H
H       0.0833   0.6065   0.0488     H
H       0.0913   0.6207    0.817     H
C       0.0919   0.0269   0.6862     C
C       0.0926   0.0274   0.2971     C
H        0.093   0.6248   0.9461     H
O       0.1046   0.2518   0.6913     O
O       0.1061   0.2519   0.2959     O
O       0.1141   0.6657   0.6824     O
O       0.1157   0.6682    0.305     O
H       0.1182   0.7661   0.9398     H
H       0.1231   0.7771   0.1848     H
H        0.125   0.7372   0.4327     H
H       0.1258   0.7299   0.5529     H
H       0.1302   0.7564   0.8174     H
H       0.1323   0.7644   0.0616     H
C        0.137   0.1966    0.687     C
C       0.1386   0.1945   0.3019     C
O       0.1458   0.8939   0.2959     O
O       0.1472   0.8954   0.6913     O
H       0.1563   0.0465   0.6836     H
H       0.1571   0.0473   0.2959     H
H       0.1763   0.5542   0.6869     H
H       0.1789   0.5547   0.2893     H
O       0.1845   0.4107   0.2925     O
O       0.1874   0.4138   0.6928     O
H       0.1944   0.2571   0.0529     H
C       0.1968   0.7275   0.2962     C
H       0.1982   0.2398   0.1757     H
C       0.1984   0.7275   0.6847     C
H       0.1987   0.2633   0.8078     H
H        0.205    0.244   0.9298     H
H       0.2081    0.285   0.5561     H
H       0.2082   0.2767   0.4359     H
O        0.219   0.2172   0.3041     O
O       0.2192   0.2189   0.6834     O
H       0.2229    0.346   0.1848     H
O       0.2262   0.8155   0.2925     O
O       0.2264   0.8126   0.6928     O
H       0.2339   0.3521   0.9398     H
H       0.2356   0.3679   0.0616     H
C       0.2405   0.5993   0.6907     C
C        0.243    0.305   0.1612     C
C        0.243   0.6003   0.2928     C
H       0.2436   0.3738   0.8174     H
C        0.244    0.315   0.0766     C
C         0.25    0.309   0.9142     C
C        0.251     0.32   0.8305     C
H       0.2628   0.3878   0.4327     H
C       0.2657   0.3334   0.4518     C
C       0.2673   0.3374   0.5372     C
C       0.2696   0.6968   0.6935     C
H       0.2701   0.3959   0.5529     H
C       0.2706    0.695   0.2953     C
C       0.2725   0.4693   0.2962     C
C       0.2725   0.4709   0.6847     C
H       0.2849   0.1915   0.1695     H
H       0.2887   0.1977   0.0405     H
H       0.2918   0.1925   0.0651     H
H       0.2937   0.1935    0.944     H
H       0.2962   0.1911   0.5534     H
H       0.2978   0.1945   0.4335     H
H       0.2978   0.1959   0.8149     H
C       0.3032   0.5728   0.6935     C
C        0.305   0.5756   0.2953     C
H        0.306   0.1944   0.9233     H
C       0.3069   0.2494    0.145     C
C       0.3092   0.2531   0.0684     C
C       0.3111   0.2498   0.9182     C
C       0.3136   0.2512   0.8415     C
H       0.3155   0.1998   0.1887     H
H       0.3195   0.2039   0.7976     H
O       0.3318   0.4475    0.305     O
C       0.3341   0.3307   0.9572     C
O       0.3343   0.4484   0.6824     O
N       0.3361   0.3313   0.0598     N
N        0.337   0.3305   0.1858     N
N        0.339   0.3335   0.8038     N
Ni     0.34498  0.33308  0.30419    Ni
Ni     0.34506  0.33343  0.68363    Ni
N       0.3458   0.3326   0.4185     N
N       0.3459   0.3326   0.5715     N
C       0.3505   0.2501   0.5366     C
C       0.3511   0.2532   0.4519     C
C       0.3573    0.757   0.2928     C
C       0.3581    0.255   0.9071     C
C       0.3588   0.7595   0.6907     C
C        0.359     0.26   0.1648     C
C       0.3595   0.4129   0.9195     C
C        0.362   0.4144   0.8428     C
C        0.364    0.264    0.821     C
C       0.3692   0.4152   0.1499     C
C       0.3715   0.4189   0.0733     C
H       0.3752   0.4682   0.9461     H
H       0.3758   0.8211   0.2893     H
H       0.3779   0.8237   0.6869     H
H       0.3793   0.4706    0.817     H
H       0.3897   0.4706   0.1778     H
H       0.3935   0.4768   0.0488     H
H       0.3986   0.4725   0.8103     H
C       0.3997   0.6427   0.2928     C
C       0.4007   0.6412   0.6907     C
H       0.4042   0.4729   0.9338     H
H       0.4076    0.251   0.5539     H
H       0.4086   0.2555   0.4342     H
C       0.4117   0.4237   0.8278     C
H       0.4152   0.4744   0.0498     H
O       0.4165   0.2573   0.6893     O
C       0.4166   0.4256   0.9122     C
O       0.4168    0.258   0.2996     O
H       0.4173   0.2642   0.9285     H
C       0.4196   0.4226   0.0727     C
H       0.4232   0.2781   0.1791     H
C       0.4244   0.7294   0.2953     C
C       0.4264    0.414   0.4532     C
C       0.4272   0.7304   0.6935     C
H       0.4274   0.2837   0.8034     H
H       0.4275   0.4712    0.436     H
C       0.4279   0.4149   0.5367     C
H         0.43   0.4725   0.5542     H
H       0.4453   0.6242   0.2893     H
H       0.4458   0.6221   0.6869     H
H       0.4721   0.4365   0.8068     H
H       0.4776   0.4244   0.0566     H
H       0.4777   0.4356   0.9303     H
H       0.4842   0.4168   0.4354     H
H       0.4857   0.4169   0.5537     H
O       0.4913   0.4079   0.2959     O
O       0.4914    0.409   0.6897     O
C       0.4927    0.333   0.2984     C
C        0.494   0.3352   0.6887     C
H       0.5232   0.9167   0.0488     H
H       0.5256   0.9408   0.0498     H
H       0.5264   0.1943   0.2953     H
H       0.5271   0.9313   0.9338     H
H       0.5275   0.9261   0.8103     H
H       0.5275   0.9575   0.5542     H
H       0.5276   0.1933   0.6945     H
H       0.5288   0.9563    0.436     H
C       0.5291   0.8016   0.6847     C
H       0.5294   0.9087    0.817     H
H       0.5294   0.9191   0.1778     H
C       0.5307   0.8032   0.2962     C
H       0.5318    0.907   0.9461     H
O       0.5516   0.8859   0.6824     O
O       0.5525   0.8843    0.305     O
H       0.5635   0.0356   0.8068     H
H       0.5644   0.0421   0.9303     H
H       0.5649   0.0348   0.1808     H
C       0.5744    0.991   0.9122     C
H       0.5756   0.0532   0.0566     H
C       0.5763    0.988   0.8278     C
C       0.5774    0.997   0.0727     C
C       0.5796    0.989   0.1581     C
C       0.5804   0.3341   0.2957     C
C       0.5811   0.9526   0.0733     C
C       0.5818   0.3322   0.6932     C
H       0.5831   0.0688   0.5537     H
H       0.5832   0.0674   0.4354     H
C        0.584   0.2514   0.2956     C
C       0.5846   0.2509   0.6937     C
C       0.5851    0.013   0.5367     C
C       0.5856   0.9476   0.8428     C
C        0.586   0.0124   0.4532     C
O       0.5862   0.7736   0.6928     O
C       0.5871   0.9466   0.9195     C
O       0.5893   0.7738   0.2925     O
O        0.591   0.0824   0.6897     O
O       0.5921   0.0834   0.2959     O
H       0.6041   0.8742   0.5529     H
H       0.6122    0.875   0.4327     H
H       0.6262   0.8698   0.8174     H
H       0.6321   0.8677   0.0616     H
H       0.6479   0.8818   0.9398     H
H        0.654   0.8769   0.1848     H
C       0.6622   0.0036   0.0325     C
C       0.6626   0.9299   0.5372     C
C       0.6648   0.1588   0.6887     C
H       0.6657   0.4724   0.6945     H
C       0.6659   0.2463   0.2957     C
C       0.6663   0.4154   0.6937     C
N       0.6665   0.0055   0.8038     N
Ni     0.66657  0.01163  0.68363    Ni
C       0.6666   0.9323   0.4518     C
Ni     0.66692   0.0119  0.30419    Ni
C        0.667   0.1597   0.2984     C
N       0.6674   0.0132   0.4185     N
N       0.6674   0.0133   0.5715     N
C       0.6674    0.416   0.2956     C
N       0.6678   0.0104   0.9259     N
C       0.6678   0.2496   0.6932     C
H       0.6679   0.4736   0.2953     H
N       0.6695   0.0065   0.1858     N
C         0.68    0.931   0.8305     C
C        0.685    0.929   0.0766     C
C        0.691    0.941   0.9142     C
C        0.695    0.938   0.1612     C
H        0.715   0.9231   0.5561     H
H       0.7163   0.1437   0.8034     H
H       0.7219   0.1451   0.1791     H
H       0.7233   0.9315   0.4359     H
H       0.7358   0.1531   0.9285     H
C        0.736      0.1    0.821     C
H       0.7367   0.9354   0.8078     H
C         0.74    0.099   0.1648     C
O        0.742   0.1588   0.2996     O
O       0.7427   0.1592   0.6893     O
H       0.7429   0.9373   0.0529     H
H       0.7445   0.1531   0.4342     H
C        0.745   0.1031   0.9071     C
C       0.7468   0.0979   0.4519     C
C       0.7469   0.0561   0.0684     C
O       0.7481   0.8542   0.2959     O
O       0.7482   0.8528   0.6913     O
C       0.7486   0.3326   0.2956     C
C       0.7488   0.0624   0.8415     C
H        0.749   0.1566   0.5539     H
C       0.7491   0.3337   0.6937     C
C       0.7499   0.1004   0.5366     C
C       0.7502   0.0613   0.9182     C
C       0.7504   0.4182   0.6932     C
C       0.7506   0.0575    0.145     C
C       0.7537   0.4196   0.2957     C
H        0.756    0.961   0.9298     H
H       0.7602   0.9584   0.1757     H
O       0.7811   0.0003   0.6834     O
O       0.7828   0.0018   0.3041     O
H       0.7961   0.1156   0.7976     H
H       0.8002   0.1157   0.1887     H
H       0.8023    0.091   0.0405     H
C       0.8034   0.9404    0.687     C
H       0.8041   0.1019   0.8149     H
H       0.8055   0.1033   0.4335     H
C       0.8055   0.9441   0.3019     C
H       0.8056   0.1116   0.9233     H
H       0.8057   0.3321   0.2953     H
H       0.8065   0.1002    0.944     H
H       0.8067   0.3343   0.6945     H
H       0.8075   0.0993   0.0651     H
H       0.8085   0.0934   0.1695     H
H       0.8089   0.1051   0.5534     H
C       0.8403   0.5073   0.2984     C
O       0.8408   0.5835   0.6893     O
C       0.8412    0.506   0.6887     C
O       0.8412   0.5832   0.2996     O
H       0.8434   0.5924   0.5539     H
H       0.8469   0.5827   0.9285     H
H       0.8469   0.5914   0.4342     H
H       0.8535    0.597   0.0556     H
H       0.8549   0.5768   0.1791     H
H       0.8563   0.5726   0.8034     H
H       0.8843   0.6845   0.1887     H
H       0.8844   0.6805   0.7976     H
H       0.8884    0.694   0.9233     H
H       0.8902   0.8429   0.2959     H
H       0.8902   0.8437   0.6836     H
H       0.8949   0.7038   0.5534     H
H       0.8967   0.7022   0.4335     H
C       0.8969   0.6419   0.9071     C
H       0.8981   0.7022   0.8149     H
C       0.8996   0.6495   0.5366     C
H       0.8998   0.7063    0.944     H
C          0.9    0.636    0.821     C
H       0.9007   0.7082   0.0651     H
C        0.901    0.641   0.1648     C
C       0.9021   0.6489   0.4519     C
C        0.905    0.653   0.0796     C
H       0.9066   0.7151   0.1695     H
C       0.9066   0.9704    0.688     C
H        0.909   0.7113   0.0405     H
C       0.9096   0.9707   0.2981     C
O       0.9166   0.5087   0.2959     O
O       0.9176   0.5086   0.6897     O
H       0.9312   0.5143   0.5537     H
H       0.9326   0.5158   0.4354     H
C       0.9348   0.9074   0.2971     C
C        0.935   0.9081   0.6862     C
C       0.9376   0.6864   0.8415     C
C       0.9387   0.6889   0.9182     C
C       0.9425   0.6931    0.145     C
H       0.9468   0.5224   0.0566     H
H       0.9527   0.1098   0.2959     H
H       0.9535   0.1098   0.6836     H
H       0.9579   0.5223   0.9303     H
H       0.9644   0.5279   0.8068     H
H       0.9652   0.5301   0.1808     H
C       0.9726   0.0652   0.2971     C
C       0.9731    0.065   0.6862     C
N       0.9867   0.6541   0.5715     N
N       0.9868   0.6542   0.4185     N
C        0.987   0.5721   0.5367     C
C       0.9876   0.5736   0.4532     C
Ni      0.9881  0.65502  0.30419    Ni
Ni     0.98837  0.65494  0.68363    Ni
N       0.9896   0.6574   0.9259     N
N       0.9935    0.663   0.1858     N
N       0.9945    0.661   0.8038     N
N       0.9952   0.6639   0.0598     N
O       0.9982    0.781   0.3041     O
O       0.9997   0.7808   0.6834     O
