data_I
_chemical_name_common  '/Users/gianmarcoterrones/Downloads/MOF-801-SC'
_cell_length_a 12.67906
_cell_length_b 12.67906
_cell_length_c 12.67906
_cell_angle_alpha 60.00000
_cell_angle_beta  60.00000
_cell_angle_gamma 60.00000
_space_group_name_H-M_alt      'P 1'


loop_
_space_group_symop_operation_xyz
  'x, y, z' 

loop_
_atom_site_label
_atom_site_fract_x
_atom_site_fract_y
_atom_site_fract_z
_atom_site_type_symbol
C      0.01608  0.35166  0.66338     C
C      0.01608  0.66338  0.96888     C
C      0.01608  0.96888  0.35166     C
C      0.03498   0.4667  0.54004     C
C      0.03498  0.54004  0.95828     C
C      0.03498  0.95828   0.4667     C
O      0.06798  0.04952  0.08504     O
O      0.06798  0.08504  0.79746     O
O      0.06798  0.79746  0.04952     O
O       0.0842  0.29068  0.94178     O
O       0.0842  0.68334  0.29068     O
O       0.0842  0.94178  0.68334     O
O      0.10035  0.29911  0.72109     O
O      0.10035  0.72109  0.87945     O
O      0.10035  0.87945  0.29911     O
H       0.1071  0.50322  0.51858     H
H       0.1071  0.51858   0.8711     H
H       0.1071   0.8711  0.50322     H
Zr     0.13274  0.13236  0.88544    Zr
Zr     0.13274  0.84946  0.13236    Zr
Zr     0.13274  0.88544  0.84946    Zr
O      0.20103  0.93299  0.93299     O
O      0.29474  0.07776  0.93928     O
O      0.29474  0.68822  0.07776     O
O      0.29474  0.93928  0.68822     O
O     0.295505 0.104915 0.717285     O
O     0.295505 0.717285 0.882295     O
O     0.295505 0.882295 0.104915     O
H      0.29646  0.90118  0.90118     H
C      0.34287  0.97621  0.02663     C
C     0.342875 0.026635 0.654285     C
C     0.342875 0.654285 0.976205     C
C      0.46257  0.04107  0.53591     C
C      0.46257  0.53591  0.96045     C
C      0.46257  0.96045  0.04107     C
H     0.496375 0.129325 0.894325     H
H     0.496375 0.479975 0.129325     H
H      0.49638  0.89432  0.47998     H
H      0.49671  0.11535  0.51361     H
H      0.49671  0.51361  0.87433     H
H      0.49671  0.87433  0.11535     H
C      0.53048   0.0433   0.9687     C
C      0.53048  0.45752   0.0433     C
C      0.53048   0.9687  0.45752     C
C      0.65168  0.02646  0.98122     C
C      0.65168  0.34064  0.02646     C
C      0.65168  0.98122  0.34064     C
O     0.700925 0.118735 0.900355     O
O      0.70093  0.27999  0.11873     O
O      0.70093  0.90035  0.27999     O
O        0.701  0.06738  0.30742     O
O        0.701  0.30742   0.9242     O
O        0.701   0.9242  0.06738     O
O      0.79729  0.06757  0.06757     O
Zr     0.86715  0.11589  0.14941    Zr
Zr     0.86715  0.14941  0.86755    Zr
Zr     0.86715  0.86755  0.11589    Zr
H       0.9001  0.13598  0.48864     H
H       0.9001  0.47528  0.13598     H
H       0.9001  0.48864  0.47528     H
H     0.900325 0.880645 0.296475     H
H     0.900325 0.922555 0.880645     H
H      0.90033  0.29647  0.92255     H
O       0.9031  0.12404   0.6966     O
O       0.9031  0.27626  0.12404     O
O       0.9031   0.6966  0.27626     O
O      0.92042   0.0629   0.3112     O
O      0.92042   0.3112  0.70548     O
O      0.92042  0.70548   0.0629     O
O      0.93242   0.2012  0.94956     O
O      0.93242  0.91682   0.2012     O
O      0.93242  0.94956  0.91682     O
C      0.97235  0.04885  0.52501     C
C      0.97235  0.45379  0.04885     C
C      0.97235  0.52501  0.45379     C
C       0.9896   0.0368   0.6417     C
C       0.9896   0.3319   0.0368     C
C       0.9896   0.6417   0.3319     C
