data_I
_chemical_name_common  '/Users/gianmarcoterrones/Downloads/MOF-505'
_cell_length_a 18.48268
_cell_length_b 18.48268
_cell_length_c 24.71320
_cell_angle_alpha 90.00000
_cell_angle_beta  90.00000
_cell_angle_gamma 120.00000
_space_group_name_H-M_alt      'P 1'


loop_
_space_group_symop_operation_xyz
  'x, y, z' 

loop_
_atom_site_label
_atom_site_fract_x
_atom_site_fract_y
_atom_site_fract_z
_atom_site_type_symbol
C      0.02534 0.5126514 0.9741117     C
C     0.0264716  0.24273 0.791081     C
C     0.0264716 0.7837416 0.791081     C
O     0.0290316 0.4402112 0.430317     O
O     0.0290316 0.588811 0.430317     O
H     0.033833 0.407767 0.966267     H
H     0.033833 0.626067 0.966267     H
O     0.038181 0.2235915 0.837617     O
O     0.038181 0.8145911 0.837617     O
H       0.0406   0.2995   0.2996     H
H       0.0406   0.7411   0.2996     H
Cu    0.04797716 0.52398911 0.54373714    Cu
C     0.0481918  0.45953 0.9495911     C
C     0.0481918 0.5886516 0.9495911     C
C     0.0559216 0.2417017 0.234531     C
C     0.0559216  0.81423 0.234531     C
H     0.074433 0.367167 0.367067     H
H     0.074433 0.707267 0.367067     H
O     0.077851 0.3043116 0.763657     O
O     0.077851 0.7735512 0.763657     O
C     0.0780216 0.2851418 0.2829211     C
C     0.0780216  0.79293 0.2829211     C
C      0.09063 0.4504116 0.457751     C
C      0.09063 0.6402016 0.457751     C
C     0.0916317  0.48093 0.901201     C
C     0.0916317 0.6107516 0.901201     C
H        0.096    0.192   0.1762     H
H        0.096    0.904   0.1762     H
O     0.102861 0.2057215 0.9461412     O
O     0.102861 0.897141 0.9461412     O
O     0.1068812 0.3623616 0.903027     O
O     0.1068812 0.744521 0.903027     O
O     0.1097415 0.4812611 0.504287     O
O     0.1097415 0.628491 0.504287     O
C     0.1103311  0.88963 0.2098216     C
C      0.11043  0.22072 0.2098216     C
C      0.11262 0.5563411 0.8764916     C
C     0.1170716  0.42393 0.875591     C
C     0.1170716 0.6931416 0.875591     C
C      0.12623 0.3815318 0.3837511     C
C      0.12623 0.7446916 0.3837511     C
O     0.1276115 0.563811 0.6128112     O
H     0.141333 0.570667 0.842867     H
Cu    0.14267811 0.28535616 0.87707014    Cu
Cu    0.14267811 0.85732211 0.87707014    Cu
C      0.14763 0.4249717 0.432141     C
C      0.14763 0.7225916 0.432141     C
O     0.1479211 0.4430815 0.829067     O
O     0.1479211 0.704851 0.829067     O
C     0.1540214  0.84604 0.3074417     C
C      0.15404  0.30804 0.3074417     C
C     0.1793114  0.82064 0.3592317     C
C      0.17944  0.35874 0.3592317     C
O     0.1854111 0.2235915 0.837617     O
O     0.1854111 0.961821 0.837617     O
C      0.18583 0.2417017 0.234531     C
C      0.18583 0.9440816 0.234531     C
Cu    0.19065511 0.38131116 0.78959714    Cu
Cu    0.19065511 0.80934511 0.78959714    Cu
H        0.192    0.096   0.8238     H
O     0.2057215 0.102861 0.0538612     O
C      0.20713 0.2851418 0.2829211     C
C      0.20713 0.9219816 0.2829211     C
C     0.2162616  0.24273 0.791081     C
C     0.2162616 0.9735316 0.791081     C
C      0.22072 0.1103311 0.7901816     C
C     0.2230011  0.77703 0.4568516     C
C      0.22303  0.44602 0.4568516     C
O     0.2235915 0.038181 0.162397     O
O     0.2235915 0.1854111 0.162397     O
O     0.2264512 0.3043116 0.763657     O
O     0.2264512 0.922151 0.763657     O
O     0.230471 0.4609515 0.7205312     O
O     0.230471 0.769531 0.7205312     O
H     0.237333 0.474667 0.490467     H
H     0.237333 0.762667 0.490467     H
C     0.2417017 0.0559216 0.765471     C
C     0.2417017  0.18583 0.765471     C
C      0.24273 0.0264716 0.208921     C
C      0.24273 0.2162616 0.208921     C
C     0.2553116 0.3815318 0.3837511     C
C     0.2553116  0.87383 0.3837511     C
O     0.255481 0.3623616 0.903027     O
O     0.255481 0.8931212 0.903027     O
H       0.2589   0.2995   0.2996     H
H       0.2589   0.9594   0.2996     H
C     0.2774116 0.4249717 0.432141     C
C     0.2774116  0.85243 0.432141     C
C     0.2851418 0.0780216 0.7170811     C
C     0.2851418  0.20713 0.7170811     C
Cu    0.28535616 0.14267811 0.12293014    Cu
H     0.292733 0.367167 0.367067     H
H     0.292733 0.925567 0.367067     H
O     0.295151 0.4430815 0.829067     O
O     0.295151 0.8520811 0.829067     O
H       0.2995   0.0406   0.7004     H
H       0.2995   0.2589   0.7004     H
O     0.3043116 0.077851 0.236357     O
O     0.3043116 0.2264512 0.236357     O
C     0.3068616  0.42393 0.875591     C
C     0.3068616 0.8829316 0.875591     C
C      0.30804 0.1540214 0.6925617     C
C      0.35874 0.1793114 0.6407717     C
C     0.3598016 0.4504116 0.457751     C
C     0.3598016  0.90943 0.457751     C
O     0.3623616 0.1068812 0.096987     O
O     0.3623616 0.255481 0.096987     O
H     0.367167 0.074433 0.632933     H
H     0.367167 0.292733 0.632933     H
O     0.371511 0.4812611 0.504287     O
O     0.371511 0.8902615 0.504287     O
H     0.373933 0.407767 0.966267     H
H     0.373933 0.966167 0.966267     H
Cu    0.38131116 0.19065511 0.21040314    Cu
C     0.3815318  0.12623 0.6162511     C
C     0.3815318 0.2553116 0.6162511     C
C     0.3892516  0.48093 0.901201     C
C     0.3892516 0.9083717 0.901201     C
H     0.407767 0.033833 0.033733     H
H     0.407767 0.373933 0.033733     H
O     0.411191 0.4402112 0.430317     O
O     0.411191 0.9709716 0.430317     O
C     0.4113516  0.45953 0.9495911     C
C     0.4113516 0.9518118 0.9495911     C
C      0.42393 0.1170716 0.124411     C
C      0.42393 0.3068616 0.124411     C
C     0.4249717  0.14763 0.567861     C
C     0.4249717 0.2774116 0.567861     C
H     0.429333 0.570667 0.842867     H
H     0.429333 0.858667 0.842867     H
O     0.436191 0.563811 0.6128112     O
O     0.436191 0.8723915 0.6128112     O
O     0.4402112 0.0290316 0.569697     O
O     0.4402112 0.411191 0.569697     O
O     0.4430815 0.1479211 0.170947     O
O     0.4430815 0.295151 0.170947     O
C     0.4436611  0.55633 0.8764916     C
C      0.44373  0.88742 0.8764916     C
C      0.44602 0.2230011 0.5431516     C
C     0.4504116  0.09063 0.542251     C
C     0.4504116 0.3598016 0.542251     C
C      0.45953 0.0481918 0.0504111     C
C      0.45953 0.4113516 0.0504111     C
O     0.4609515 0.230471 0.2794712     O
H     0.474667 0.237333 0.509533     H
Cu    0.47601111 0.52398911 0.54373714    Cu
Cu    0.47601111 0.95202316 0.54373714    Cu
C      0.48093 0.0916317 0.098801     C
C      0.48093 0.3892516 0.098801     C
O     0.4812611 0.1097415 0.495727     O
O     0.4812611 0.371511 0.495727     O
C      0.48734  0.97474 0.9741117     C
C     0.4873514  0.51274 0.9741117     C
C     0.5126514  0.48734 0.0258917     C
C      0.51274  0.02534 0.0258917     C
O     0.5187411 0.628491 0.504287     O
O     0.5187411 0.8902615 0.504287     O
C      0.51913 0.6107516 0.901201     C
C      0.51913 0.9083717 0.901201     C
Cu    0.52398911 0.04797716 0.45626314    Cu
Cu    0.52398911 0.47601111 0.45626314    Cu
H     0.525333 0.762667 0.490467     H
O     0.5390515 0.769531 0.7205312     O
C      0.54053 0.5886516 0.9495911     C
C      0.54053 0.9518118 0.9495911     C
C     0.5495916 0.6402016 0.457751     C
C     0.5495916  0.90943 0.457751     C
C      0.55402 0.7770011 0.4568516     C
C      0.55633  0.11262 0.1235116     C
C     0.5563411  0.44373 0.1235116     C
O     0.5569215 0.704851 0.829067     O
O     0.5569215 0.8520811 0.829067     O
O     0.5597912 0.588811 0.430317     O
O     0.5597912 0.9709716 0.430317     O
O     0.563811 0.1276115 0.3871912     O
O     0.563811 0.436191 0.3871912     O
H     0.570667 0.141333 0.157133     H
H     0.570667 0.429333 0.157133     H
C     0.5750317 0.7225916 0.432141     C
C     0.5750317  0.85243 0.432141     C
C      0.57613 0.6931416 0.875591     C
C      0.57613 0.8829316 0.875591     C
C     0.5886516 0.0481918 0.0504111     C
C     0.5886516  0.54053 0.0504111     C
O     0.588811 0.0290316 0.569697     O
O     0.588811 0.5597912 0.569697     O
H     0.592233 0.626067 0.966267     H
H     0.592233 0.966167 0.966267     H
C     0.6107516 0.0916317 0.098801     C
C     0.6107516  0.51913 0.098801     C
C     0.6184718 0.7446916 0.3837511     C
C     0.6184718  0.87383 0.3837511     C
Cu    0.61868916 0.80934511 0.78959714    Cu
H     0.626067 0.033833 0.033733     H
H     0.626067 0.592233 0.033733     H
O     0.628491 0.1097415 0.495727     O
O     0.628491 0.5187411 0.495727     O
H     0.632833 0.707267 0.367067     H
H     0.632833 0.925567 0.367067     H
O     0.6376416 0.744521 0.903027     O
O     0.6376416 0.8931212 0.903027     O
C     0.6402016  0.09063 0.542251     C
C     0.6402016 0.5495916 0.542251     C
C      0.64134 0.8206914 0.3592317     C
C      0.69204 0.8459814 0.3074417     C
C     0.6931416 0.1170716 0.124411     C
C     0.6931416  0.57613 0.124411     C
O     0.6956916 0.7735512 0.763657     O
O     0.6956916 0.922151 0.763657     O
H       0.7005   0.7411   0.2996     H
H       0.7005   0.9594   0.2996     H
O     0.704851 0.1479211 0.170947     O
O     0.704851 0.5569215 0.170947     O
H     0.707267 0.074433 0.632933     H
H     0.707267 0.632833 0.632933     H
Cu    0.71464416 0.85732211 0.87707014    Cu
C     0.7148618  0.79293 0.2829211     C
C     0.7148618 0.9219816 0.2829211     C
C     0.7225916  0.14763 0.567861     C
C     0.7225916 0.5750317 0.567861     C
H       0.7411   0.0406   0.7004     H
H       0.7411   0.7005   0.7004     H
O     0.744521 0.1068812 0.096987     O
O     0.744521 0.6376416 0.096987     O
C     0.7446916  0.12623 0.6162511     C
C     0.7446916 0.6184718 0.6162511     C
C      0.75733 0.7837416 0.791081     C
C      0.75733 0.9735316 0.791081     C
C     0.7583017  0.81423 0.234531     C
C     0.7583017 0.9440816 0.234531     C
H     0.762667 0.237333 0.509533     H
H     0.762667 0.525333 0.509533     H
O     0.769531 0.230471 0.2794712     O
O     0.769531 0.5390515 0.2794712     O
O     0.7735512 0.077851 0.236357     O
O     0.7735512 0.6956916 0.236357     O
O     0.7764115 0.8145911 0.837617     O
O     0.7764115 0.961821 0.837617     O
C     0.7770011  0.22303 0.5431516     C
C      0.77703  0.55402 0.5431516     C
C      0.77932 0.8896711 0.2098216     C
C     0.7837416 0.0264716 0.208921     C
C     0.7837416  0.75733 0.208921     C
C      0.79293 0.0780216 0.7170811     C
C      0.79293 0.7148618 0.7170811     C
O     0.7942815 0.897141 0.9461412     O
H        0.808    0.904   0.1762     H
Cu    0.80934511 0.19065511 0.21040314    Cu
Cu    0.80934511 0.61868916 0.21040314    Cu
C      0.81423 0.0559216 0.765471     C
C      0.81423 0.7583017 0.765471     C
O     0.8145911 0.038181 0.162397     O
O     0.8145911 0.7764115 0.162397     O
C      0.82064  0.64134 0.6407717     C
C     0.8206914  0.17944 0.6407717     C
C     0.8459814  0.15404 0.6925617     C
C      0.84604  0.69204 0.6925617     C
O     0.8520811 0.295151 0.170947     O
O     0.8520811 0.5569215 0.170947     O
C      0.85243 0.2774116 0.567861     C
C      0.85243 0.5750317 0.567861     C
Cu    0.85732211 0.14267811 0.12293014    Cu
Cu    0.85732211 0.71464416 0.12293014    Cu
H     0.858667 0.429333 0.157133     H
O     0.8723915 0.436191 0.3871912     O
C      0.87383 0.2553116 0.6162511     C
C      0.87383 0.6184718 0.6162511     C
C     0.8829316 0.3068616 0.124411     C
C     0.8829316  0.57613 0.124411     C
C      0.88742 0.4436611 0.1235116     C
C      0.88963  0.77932 0.7901816     C
C     0.8896711  0.11043 0.7901816     C
O     0.8902615 0.371511 0.495727     O
O     0.8902615 0.5187411 0.495727     O
O     0.8931212 0.255481 0.096987     O
O     0.8931212 0.6376416 0.096987     O
O     0.897141 0.102861 0.0538612     O
O     0.897141 0.7942815 0.0538612     O
H        0.904    0.096   0.8238     H
H        0.904    0.808   0.8238     H
C     0.9083717 0.3892516 0.098801     C
C     0.9083717  0.51913 0.098801     C
C      0.90943 0.3598016 0.542251     C
C      0.90943 0.5495916 0.542251     C
C     0.9219816  0.20713 0.7170811     C
C     0.9219816 0.7148618 0.7170811     C
O     0.922151 0.2264512 0.236357     O
O     0.922151 0.6956916 0.236357     O
H     0.925567 0.292733 0.632933     H
H     0.925567 0.632833 0.632933     H
C     0.9440816  0.18583 0.765471     C
C     0.9440816 0.7583017 0.765471     C
C     0.9518118 0.4113516 0.0504111     C
C     0.9518118  0.54053 0.0504111     C
Cu    0.95202316 0.47601111 0.45626314    Cu
H       0.9594   0.2589   0.7004     H
H       0.9594   0.7005   0.7004     H
O     0.961821 0.1854111 0.162397     O
O     0.961821 0.7764115 0.162397     O
H     0.966167 0.373933 0.033733     H
H     0.966167 0.592233 0.033733     H
O     0.9709716 0.411191 0.569697     O
O     0.9709716 0.5597912 0.569697     O
C     0.9735316 0.2162616 0.208921     C
C     0.9735316  0.75733 0.208921     C
C      0.97474 0.4873514 0.0258917     C
