data_I
_chemical_name_common  '/Users/gianmarcoterrones/Downloads/MOF-841'
_cell_length_a 14.67667
_cell_length_b 14.67667
_cell_length_c 28.00331
_cell_angle_alpha 90.00000
_cell_angle_beta  90.00000
_cell_angle_gamma 90.00000
_space_group_name_H-M_alt      'P 1'


loop_
_space_group_symop_operation_xyz
  'x, y, z' 

loop_
_atom_site_label
_atom_site_fract_x
_atom_site_fract_y
_atom_site_fract_z
_atom_site_type_symbol
Zr        -0.5      0.5 0.412282    Zr
Zr        -0.5      0.5 0.587722    Zr
O     -0.427614   0.0842 -0.007813     O
O     -0.37722  0.53612 0.371991     O
O     -0.37722  0.53612 0.628011     O
C     -0.352215   0.0562 -0.02319     C
Zr    -0.337894 0.553584      0.5    Zr
C     -0.29724  0.55354 0.3854516     C
C     -0.29724  0.55354 0.6145516     C
H       -0.296   0.4667   0.3027     H
H       -0.296   0.4667   0.6973     H
O     -0.29314  0.02105      0.0     O
O     -0.27352  0.57314 0.4269012     O
O     -0.27352  0.57314 0.5731012     O
O     -0.257311 0.182913  0.07615     O
C      -0.2392   0.2252  0.03728     C
C     -0.2382716  0.49414 0.3079311     C
C     -0.2382716  0.49414 0.6920711     C
O     -0.22652 -0.07314 -0.0731012     O
O     -0.22652 -0.07314 0.0731012     O
O     -0.22574 -0.18854      0.0     O
C      -0.2252  -0.2392 -0.03728     C
C     -0.2242016  0.54822 0.347989     C
C     -0.2242016  0.54822 0.652029     C
O     -0.18854  0.22574      0.0     O
O     -0.182913 -0.257311 -0.07615     O
H      -0.1774   0.4431   0.2482     H
H      -0.1774   0.4431   0.7518     H
C     -0.16782  0.48012 0.275579     C
C     -0.16782  0.48012 0.724439     C
Zr    -0.162114 -0.053584      0.0    Zr
Zr    -0.162114 -0.053584      1.0    Zr
Zr    -0.162114 0.946424      0.0    Zr
C     -0.13972  0.58842 0.355689     C
C     -0.13972  0.58842 0.644329     C
H      -0.1301   0.6254   0.3831     H
H      -0.1301   0.6254   0.6169     H
H      -0.1254   0.3699   0.1169     H
H      -0.1254   0.3699   0.8831     H
O     -0.12405  0.06295 -0.04744     O
O     -0.12405  0.06295  0.04744     O
O     -0.12282 -0.03612 0.128011     O
O     -0.12282 -0.03612 0.871991     O
H      -0.1019   0.4885   0.1714     H
H      -0.1019   0.4885   0.8286     H
C     -0.08842  0.36032 0.144329     C
C     -0.08842  0.36032 0.855689     C
O      -0.0842 0.572414 -0.007813     O
C     -0.0833216  0.52032 0.283269     C
C     -0.0833216  0.52032 0.716749     C
C     -0.07442 0.4307516 0.176681     C
C     -0.07442 0.4307516 0.823321     C
O     -0.07314  0.22652 -0.0731012     O
O     -0.07314  0.22652 0.0731012     O
C     -0.0692516  0.57442 0.323321     C
C     -0.0692516  0.57442 0.676681     C
O     -0.06295 -0.12405 -0.04744     O
O     -0.06295 -0.12405  0.04744     O
H      -0.0569   0.6774   0.2518     H
H      -0.0569   0.6774   0.7482     H
C      -0.0562 0.647815 -0.02319     C
Zr    -0.053584 0.162114      0.0    Zr
Zr    -0.053584 0.162114      1.0    Zr
C     -0.05354  0.20284 0.1145516     C
C     -0.05354  0.20284 0.8854516     C
C     -0.04822 0.2758016 0.152029     C
C     -0.04822 0.2758016 0.847989     C
O     -0.03612  0.12282 0.128011     O
O     -0.03612  0.12282 0.871991     O
H      -0.0333    0.796   0.1973     H
H      -0.0333    0.796   0.8027     H
O     -0.02105  0.70694      0.0     O
C     -0.02032 0.4166816 0.216749     C
C     -0.02032 0.4166816 0.783269     C
C     -0.01992  0.66782 0.224439     C
C     -0.01992  0.66782 0.775579     C
H      -0.0115   0.6019   0.3286     H
H      -0.0115   0.6019   0.6714     H
C     -0.00594 0.7382716 0.1920711     C
C     -0.00594 0.7382716 0.8079311     C
Zr         0.0      0.0 -0.087722    Zr
Zr         0.0      0.0 0.087722    Zr
Zr         0.0      0.0 0.912282    Zr
C          0.0      0.5     0.25     C
C          0.0      0.5     0.75     C
Zr         0.0      1.0 -0.087722    Zr
Zr         0.0      1.0 0.087722    Zr
Zr         0.0      1.0 0.912282    Zr
C      0.00594 0.2617316 0.1920711     C
C      0.00594 0.2617316 0.8079311     C
H       0.0115   0.3981   0.3286     H
H       0.0115   0.3981   0.6714     H
C      0.01992  0.33222 0.224439     C
C      0.01992  0.33222 0.775579     C
C      0.02032 0.5833216 0.216749     C
C      0.02032 0.5833216 0.783269     C
O      0.02105  0.29314      0.0     O
H       0.0333    0.204   0.1973     H
H       0.0333    0.204   0.8027     H
O      0.03612 -0.12282 0.128011     O
O      0.03612 -0.12282 0.871991     O
C      0.04822 0.7242016 0.152029     C
C      0.04822 0.7242016 0.847989     C
C      0.05354  0.79724 0.1145516     C
C      0.05354  0.79724 0.8854516     C
Zr    0.053584 -0.162114      0.0    Zr
Zr    0.053584 -0.162114      1.0    Zr
Zr    0.053584 0.837894      0.0    Zr
Zr    0.053584 0.837894      1.0    Zr
C       0.0562 0.352215  0.02319     C
H       0.0569   0.3226   0.2518     H
H       0.0569   0.3226   0.7482     H
O      0.06295  0.12405 -0.04744     O
O      0.06295  0.12405  0.04744     O
C     0.0692516  0.42562 0.323321     C
C     0.0692516  0.42562 0.676681     C
O     0.072414   0.5842 0.507813     O
O      0.07314  0.77352 -0.0731012     O
O      0.07314  0.77352 0.0731012     O
C      0.07442 0.5692516 0.176681     C
C      0.07442 0.5692516 0.823321     C
C     0.0833216  0.47972 0.283269     C
C     0.0833216  0.47972 0.716749     C
O       0.0842 0.427614 0.007813     O
C      0.08842  0.63972 0.144329     C
C      0.08842  0.63972 0.855689     C
H       0.1019   0.5115   0.1714     H
H       0.1019   0.5115   0.8286     H
O      0.12282  0.03612 0.128011     O
O      0.12282  0.03612 0.871991     O
O      0.12405 -0.06295 -0.04744     O
O      0.12405 -0.06295  0.04744     O
H       0.1254   0.6301   0.1169     H
H       0.1254   0.6301   0.8831     H
H       0.1301   0.3746   0.3831     H
H       0.1301   0.3746   0.6169     H
C      0.13972  0.41162 0.355689     C
C      0.13972  0.41162 0.644329     C
C     0.147815   0.5562  0.52319     C
Zr    0.162114 0.053584      0.0    Zr
Zr    0.162114 0.053584      1.0    Zr
Zr    0.162114 1.053584      0.0    Zr
C      0.16782  0.51992 0.275579     C
C      0.16782  0.51992 0.724439     C
H       0.1774   0.5569   0.2482     H
H       0.1774   0.5569   0.7518     H
O     0.182913 0.257311 -0.07615     O
O      0.18854  0.77434      0.0     O
C      0.20284  0.05354 0.1145516     C
C      0.20284  0.05354 0.8854516     C
H        0.204  -0.0333   0.1973     H
H        0.204  -0.0333   0.8027     H
O      0.20694  0.52105      0.5     O
C     0.2242016  0.45182 0.347989     C
C     0.2242016  0.45182 0.652029     C
C       0.2252   0.2392 -0.03728     C
O      0.22574  0.18854      0.0     O
O      0.22652  0.07314 -0.0731012     O
O      0.22652  0.07314 0.0731012     O
C     0.2382716  0.50594 0.3079311     C
C     0.2382716  0.50594 0.6920711     C
C       0.2392   0.7752  0.03728     C
O     0.242711 0.682913  0.57615     O
O     0.257311 0.817113  0.07615     O
C       0.2612   0.7252  0.53728     C
C     0.2617316 -0.00594 0.1920711     C
C     0.2617316 -0.00594 0.8079311     C
O      0.27352  0.42694 0.4269012     O
O      0.27352  0.42694 0.5731012     O
O      0.27434  0.31154      0.5     O
C       0.2752   0.2612  0.53728     C
C     0.2758016  0.04822 0.152029     C
C     0.2758016  0.04822 0.847989     C
O      0.29314 -0.02105      0.0     O
H        0.296   0.5333   0.3027     H
H        0.296   0.5333   0.6973     H
C      0.29724  0.44654 0.3854516     C
C      0.29724  0.44654 0.6145516     C
O      0.31154  0.72574      0.5     O
O     0.317113 0.242711  0.57615     O
H       0.3226  -0.0569   0.2518     H
H       0.3226  -0.0569   0.7482     H
C      0.33222 -0.01992 0.224439     C
C      0.33222 -0.01992 0.775579     C
Zr    0.337894 0.446424      0.5    Zr
C     0.352215  -0.0562  0.02319     C
C      0.36032  0.08842 0.144329     C
C      0.36032  0.08842 0.855689     C
H       0.3699   0.1254   0.1169     H
H       0.3699   0.1254   0.8831     H
H       0.3746  -0.1301   0.3831     H
H       0.3746  -0.1301   0.6169     H
O      0.37605  0.56295  0.45264     O
O      0.37605  0.56295  0.54744     O
O      0.37722  0.46392 0.371991     O
O      0.37722  0.46392 0.628011     O
H       0.3981  -0.0115   0.3286     H
H       0.3981  -0.0115   0.6714     H
C      0.41162 -0.13972 0.355689     C
C      0.41162 -0.13972 0.644329     C
O       0.4162 0.072414 0.507813     O
C     0.4166816  0.02032 0.216749     C
C     0.4166816  0.02032 0.783269     C
C      0.42562 -0.0692516 0.323321     C
C      0.42562 -0.0692516 0.676681     C
O      0.42694 -0.27352 0.4269012     O
O      0.42694 -0.27352 0.5731012     O
O     0.427614  -0.0842 0.007813     O
C     0.4307516  0.07442 0.176681     C
C     0.4307516  0.07442 0.823321     C
O      0.43715  0.37605  0.45264     O
O      0.43715  0.37605  0.54744     O
H       0.4431   0.1774   0.2482     H
H       0.4431   0.1774   0.7518     H
C       0.4442 0.147815  0.52319     C
Zr    0.446424 -0.337894      0.5    Zr
Zr    0.446424 0.662114      0.5    Zr
C      0.44654 -0.29724 0.3854516     C
C      0.44654 -0.29724 0.6145516     C
C      0.45182 -0.2242016 0.347989     C
C      0.45182 -0.2242016 0.652029     C
O      0.46392 -0.37722 0.371991     O
O      0.46392 -0.37722 0.628011     O
H       0.4667    0.296   0.3027     H
H       0.4667    0.296   0.6973     H
O      0.47905  0.20694      0.5     O
C      0.47972 -0.0833216 0.283269     C
C      0.47972 -0.0833216 0.716749     C
C      0.48012  0.16782 0.275579     C
C      0.48012  0.16782 0.724439     C
H       0.4885   0.1019   0.1714     H
H       0.4885   0.1019   0.8286     H
C      0.49414 0.2382716 0.3079311     C
C      0.49414 0.2382716 0.6920711     C
Zr         0.5     -0.5 0.412282    Zr
Zr         0.5     -0.5 0.587722    Zr
C          0.5      0.0     0.25     C
C          0.5      0.0     0.75     C
Zr         0.5      0.5 0.412282    Zr
Zr         0.5      0.5 0.587722    Zr
C      0.50594 -0.2382716 0.3079311     C
C      0.50594 -0.2382716 0.6920711     C
H       0.5115  -0.1019   0.1714     H
H       0.5115  -0.1019   0.8286     H
C      0.51992 -0.16782 0.275579     C
C      0.51992 -0.16782 0.724439     C
C      0.52032 0.0833216 0.283269     C
C      0.52032 0.0833216 0.716749     C
O      0.52105  0.79314      0.5     O
H       0.5333   -0.296   0.3027     H
H       0.5333   -0.296   0.6973     H
O      0.53612  0.37722 0.371991     O
O      0.53612  0.37722 0.628011     O
C      0.54822 0.2242016 0.347989     C
C      0.54822 0.2242016 0.652029     C
C      0.55354  0.29724 0.3854516     C
C      0.55354  0.29724 0.6145516     C
Zr    0.553584 0.337894      0.5    Zr
C       0.5562 0.852215  0.47699     C
H       0.5569  -0.1774   0.2482     H
H       0.5569  -0.1774   0.7518     H
O      0.56295  0.62405  0.45264     O
O      0.56295  0.62405  0.54744     O
C     0.5692516 -0.07442 0.176681     C
C     0.5692516 -0.07442 0.823321     C
O      0.57314  0.27352 0.4269012     O
O      0.57314  0.27352 0.5731012     O
C      0.57442 0.0692516 0.323321     C
C      0.57442 0.0692516 0.676681     C
C     0.5833216 -0.02032 0.216749     C
C     0.5833216 -0.02032 0.783269     C
O       0.5842 0.927614 0.492213     O
C      0.58842  0.13972 0.355689     C
C      0.58842  0.13972 0.644329     C
H       0.6019   0.0115   0.3286     H
H       0.6019   0.0115   0.6714     H
O      0.62405  0.43715  0.45264     O
O      0.62405  0.43715  0.54744     O
H       0.6254   0.1301   0.3831     H
H       0.6254   0.1301   0.6169     H
H       0.6301  -0.1254   0.1169     H
H       0.6301  -0.1254   0.8831     H
C      0.63972 -0.08842 0.144329     C
C      0.63972 -0.08842 0.855689     C
Zr    0.662114 0.553584      0.5    Zr
C      0.66782  0.01992 0.224439     C
C      0.66782  0.01992 0.775579     C
H       0.6774   0.0569   0.2518     H
H       0.6774   0.0569   0.7482     H
O     0.682913 0.757311  0.57615     O
O      0.68854  0.27434      0.5     O
C     0.7242016 -0.04822 0.152029     C
C     0.7242016 -0.04822 0.847989     C
C       0.7252   0.7392  0.53728     C
O      0.72574  0.68854      0.5     O
C     0.7382716  0.00594 0.1920711     C
C     0.7382716  0.00594 0.8079311     C
C       0.7392   0.2752  0.53728     C
O     0.757311 0.317113  0.57615     O
O      0.79314  0.47905      0.5     O
H        0.796   0.0333   0.1973     H
H        0.796   0.0333   0.8027     H
C      0.79724 -0.05354 0.1145516     C
C      0.79724 -0.05354 0.8854516     C
Zr    0.837894 -0.053584      0.0    Zr
Zr    0.837894 -0.053584      1.0    Zr
C     0.852215   0.4442  0.47699     C
O     0.927614   0.4162 0.492213     O
Zr         1.0      0.0 0.087722    Zr
Zr         1.0      0.0 0.912282    Zr
