data_I
_chemical_name_common  '/Users/gianmarcoterrones/Downloads/MOOFOUR-1-N'
_cell_length_a 21.08569
_cell_length_b 21.08569
_cell_length_c 17.96788
_cell_angle_alpha 90.00000
_cell_angle_beta  90.00000
_cell_angle_gamma 120.00000
_space_group_name_H-M_alt      'P 1'


loop_
_space_group_symop_operation_xyz
  'x, y, z' 

loop_
_atom_site_label
_atom_site_fract_x
_atom_site_fract_y
_atom_site_fract_z
_atom_site_type_symbol
H          0.0 0.452567 0.136733     H
H          0.0 0.452567 0.863267     H
Mo         0.0 0.7916689      0.0    Mo
Ni       3e-06 0.62070416      0.5    Ni
Ni       3e-06 0.62070516      0.5    Ni
N     0.001689 0.606431 0.879459     N
H       0.0109   0.8388   0.8189     H
O     0.012839 0.749249 0.921248     O
C     0.0144313 0.5000718 0.1185916     C
H     0.018267 0.732933 0.613833     H
C     0.0194912 0.5568312 0.8560113     C
H     0.021067 0.519933 0.601333     H
H     0.024733 0.248567 0.385667     H
C     0.0248716 0.1728417  0.32282     C
C     0.0294217 0.7490512 0.4034212     C
C      0.03042 0.5216314 0.4051714     C
H       0.0376 0.833333 0.341467     H
H     0.040533 0.448567 0.340067     H
Ni    0.04596216 0.71262916 0.833333    Ni
H        0.048   0.6484   0.2805     H
C     0.0481716  0.19033 0.7100318     C
H       0.0489   0.1045   0.7624     H
C     0.0529611 0.6372417 0.0700812     C
H     0.053233 0.151067 0.309367     H
C     0.0536413 0.8567713 0.7889716     C
C     0.0543513 0.2289216 0.3698517     C
H       0.0556   0.9511   0.7624     H
H     0.057433 0.571567 0.820067     H
N     0.060241 0.7285914 0.212789     N
N     0.0619214 0.726911 0.453899     N
C     0.0628719 0.8197713 0.3760313     C
N     0.0633815 0.5812811 0.4485211     N
H     0.066267 0.684933 0.052833     H
C      0.06683 0.4914717  0.36952     C
O     0.0697413 0.653849 0.587918     O
C     0.0705612 0.5329817 0.0659413     C
H       0.0747   0.2928   0.6734     H
C     0.0761416  0.15603 0.7551118     C
O     0.0773212 0.877731 0.0144014     O
C     0.0798616 0.9238616 0.7551118     C
C     0.0823812 0.6960917 0.2632512     C
O     0.082579 0.679509 0.745438     O
H     0.084767 0.442833 0.052333     H
N     0.0853911 0.815441 0.7818511     N
C     0.0902313 0.6037919 0.0426913     C
C     0.0913016  0.26653  0.70282     C
H       0.0951   0.8192   0.1534     H
H     0.097833 0.946767 0.309367     H
C     0.1044216  0.49213 0.0365117     C
H       0.1045   0.0489   0.2376     H
H       0.1095   0.4181    0.281     H
C     0.1098412 0.7960017 0.1893413     C
H     0.115233 0.373867 0.993267     H
H     0.119233 0.333333   0.1966     H
H     0.119233 0.333333 0.470067     H
O     0.122271 0.1995916 0.0144014     O
Mo    0.1250019 0.666667 0.666667    Mo
H     0.129067 0.629067 0.008133     H
C     0.1290912 0.2627812 0.3992813     C
C     0.1293317 0.7765112 0.4773313     C
C     0.1336817 0.8709112 0.3992813     C
O     0.1337416 0.5893512 0.6810714     O
C     0.1364619 0.6130313 0.4556416     C
C     0.1421816 0.9518316 0.7100318     C
C      0.14303 0.5244916 0.3767018     C
C     0.1432313 0.1968719 0.7889716     C
C     0.1450414 0.8421114 0.7385014     C
H     0.146733 0.834467 0.934667     H
C      0.14803 0.9751316  0.32282     C
N     0.148771 0.7520611 0.8848211     N
H     0.151067 0.053233 0.690633     H
C     0.1523112 0.3189113 0.4519316     C
H     0.152533 0.761767 0.513267     H
C     0.1531013 0.7295419 0.2906413     C
C      0.15603 0.0761416 0.2448918     C
C     0.1578914  0.30292 0.7385014     C
C     0.1581317  0.40023  0.96392     C
C      0.15883 0.4377516 0.2968217     C
C     0.1605017  0.51873  0.98942     C
H       0.1612   0.1721   0.8189     H
H     0.161233 0.655767 0.485567     H
H     0.165533 0.312267 0.934667     H
C     0.1665918 0.8476912 0.4519316     C
H     0.166667 0.204267 0.341467     H
H     0.166667 0.704267   0.3252     H
C     0.1667418 0.3477613 0.2147416     C
H       0.1678   0.8134    0.732     H
H       0.1721   0.1612   0.1811     H
H     0.172133 0.677567 0.847767     H
C     0.1728417 0.0248716  0.67722     C
C      0.17463 0.9456513 0.3698517     C
C     0.1752017 0.9087016  0.70282     C
C     0.1754414 0.8117114 0.9281714     C
C      0.17733 0.5868116 0.4217818     C
C     0.1802313 0.2431113 0.3760313     C
H       0.1808   0.2759   0.1534     H
C     0.1810212 0.8332618 0.2147416     C
H     0.182267 0.568833 0.976033     H
N     0.184561 0.2699515 0.7818511     N
C      0.18543 0.4938317  0.34392     C
H       0.1866   0.3544    0.732     H
C     0.1882914  0.36372 0.9281714     C
C     0.1901013 0.7203113 0.8777016     C
C      0.19033 0.0481716 0.2899718     C
C     0.1911516  0.47633 0.9566418     C
C     0.1968719 0.1432313 0.2110316     C
O     0.1995916 0.122271 0.9856014     O
C     0.1996517 0.4038912 0.2673913     C
C     0.2040017 0.3138412 0.1893413     C
C     0.2042412 0.8003517 0.2673913     C
H     0.204267 0.166667 0.658533     H
Mo    0.2083329 0.2083329      0.0    Mo
O     0.211061 0.7439912 0.6522714     O
H       0.2141 0.880767   0.1966     H
H       0.2141 0.880767 0.470067     H
H       0.2181   0.9253   0.6734     H
C     0.2234912 0.3528312 0.4773313     C
H     0.223833 0.975267 0.385667     H
H     0.228833 0.611067 0.429067     H
C     0.2289216 0.0543513 0.6301517     C
H       0.2355   0.5156   0.3573     H
H     0.238233 0.390767 0.513267     H
C     0.2420316 0.8418717  0.96392     C
C     0.2431113 0.1802313 0.6239713     C
N     0.2479411 0.3967215 0.8848211     N
H     0.248567 0.024733 0.614333     H
O     0.250769 0.2635913 0.921248     O
C     0.2509512 0.2803811 0.4034212     C
C     0.2534716  0.51073 0.9115618     C
O     0.2560112 0.4670816 0.6522714     O
C     0.2571916 0.7465316 0.9115618     C
H     0.258633 0.884767 0.993267     H
C     0.2627812 0.1290912 0.6007213     C
O     0.2635913 0.250769 0.078768     O
C      0.26653 0.0913016  0.29722     C
H     0.267067 0.285333 0.613833     H
N     0.2699515 0.184561 0.2181511     N
C     0.2704619 0.4235613 0.2906413     C
N     0.2714114 0.331659 0.212789     N
N     0.273091 0.335029 0.453899     N
H       0.2759   0.1808   0.8466     H
H     0.277733 0.562167 0.904267     H
C     0.2789813  0.84123 0.2968217     C
C     0.2796913 0.4698019 0.8777016     C
H       0.2801   0.7645   0.3573     H
C     0.2803811 0.2509512 0.5965812     C
H     0.284433 0.722267 0.904267     H
C     0.2851616 0.8088516 0.9566418     C
H     0.285333 0.267067 0.386167     H
Ni    0.28737116 0.333333 0.833333    Ni
H       0.2928   0.0747   0.3266     H
H     0.295733   0.4624   0.3252     H
C      0.30292 0.1578914 0.2615014     C
C     0.3039117 0.3862911 0.2632512     C
C     0.3084616  0.81463  0.34392     C
H       0.3086   0.8905    0.281     H
H     0.312267 0.165533 0.065333     H
C     0.3138412 0.2040017 0.8106613     C
H     0.315067 0.381333 0.052833     H
C     0.3189113 0.1523112 0.5480716     C
O     0.320509 0.4030813 0.745438     O
H     0.322433 0.494567 0.847767     H
N     0.331659 0.2714114 0.787229     N
H     0.333333 0.119233 0.529933     H
H     0.333333 0.119233   0.8034     H
Ni    0.333333 0.28737116 0.166667    Ni
Mo    0.333333 0.4583359 0.666667    Mo
N     0.335029 0.273091 0.546119     N
H     0.344233 0.505467 0.485567     H
O     0.346169 0.415919 0.587918     O
C     0.3477613 0.1667418 0.7852616     C
H       0.3516   0.3996   0.2805     H
C     0.3528312 0.2234912 0.5226713     C
H       0.3544   0.1866    0.268     H
H     0.358067 0.915233 0.052333     H
C     0.3582116 0.8395017  0.98942     C
C     0.3627617 0.4157112 0.0700812     C
C      0.36372 0.1882914 0.0718314     C
H     0.370933      0.5 0.008133     H
H     0.373867 0.115233 0.006733     H
Ni    0.37929616 0.37929516      0.5    Ni
H     0.381333 0.315067 0.947167     H
C     0.3815016  0.85703 0.3767018     C
H     0.382233 0.771167 0.429067     H
C     0.3862911 0.3039117 0.7367512     C
H     0.386567 0.817733 0.976033     H
C     0.3869713 0.5234413 0.4556416     C
C     0.3876913 0.8955816 0.0365117     C
H     0.388933 0.617767 0.429067     H
H     0.390767 0.238233 0.486733     H
N     0.393571 0.3952614 0.879459     N
N     0.3952614 0.393571 0.120559     N
C     0.3962119 0.4864313 0.0426913     C
N     0.3967215 0.2479411 0.1151811     N
H       0.3996   0.3516   0.7195     H
C      0.40023 0.1581317  0.03612     C
O     0.4030813 0.320509 0.254578     O
C     0.4038912 0.1996517 0.7326113     C
H     0.408033 0.959467 0.340067     H
C     0.4094716  0.82273 0.4217818     C
O     0.4106512 0.544401 0.6810714     O
C     0.4131916 0.5905316 0.4217818     C
C     0.4157112 0.3627617 0.9299212     C
O     0.415919 0.346169 0.412098     O
H       0.4181   0.1095    0.719     H
N     0.4187211 0.482111 0.4485211     N
C     0.4235613 0.2704619 0.7093613     C
C     0.4246316  0.93323  0.36952     C
H     0.428433 0.485867 0.820067     H
H     0.431167 0.613433 0.976033     H
C     0.4377516  0.15883 0.7031817     C
H     0.437833 0.715567 0.904267     H
H     0.442833 0.084767 0.947667     H
C     0.4431712 0.4626717 0.8560113     C
H     0.448567 0.040533 0.659933     H
H     0.452567      0.0 0.136733     H
H     0.452567      0.0 0.863267     H
O     0.455601 0.8662616 0.6810714     O
Mo    0.4583359 0.333333 0.333333    Mo
H       0.4624 0.295733   0.6748     H
C     0.4624312 0.9294412 0.0659413     C
C     0.4626717 0.4431712 0.1439913     C
C     0.4670217 0.5375712 0.0659413     C
O     0.4670816 0.2560112 0.3477314     O
C     0.4698019 0.2796913 0.1223016     C
C     0.4755116 0.6185016 0.3767018     C
C      0.47633 0.1911516 0.0433618     C
C     0.4765613 0.8635419 0.4556416     C
C     0.4783714 0.5087814 0.4051714     C
H     0.480067 0.501133 0.601333     H
C      0.48133 0.6417916  0.98942     C
N     0.482111 0.4187211 0.5514811     N
H       0.4844   0.7199   0.3573     H
C     0.4856512 0.9855713 0.1185916     C
H     0.485867 0.428433 0.179933     H
C     0.4864313 0.3962119 0.9573113     C
C      0.48933 0.7428116 0.9115618     C
C     0.4912214  0.96962 0.4051714     C
C     0.4914717  0.06683  0.63052     C
C      0.49213 0.1044216 0.9634917     C
C     0.4938317  0.18543  0.65612     C
H     0.494533 0.838767 0.485567     H
H     0.494567 0.322433 0.152233     H
H     0.498867 0.978933 0.601333     H
C     0.4999318 0.5143512 0.1185916     C
H          0.5 0.370933 0.991867     H
H          0.5 0.870933 0.008133     H
C     0.5000718 0.0144313 0.8814116     C
H     0.501133 0.480067 0.398667     H
H     0.505433 0.827867 0.847767     H
H     0.505467 0.344233 0.514433     H
C     0.5061717 0.6915416  0.34392     C
C      0.50793 0.6123113 0.0365117     C
C     0.5085317 0.5753716  0.36952     C
C     0.5087814 0.4783714 0.5948314     C
C      0.51073 0.2534716 0.0884418     C
C     0.5135713 0.9097713 0.0426913     C
H     0.514133 0.942567 0.820067     H
C     0.5143512 0.4999318 0.8814116     C
H       0.5156   0.2355   0.6427     H
N     0.517891 0.9366215 0.4485211     N
C      0.51873 0.1605017  0.01062     C
H     0.519933 0.021067 0.398667     H
C     0.5216314  0.03042 0.5948314     C
C     0.5234413 0.3869713 0.5443616     C
C      0.52373 0.7148416 0.9566418     C
C     0.5244916  0.14303 0.6233018     C
C     0.5302019 0.8099013 0.8777016     C
O     0.5329216 0.788941 0.6522714     O
C     0.5329817 0.0705612 0.9340613     C
C     0.5373317 0.9805112 0.8560113     C
C     0.5375712 0.4670217 0.9340613     C
H       0.5376 0.833333   0.3252     H
Mo    0.5416659 0.8749999 0.666667    Mo
O     0.544401 0.4106512 0.3189314     O
H     0.547433 0.547433 0.136733     H
H     0.547433 0.547433 0.863267     H
H     0.551433 0.591967 0.340067     H
C     0.5568312 0.0194912 0.1439913     C
H     0.557167 0.641933 0.052333     H
H     0.562167 0.277733 0.095733     H
C     0.5622516 0.7210213 0.2968217     C
H     0.568833 0.182267 0.023967     H
H     0.571567 0.057433 0.179933     H
C     0.5753716 0.5085317  0.63052     C
C     0.5764413 0.8469013 0.2906413     C
N     0.5812811 0.0633815 0.5514811     N
H       0.5819   0.6914    0.281     H
O     0.584099 0.9302613 0.587918     O
C     0.5842912 0.9470411 0.0700812     C
C     0.5868116  0.17733 0.5782218     C
O     0.5893512 0.1337416 0.3189314     O
C     0.5905316 0.4131916 0.5782218     C
H     0.591967 0.551433 0.659933     H
C     0.5961112 0.7957612 0.2673913     C
O     0.5969213 0.917439 0.745438     O
C      0.59983 0.7579716  0.96392     C
H       0.6004    0.952   0.2805     H
N     0.6032815 0.851231 0.8848211     N
C     0.6037919 0.0902313 0.9573113     C
N     0.6047414 0.998329 0.879459     N
N     0.606431 0.001689 0.120559     N
H     0.609233 0.847467 0.513267     H
H     0.611067 0.228833 0.570933     H
C     0.6123113  0.50793 0.9634917     C
C     0.6130313 0.1364619 0.5443616     C
H     0.613433 0.431167 0.023967     H
C     0.6137111 0.9176212 0.2632512     C
H     0.617767 0.388933 0.570933     H
C     0.6185016 0.4755116 0.6233018     C
H     0.618667 0.933733 0.052833     H
Ni    0.62070416    3e-06      0.5    Ni
Ni    0.62070516    3e-06      0.5    Ni
H     0.626133 0.741367 0.993267     H
H     0.629067 0.129067 0.991867     H
C      0.63632 0.8245614 0.9281714     C
C     0.6372417 0.0529611 0.9299212     C
C     0.6417916  0.48133  0.01062     C
H     0.641933 0.557167 0.947667     H
H       0.6456   0.8322    0.732     H
C     0.6471712 0.8706717 0.4773313     C
H       0.6484    0.048   0.7195     H
C     0.6522413 0.8189812 0.2147416     C
O     0.653849 0.0697413 0.412098     O
H     0.655767 0.161233 0.514433     H
N     0.664989 0.9380814 0.453899     N
Mo    0.666667 0.1250019 0.333333    Mo
H     0.666667   0.7859   0.1966     H
H     0.666667   0.7859 0.470067     H
Ni    0.666673 0.95403816 0.833333    Ni
N     0.668359 0.939761 0.212789     N
H     0.677567 0.172133 0.152233     H
O     0.679509 0.082579 0.254578     O
C     0.6810913 0.8334118 0.4519316     C
H     0.684933 0.066267 0.947167     H
C     0.6861612 0.8901612 0.1893413     C
H     0.687733 0.853267 0.934667     H
H       0.6914   0.5819    0.719     H
C     0.6915416 0.5061717  0.65612     C
C     0.6960917 0.0823812 0.7367512     C
C      0.69712 0.8549614 0.7385014     C
H     0.704267 0.166667   0.6748     H
H       0.7072   0.7819   0.6734     H
Ni    0.71262916 0.04596216 0.166667    Ni
H     0.714667 0.981733 0.613833     H
C     0.7148416  0.52373 0.0433618     C
H     0.715567 0.437833 0.095733     H
C     0.7196211 0.9705817 0.4034212     C
H       0.7199   0.4844   0.6427     H
C     0.7203113 0.1901013 0.1223016     C
C     0.7210213 0.5622516 0.7031817     C
H     0.722267 0.284433 0.095733     H
H       0.7241   0.9049   0.1534     H
N     0.726911 0.0619214 0.546119     N
N     0.7285914 0.060241 0.787229     N
C     0.7295419 0.1531013 0.7093613     C
N     0.7300515 0.9146111 0.7818511     N
H     0.732933 0.018267 0.386167     H
C      0.73353 0.8248017  0.70282     C
O     0.7364113 0.987179 0.921248     O
C     0.7372212 0.8663217 0.3992813     C
H     0.741367 0.626133 0.006733     H
C     0.7428116  0.48933 0.0884418     C
O     0.7439912 0.211061 0.3477314     O
C     0.7465316 0.2571916 0.0884418     C
C     0.7490512 0.0294217 0.5965812     C
O     0.749249 0.012839 0.078768     O
H     0.751433 0.776167 0.385667     H
N     0.7520611 0.148771 0.1151811     N
C     0.7568913 0.9371319 0.3760313     C
C     0.7579716  0.59983  0.03612     C
H     0.761767 0.152533 0.486733     H
H       0.7645   0.2801   0.6427     H
C     0.7710816  0.82543 0.3698517     C
H     0.771167 0.382233 0.570933     H
H     0.776167 0.751433 0.614333     H
C     0.7765112 0.1293317 0.5226713     C
H       0.7819   0.7072   0.3266     H
H       0.7859 0.666667 0.529933     H
H       0.7859 0.666667   0.8034     H
O     0.788941 0.5329216 0.3477314     O
Mo    0.7916689      0.0      0.0    Mo
H     0.795733   0.9624 0.341467     H
C     0.7957612 0.5961112 0.7326113     C
C     0.7960017 0.1098412 0.8106613     C
C     0.8003517 0.2042412 0.7326113     C
O     0.8004116 0.9226812 0.0144014     O
C     0.8031319 0.9463613 0.7889716     C
C     0.8088516 0.2851616 0.0433618     C
C      0.80973 0.8578216 0.7100318     C
C     0.8099013 0.5302019 0.1223016     C
C     0.8117114 0.1754414 0.0718314     C
H       0.8134   0.1678    0.268     H
C      0.81463 0.3084616  0.65612     C
N     0.815441 0.0853911 0.2181511     N
H     0.817733 0.386567 0.023967     H
C     0.8189812 0.6522413 0.7852616     C
H       0.8192   0.0951   0.8466     H
C     0.8197713 0.0628719 0.6239713     C
C      0.82273 0.4094716 0.5782218     C
C     0.8245614  0.63632 0.0718314     C
C     0.8248017  0.73353  0.29722     C
C      0.82543 0.7710816 0.6301517     C
C     0.8271617  0.85203  0.32282     C
H     0.827867 0.505433 0.152233     H
H       0.8279   0.9891   0.8189     H
H       0.8322   0.6456    0.268     H
C     0.8332618 0.1810212 0.7852616     C
H     0.833333   0.0376 0.658533     H
H     0.833333   0.5376   0.6748     H
C     0.8334118 0.6810913 0.5480716     C
H     0.834467 0.146733 0.065333     H
H     0.838767 0.494533 0.514433     H
H       0.8388   0.0109   0.1811     H
C     0.8395017 0.3582116  0.01062     C
C      0.84123 0.2789813 0.7031817     C
C     0.8418717 0.2420316  0.03612     C
C     0.8421114 0.1450414 0.2615014     C
C      0.84403 0.9201416 0.7551118     C
C     0.8469013 0.5764413 0.7093613     C
H     0.847467 0.609233 0.486733     H
C     0.8476912 0.1665918 0.5480716     C
H     0.848933 0.902167 0.309367     H
N     0.851231 0.6032815 0.1151811     N
C      0.85203 0.8271617  0.67722     C
H     0.853267 0.687733 0.065333     H
C     0.8549614  0.69712 0.2615014     C
C     0.8567713 0.0536413 0.2110316     C
C      0.85703 0.3815016 0.6233018     C
C     0.8578216  0.80973 0.2899718     C
C     0.8635419 0.4765613 0.5443616     C
O     0.8662616 0.455601 0.3189314     O
C     0.8663217 0.7372212 0.6007213     C
C     0.8706717 0.6471712 0.5226713     C
C     0.8709112 0.1336817 0.6007213     C
H     0.870933      0.5 0.991867     H
Mo    0.8749999 0.5416659 0.333333    Mo
O     0.877731 0.0773212 0.9856014     O
H     0.880767   0.2141 0.529933     H
H     0.880767   0.2141   0.8034     H
H     0.884767 0.258633 0.006733     H
C     0.8901612 0.6861612 0.8106613     C
H       0.8905   0.3086    0.719     H
H       0.8955   0.9444   0.7624     H
C     0.8955816 0.3876913 0.9634917     C
H     0.902167 0.848933 0.690633     H
H       0.9049   0.7241   0.8466     H
C     0.9087016 0.1752017  0.29722     C
C     0.9097713 0.5135713 0.9573113     C
N     0.9146111 0.7300515 0.2181511     N
H     0.915233 0.358067 0.947667     H
O     0.917439 0.5969213 0.254578     O
C     0.9176212 0.6137111 0.7367512     C
C     0.9201416  0.84403 0.2448918     C
O     0.9226812 0.8004116 0.9856014     O
C     0.9238616 0.0798616 0.2448918     C
H       0.9253   0.2181   0.3266     H
C     0.9294412 0.4624312 0.9340613     C
O     0.9302613 0.584099 0.412098     O
C      0.93323 0.4246316  0.63052     C
H     0.933733 0.618667 0.947167     H
N     0.9366215 0.517891 0.5514811     N
C     0.9371319 0.7568913 0.6239713     C
N     0.9380814 0.664989 0.546119     N
N     0.939761 0.668359 0.787229     N
H     0.942567 0.514133 0.179933     H
H       0.9444   0.8955   0.2376     H
C     0.9456513  0.17463 0.6301517     C
C     0.9463613 0.8031319 0.2110316     C
H     0.946767 0.097833 0.690633     H
C     0.9470411 0.5842912 0.9299212     C
H       0.9511   0.0556   0.2376     H
C     0.9518316 0.1421816 0.2899718     C
H        0.952   0.6004   0.7195     H
Ni    0.95403816 0.666673 0.166667    Ni
H     0.959467 0.408033 0.659933     H
H       0.9624 0.795733 0.658533     H
C      0.96962 0.4912214 0.5948314     C
C     0.9705817 0.7196211 0.5965812     C
C     0.9751316  0.14803  0.67722     C
H     0.975267 0.223833 0.614333     H
H     0.978933 0.498867 0.398667     H
C     0.9805112 0.5373317 0.1439913     C
H     0.981733 0.714667 0.386167     H
C     0.9855713 0.4856512 0.8814116     C
O     0.987179 0.7364113 0.078768     O
H       0.9891   0.8279   0.1811     H
N     0.998329 0.6047414 0.120559     N
