data_I
_chemical_name_common  '/Users/gianmarcoterrones/Research/MOFs/MOF_structures/water_stability_work_extra_structs/cleaned_from_CCDC/MOTRUK'
_cell_length_a 10.09900
_cell_length_b 14.25645
_cell_length_c 14.25645
_cell_angle_alpha 85.69399
_cell_angle_beta  70.52476
_cell_angle_gamma 70.52476
_space_group_name_H-M_alt      'P 1'


loop_
_space_group_symop_operation_xyz
  'x, y, z' 

loop_
_atom_site_label
_atom_site_fract_x
_atom_site_fract_y
_atom_site_fract_z
_atom_site_type_symbol
O       0.0003   0.3656   0.4956     O
N       0.0014   0.0973   0.7403     N
C       0.0045   0.2994   0.8434     C
C       0.0056    0.562   0.3044     C
H       0.0082    0.252   0.8938     H
H       0.0097   0.5146   0.3548     H
C       0.0166   0.1648   0.6878     C
H       0.0291   0.1948   0.1898     H
H       0.0295   0.8327   0.3845     H
H        0.033    0.701   0.0536     H
C        0.034   0.6653   0.1127     C
H       0.0353   0.5256   0.3444     H
C       0.0508   0.8575   0.9499     C
H        0.061   0.2075   0.4073     H
H       0.0642   0.8087   0.3371     H
C       0.0676   0.7623   0.8063     C
H       0.0762   0.0324   0.8536     H
O       0.0804   0.0941   0.0431     O
C       0.0836   0.4211   0.7503     C
C       0.0842   0.3691   0.8367     C
H       0.0977   0.6807   0.6871     H
C        0.101   0.0651   0.7929     C
O        0.106   0.9311   0.2215     O
O       0.1198   0.8721   0.0007     O
C        0.122   0.6635   0.1847     C
N       0.1272   0.5942   0.2586     N
C       0.1305   0.7744   0.8734     C
H        0.131   0.2572    0.615     H
C       0.1324   0.3565   0.4489     C
C       0.1325    0.204   0.6594     C
H       0.1387   0.9949   0.8335     H
C       0.1428   0.6889   0.7333     C
C       0.1565   0.2048   0.3632     C
H       0.1636   0.4447   0.7157     H
H       0.1661   0.2144   0.9392     H
C       0.1756    0.161   0.6154     C
H       0.1898   0.0819   0.2837     H
O       0.1997   0.4103   0.4627     O
H       0.2004   0.1938   0.5548     H
H       0.2035   0.4228   0.6924     H
H       0.2048   0.6855   0.1535     H
C       0.2163   0.2741   0.3735     C
C        0.225   0.3318   0.8712     C
H       0.2317   0.6713   0.1139     H
C       0.2323   0.1304   0.2898     C
C       0.2382   0.0809   0.7569     C
O       0.2467   0.5709   0.2805     O
C        0.247   0.2393   0.9127     C
Ca        0.25  0.55594  0.44406    Ca
Ca        0.25  0.94442  0.05558    Ca
C       0.2508   0.1652   0.6958     C
O       0.2533   0.7195   0.4291     O
C       0.2677   0.7102   0.8696     C
H       0.2683   0.8861   0.3287     H
C       0.2837   0.6265   0.7259     C
H       0.2952   0.8465   0.3145     H
H       0.2965   0.3076   0.5772     H
H       0.2996   0.4452   0.8062     H
O       0.3003   0.5373   0.5897     O
H        0.306   0.0589   0.7929     H
H       0.3102   0.7163   0.9181     H
C       0.3244   0.3846    0.839     C
H       0.3364   0.2843   0.5553     H
C       0.3435   0.6368   0.7952     C
N       0.3474   0.7652   0.4044     N
C       0.3482   0.8515   0.3523     C
C       0.3572   0.2667   0.3111     C
H       0.3613   0.1665   0.0051     H
C       0.3632   0.2109   0.9519     C
C       0.3675   0.3406    0.796     C
C       0.3676   0.5511   0.6435     C
H        0.369    0.385   0.7428     H
C       0.3695   0.1266   0.2256     C
C       0.3743   0.2024   0.6684     C
C       0.3796   0.2763   0.5991     C
O       0.3802   0.9993   0.1279     O
O        0.394   0.7785   0.0689     O
H       0.4023   0.3129   0.3193     H
O       0.4196   0.9569   0.9059     O
H       0.4238   0.1464   0.9676     H
C       0.4324   0.1937   0.2377     C
H       0.4358   0.6629   0.1913     H
H        0.439   0.5927   0.7925     H
C       0.4492   0.0501   0.1425     C
C       0.4618   0.3485   0.8547     C
H       0.4647   0.6556   0.4744     H
C       0.4656   0.7146   0.4388     C
C        0.466   0.8873   0.3347     C
H        0.467   0.9464    0.299     H
H       0.4705   0.6155   0.1673     H
H       0.4709   0.8102   0.8052     H
N       0.4811   0.2473   0.9131     N
H       0.4903   0.6452   0.4854     H
H       0.4918   0.1062    0.748     H
C       0.4955   0.1566   0.7006     C
O       0.4997   0.5044   0.6344     O
O       0.5003   0.4956   0.3656     O
N       0.5014   0.7403   0.0973     N
C       0.5056   0.3044    0.562     C
H       0.5082   0.8938    0.252     H
H       0.5097   0.3548   0.5146     H
C       0.5166   0.6878   0.1648     C
H       0.5291   0.1898   0.1948     H
H       0.5295   0.3845   0.8327     H
H       0.5353   0.3444   0.5256     H
C       0.5508   0.9499   0.8575     C
H        0.561   0.4073   0.2075     H
H       0.5642   0.3371   0.8087     H
C       0.5676   0.8063   0.7623     C
H       0.5762   0.8536   0.0324     H
O       0.5804   0.0431   0.0941     O
C       0.5836   0.7503   0.4211     C
C       0.5842   0.8367   0.3691     C
H       0.5977   0.6871   0.6807     H
C        0.601   0.7929   0.0651     C
O        0.606   0.2215   0.9311     O
O       0.6198   0.0007   0.8721     O
C        0.622   0.1847   0.6635     C
N       0.6272   0.2586   0.5942     N
C       0.6305   0.8734   0.7744     C
H        0.631    0.615   0.2572     H
C       0.6324   0.4489   0.3565     C
C       0.6325   0.6594    0.204     C
H       0.6387   0.8335   0.9949     H
C       0.6428   0.7333   0.6889     C
C       0.6565   0.3632   0.2048     C
H       0.6636   0.7157   0.4447     H
H       0.6661   0.9392   0.2144     H
C       0.6756   0.6154    0.161     C
H       0.6898   0.2837   0.0819     H
O       0.6997   0.4627   0.4103     O
H       0.7004   0.5548   0.1938     H
H       0.7035   0.6924   0.4228     H
H       0.7048   0.1535   0.6855     H
C       0.7163   0.3735   0.2741     C
C        0.725   0.8712   0.3318     C
H       0.7317   0.1139   0.6713     H
C       0.7323   0.2898   0.1304     C
C       0.7382   0.7569   0.0809     C
O       0.7467   0.2805   0.5709     O
C        0.747   0.9127   0.2393     C
Ca        0.75  0.05558  0.94442    Ca
Ca        0.75  0.44406  0.55594    Ca
C       0.7508   0.6958   0.1652     C
O       0.7533   0.4291   0.7195     O
C       0.7677   0.8696   0.7102     C
H       0.7683   0.3287   0.8861     H
C       0.7837   0.7259   0.6265     C
H       0.7952   0.3145   0.8465     H
H       0.7965   0.5772   0.3076     H
H       0.7996   0.8062   0.4452     H
O       0.8003   0.5897   0.5373     O
H        0.806   0.7929   0.0589     H
H       0.8102   0.9181   0.7163     H
C       0.8244    0.839   0.3846     C
H       0.8364   0.5553   0.2843     H
C       0.8435   0.7952   0.6368     C
N       0.8474   0.4044   0.7652     N
C       0.8482   0.3523   0.8515     C
C       0.8572   0.3111   0.2667     C
H       0.8613   0.0051   0.1665     H
C       0.8632   0.9519   0.2109     C
C       0.8675    0.796   0.3406     C
C       0.8676   0.6435   0.5511     C
H        0.869   0.7428    0.385     H
C       0.8695   0.2256   0.1266     C
C       0.8743   0.6684   0.2024     C
C       0.8796   0.5991   0.2763     C
O       0.8802   0.1279   0.9993     O
O        0.894   0.0689   0.7785     O
H       0.9023   0.3193   0.3129     H
O       0.9196   0.9059   0.9569     O
H       0.9238   0.9676   0.1464     H
C       0.9324   0.2377   0.1937     C
H       0.9358   0.1913   0.6629     H
H        0.939   0.7925   0.5927     H
C       0.9492   0.1425   0.0501     C
C       0.9618   0.8547   0.3485     C
H       0.9647   0.4744   0.6556     H
C       0.9656   0.4388   0.7146     C
H       0.9705   0.1673   0.6155     H
H       0.9709   0.8052   0.8102     H
N       0.9811   0.9131   0.2473     N
H       0.9903   0.4854   0.6452     H
H       0.9918    0.748   0.1062     H
O       0.9997   0.6344   0.5044     O
