data_I
_chemical_name_common  '/Users/gianmarcoterrones/Research/MOFs/MOF_structures/water_stability_work_extra_structs/cleaned_from_CCDC/MOYNUK'
_cell_length_a 13.84200
_cell_length_b 13.92800
_cell_length_c 22.83800
_cell_angle_alpha 87.37200
_cell_angle_beta  87.46500
_cell_angle_gamma 72.70800
_space_group_name_H-M_alt      'P 1'


loop_
_space_group_symop_operation_xyz
  'x, y, z' 

loop_
_atom_site_label
_atom_site_fract_x
_atom_site_fract_y
_atom_site_fract_z
_atom_site_type_symbol
H       0.0031   0.3768   0.2916     H
C       0.0048   0.3375   0.6548     C
N       0.0049   0.0973   0.5452     N
C       0.0059   0.6899    0.139     C
C       0.0063    0.256   0.6216     C
H       0.0066   0.4504   0.8743     H
Cd     0.01215  0.67038  0.85582    Cd
H       0.0139   0.5435   0.2536     H
C       0.0139   0.8832    0.803     C
H       0.0213   0.9498   0.2584     H
C       0.0216   0.8622   0.5074     C
C       0.0222   0.1367   0.7978     C
C        0.023   0.5963   0.1042     C
N       0.0232   0.3791   0.9536     N
C       0.0303    0.638   0.9958     C
N       0.0334   0.3424   0.0484     N
C       0.0393   0.0448   0.7629     C
H       0.0412   0.9459   0.3757     H
H       0.0456   0.1118    0.216     H
H       0.0558   0.3683   0.6497     H
H       0.0559   0.2358   0.5922     H
N       0.0594   0.1182   0.4556     N
N       0.0608   0.8068   0.8387     N
C       0.0616    0.373   0.3113     C
Cd      0.0628  0.15567   0.3605    Cd
C       0.0628   0.8869   0.4017     C
N       0.0641   0.9518   0.7984     N
C       0.0651   0.7962   0.3686     C
C       0.0654   0.8307   0.1669     C
C       0.0728   0.2784   0.8248     C
C       0.0735   0.6276   0.3044     C
C       0.0782   0.7427   0.1352     C
C       0.0791   0.5358   0.2703     C
O       0.0827   0.7536   0.6744     O
H        0.087   0.8254   0.5173     H
C       0.0872   0.1917   0.7925     C
H       0.0939   0.0418   0.7343     H
H       0.0949   0.5639   0.0989     H
H       0.0981    0.636   0.9933     H
O       0.1004   0.9017   0.6528     O
C       0.1061   0.0504   0.5441     C
N        0.107   0.4445   0.3072     N
N       0.1083    0.294   0.3467     N
H       0.1134   0.8654   0.1643     H
O       0.1168    0.386   0.1676     O
C       0.1173    0.369   0.9691     C
H       0.1199   0.3142   0.8206     H
O       0.1208   0.5453   0.7983     O
C        0.124   0.3487   0.0266     C
H       0.1287     0.53   0.2383     H
H        0.131    0.881   0.4133     H
H       0.1357   0.7193   0.1112     H
C       0.1357   0.8154   0.6731     C
C       0.1391   0.0634   0.4871     C
O       0.1417   0.0434   0.2949     O
H        0.143   0.1718   0.7669     H
C       0.1436   0.7574   0.3272     C
C       0.1439   0.8321   0.8584     C
H       0.1449   0.0166   0.5751     H
C       0.1466   0.9168   0.8328     C
C       0.1471    0.676   0.2954     C
O       0.1559   0.2225   0.1823     O
H         0.17   0.3744   0.9438     H
O       0.1759   0.5639   0.8834     O
C       0.1784   0.3033    0.182     C
H       0.1814   0.3404   0.0483     H
C       0.1886   0.5205   0.8364     C
C       0.1899   0.4122    0.341     C
H       0.1899   0.7945   0.8854     H
C       0.1914   0.3177   0.3643     C
H       0.1946   0.7881   0.3214     H
H       0.1963   0.9482   0.8371     H
H        0.199    0.653   0.2676     H
H       0.2054   0.0385   0.4726     H
H       0.2257   0.6448   0.7274     H
C       0.2285   0.0122   0.3169     C
H       0.2365   0.4466   0.3472     H
C       0.2365   0.7792   0.7003     C
H       0.2411    0.277   0.3882     H
H       0.2438   0.1916   0.5951     H
O       0.2473   0.0397   0.3637     O
H       0.2505   0.9813   0.2029     H
H       0.2677   0.4326   0.7352     H
C       0.2677    0.686   0.7264     C
H       0.2702    0.443   0.1654     H
H       0.2783   0.9054   0.6834     H
C       0.2804   0.4355   0.8227     C
C        0.283   0.3003   0.1995     C
H       0.2935   0.0919   0.6311     H
C       0.2998   0.8409   0.7004     C
H       0.3036   0.2884   0.6639     H
C       0.3043   0.1364   0.5999     C
C       0.3045   0.9364   0.2219     C
C       0.3078   0.4026   0.7665     C
C       0.3093   0.9388    0.282     C
H       0.3111   0.0704   0.8452     H
C       0.3134   0.3877   0.1849     C
H       0.3207   0.1006   0.5641     H
H       0.3242   0.4097   0.9094     H
H       0.3284   0.1615   0.2373     H
C       0.3412    0.387   0.8715     C
H       0.3463   0.1879   0.6999     H
C       0.3483   0.2188   0.2284     C
H       0.3606   0.0162   0.9029     H
C       0.3619   0.6515   0.7517     C
C       0.3644   0.2333    0.671     C
H       0.3708    0.896   0.8334     H
C       0.3734   0.0322   0.8625     C
H       0.3745   0.1226   0.4327     H
H       0.3758   0.8666   0.1487     H
H        0.377   0.0004   0.7507     H
C        0.379   0.8679   0.1892     C
H       0.3814   0.5877   0.7696     H
H       0.3894   0.4837   0.3346     H
C       0.3907   0.8725   0.3105     C
C       0.3917   0.8085   0.7246     C
C        0.394   0.1778    0.615     C
C       0.3951   0.3251   0.7575     C
H       0.3958   0.8752   0.3508     H
H       0.3972   0.6482   0.3028     H
H       0.4002   0.5426   0.3896     H
H       0.4058   0.2227   0.5836     H
H       0.4087   0.4063   0.6493     H
C       0.4093   0.3885   0.2003     C
H       0.4147    0.241   0.3647     H
C       0.4177   0.9359   0.8299     C
H       0.4204    0.071   0.8601     H
H       0.4207   0.1938   0.4661     H
C       0.4242    0.307   0.8607     C
C       0.4292   0.7114   0.7509     C
H        0.431   0.4445   0.1906     H
C       0.4334   0.5128   0.3542     C
H       0.4335   0.0848   0.3272     H
C       0.4346   0.1421   0.4378     C
C       0.4383   0.9556   0.7669     C
C       0.4425   0.2214   0.2441     C
C       0.4434   0.2788   0.7001     C
C       0.4534   0.2785   0.8038     C
H       0.4538   0.9507   0.6544     H
H       0.4556   0.1226   0.6199     H
C       0.4583   0.8018   0.2192     C
C       0.4595   0.5967   0.3125     C
H       0.4615   0.2713   0.8918     H
C       0.4646   0.8018   0.2785     C
C       0.4684   0.1828   0.3779     C
C       0.4702   0.3547   0.6601     C
C       0.4708   0.3085   0.2291     C
H       0.4724   0.7955   0.6163     H
C       0.4747   0.8623   0.7284     C
H       0.4802   0.8971   0.8478     H
H       0.4876   0.0848   0.4514     H
H       0.4893   0.9908   0.7641     H
H       0.4907   0.5666   0.2762     H
C       0.4928   0.1071   0.3316     C
H       0.4947   0.4613   0.3637     H
H       0.4976   0.6776   0.3754     H
H       0.5024   0.3224   0.6246     H
H       0.5053   0.5387   0.6363     H
C       0.5072   0.8929   0.6684     C
H       0.5093   0.4334   0.7238     H
H       0.5107   0.0092   0.2359     H
H       0.5124   0.9152   0.5486     H
H       0.5198   0.1029   0.1522     H
C       0.5253   0.1377   0.2716     C
H       0.5276   0.2045   0.3837     H
C       0.5292   0.6915   0.7709     C
C       0.5298   0.6453   0.3399     C
C       0.5316   0.8172   0.6221     C
C       0.5354   0.1982   0.7215     C
H       0.5385   0.7287   0.1082     H
C       0.5405   0.4033   0.6875     C
C       0.5417   0.1982   0.7808     C
H       0.5444   0.8774   0.3801     H
H       0.5462   0.0493   0.3456     H
C       0.5466   0.7215   0.1962     C
C       0.5566   0.7212   0.2999     C
C       0.5575   0.7786   0.7559     C
C       0.5617   0.0444   0.2331     C
C       0.5654   0.8579   0.5622     C
H       0.5665   0.9152   0.6728     H
C       0.5666   0.4872   0.6458     C
H        0.569   0.5555   0.8094     H
C       0.5708   0.2886   0.2491     C
C       0.5758    0.693   0.1393     C
H       0.5793   0.8062   0.5339     H
H       0.5796    0.929   0.1399     H
C       0.5823   0.0641   0.1701     C
H       0.5853    0.759   0.6353     H
C       0.5907   0.6115   0.7997     C
H       0.5913   0.5937   0.3507     H
H       0.5942   0.7773   0.4164     H
H       0.5998   0.4574   0.6104     H
H       0.6028   0.3518   0.6972     H
H       0.6042   0.1248   0.6492     H
C       0.6049   0.6749   0.2425     C
C        0.606   0.8222    0.385     C
C       0.6083   0.1915   0.2754     C
C       0.6093   0.1275   0.6895     C
H       0.6106   0.5163   0.6654     H
H       0.6186   0.4123   0.2304     H
C        0.621   0.1321   0.8108     C
H        0.623   0.9996   0.2493     H
H       0.6242   0.1334   0.8513     H
H       0.6255   0.8774   0.5673     H
C       0.6266   0.9678   0.1375     C
H       0.6292    0.104   0.1666     H
C       0.6356   0.7667    0.329     C
C       0.6381   0.3485   0.2483     C
H       0.6394   0.9838   0.0971     H
C       0.6517   0.7812   0.7716     C
H       0.6537   0.8121   0.3001     H
C       0.6588    0.613   0.1285     C
H       0.6716   0.8385   0.7627     H
H       0.6758   0.5903   0.0906     H
H       0.6793   0.8994   0.4359     H
C       0.6866   0.6123   0.8151     C
H       0.6889   0.9296   0.1548     H
C       0.6907   0.0612    0.718     C
C       0.6922   0.5974   0.2335     C
C       0.6955   0.0636   0.7781     C
C       0.6957   0.8636   0.4001     C
H       0.6964   0.7116   0.3361     H
C       0.7002   0.1591   0.2996     C
H       0.7065   0.9081   0.3689     H
C        0.717   0.6997   0.8005     C
C       0.7196   0.5645   0.1773     C
H       0.7217   0.0946   0.3166     H
H       0.7298    0.557   0.8346     H
C       0.7323    0.314   0.2736     C
H       0.7323   0.5674   0.2648     H
H       0.7495   0.0187   0.7971     H
O       0.7527   0.9603   0.6363     O
H       0.7562   0.8084   0.4049     H
H       0.7589    0.723   0.6118     H
C       0.7635   0.2208   0.2997     C
H       0.7635   0.5534   0.6528     H
C       0.7715   0.9878   0.6831     C
H       0.7743   0.3552   0.2726     H
H       0.7946   0.9615   0.5274     H
H        0.801    0.347   0.7324     H
H       0.8037   0.0518   0.1629     H
H       0.8054   0.2119   0.6786     H
C       0.8086   0.6823   0.6357     C
H       0.8101   0.2055   0.1146     H
C       0.8101   0.5878    0.659     C
C       0.8114   0.4795   0.1636     C
H       0.8186   0.6596   0.9517     H
C       0.8216   0.6967    0.818     C
O       0.8241   0.4361   0.1166     O
H         0.83   0.6256   0.0562     H
O       0.8441   0.7775   0.8177     O
C       0.8529    0.324   0.7046     C
C       0.8534   0.0832   0.1672     C
H       0.8551   0.9834   0.4249     H
C       0.8561   0.1679   0.1416     C
C       0.8564   0.2426   0.6728     C
H        0.857   0.8282   0.2331     H
O       0.8583   0.9566   0.7051     O
C       0.8609   0.9366   0.5129     C
C       0.8643   0.1846   0.3269     C
H       0.8643   0.2807   0.8888     H
H        0.869    0.119   0.5867     H
H       0.8713     0.47   0.7617     H
C        0.876   0.6513   0.9734     C
O       0.8792   0.4547   0.2017     O
H       0.8801   0.6858   0.1794     H
C       0.8827    0.631   0.0309     C
O       0.8832    0.614   0.8324     O
H       0.8866   0.1346   0.8357     H
N       0.8917    0.706   0.6533     N
N        0.893   0.5555   0.6928     N
C       0.8939   0.9496   0.4559     C
O       0.8996   0.0983   0.3472     O
H       0.9019    0.364   0.0067     H
H       0.9051   0.4361   0.9011     H
H       0.9061   0.9582   0.2657     H
C       0.9128   0.8083   0.2075     C
H        0.913   0.1746   0.4827     H
O       0.9173   0.2464   0.3256     O
C       0.9209   0.4642   0.7297     C
C       0.9218   0.2573   0.8648     C
C       0.9265   0.3724   0.6956     C
C       0.9272   0.7216   0.1752     C
C       0.9346   0.1693   0.8331     C
C       0.9349   0.2038   0.6314     C
N       0.9359   0.0482   0.2016     N
C       0.9372   0.1131   0.5983     C
Cd      0.9372  0.84433   0.6395    Cd
C       0.9384    0.627   0.6887     C
N       0.9392   0.1932   0.1613     N
N       0.9406   0.8818   0.5444     N
H       0.9441   0.7642   0.4078     H
H       0.9442   0.6317   0.3503     H
H       0.9544   0.8882    0.784     H
H       0.9588   0.0541   0.6243     H
C       0.9607   0.9552   0.2371     C
N       0.9666   0.6576   0.9516     N
C       0.9697    0.362   0.0042     C
N       0.9768   0.6209   0.0464     N
C        0.977   0.4037   0.8958     C
C       0.9778   0.8633   0.2022     C
C       0.9784   0.1378   0.4926     C
H       0.9787   0.0502   0.7416     H
C       0.9861   0.1168    0.197     C
H       0.9861   0.4565   0.7464     H
Cd     0.98785  0.32962  0.14418    Cd
H       0.9934   0.5496   0.1257     H
C       0.9937    0.744   0.3784     C
C       0.9941   0.3101    0.861     C
N       0.9951   0.9027   0.4548     N
C       0.9952   0.6625   0.3452     C
H       0.9969   0.6232   0.7084     H
