data_I
_chemical_name_common  '/Users/gianmarcoterrones/Research/MOFs/MOF_structures/water_stability_work_extra_structs/cleaned_from_CCDC/MOYNOE'
_cell_length_a 13.73540
_cell_length_b 13.84850
_cell_length_c 22.42330
_cell_angle_alpha 88.43800
_cell_angle_beta  85.27500
_cell_angle_gamma 70.77400
_space_group_name_H-M_alt      'P 1'


loop_
_space_group_symop_operation_xyz
  'x, y, z' 

loop_
_atom_site_label
_atom_site_fract_x
_atom_site_fract_y
_atom_site_fract_z
_atom_site_type_symbol
H       0.0088   0.4339   0.3939     H
C       0.0131   0.5425    0.645     C
H       0.0216   0.1586   0.2436     H
C       0.0262   0.1813   0.8458     C
C        0.027    0.107   0.2745     C
H       0.0354   0.5926   0.6634     H
H        0.041   0.0416    0.255     H
H       0.0473   0.0055   0.1286     H
O       0.0513   0.1085   0.8187     O
H       0.0518    0.753   0.2571     H
H       0.0532   0.4955   0.2774     H
H       0.0556    0.108   0.1008     H
H       0.0578   0.5751   0.8102     H
C       0.0592   0.7223   0.1678     C
H       0.0595   0.6144   0.3498     H
H       0.0682   0.7327   0.8343     H
H       0.0694   0.4791   0.6411     H
N       0.0723   0.8678  0.68812     N
O       0.0731   0.1897   0.8961     O
C       0.0756   0.4736   0.3169     C
H       0.0843   0.7395   0.6394     H
C       0.0855   0.7053   0.2275     C
H       0.0918   0.3774   0.7764     H
C       0.0927   0.0357   0.1054     C
H       0.0935   0.6672   0.0857     H
H       0.1057   0.1049   0.9903     H
H       0.1087   0.9811   0.3616     H
C       0.1114   0.6543    0.125     C
C        0.114   0.7879   0.6491     C
C       0.1147   0.1022   0.3118     C
C       0.1168   0.5516    0.342     C
C       0.1188   0.5898   0.8014     C
N       0.1203   0.9871  0.04593     N
C       0.1225   0.0344   0.9941     C
C       0.1257   0.6836   0.8159     C
H       0.1291   0.9771   0.7106     H
H       0.1313   0.4087   0.3125     H
C       0.1393   0.9187  0.68804     C
O        0.143   0.8823   0.8276     O
H       0.1443   0.5265     0.38     H
C       0.1445   0.0273   0.3551     C
C       0.1483   0.8853   0.0338     C
H         0.15   0.2171   0.7331     H
N       0.1511   0.9708  0.94869     N
H       0.1519   0.2184   0.2732     H
H       0.1535   0.8327   0.0613     H
C       0.1576   0.3529   0.7569     C
C       0.1637   0.6148   0.2413     C
Zn     0.16662  0.00353  0.86061    Zn
C       0.1669    0.876   0.9741     C
C       0.1699   0.1683   0.3025     C
H        0.181   0.7218   0.3335     H
H       0.1863   0.8967   0.1845     H
H       0.1874   0.8146   0.9532     H
C       0.1886   0.0221   0.1386     C
C       0.1913   0.5654   0.1374     C
C       0.1931   0.2568   0.7314     C
C       0.2014   0.5765   0.3015     C
C       0.2054   0.5178   0.7732     C
C       0.2058   0.7932   0.6276     C
C       0.2166   0.5476   0.1955     C
C        0.217   0.7061   0.8035     C
H       0.2192   0.1466   0.1033     H
C       0.2216   0.9435   0.1781     C
N        0.222   0.8757   0.6518     N
C       0.2224   0.4127   0.7528     C
C       0.2263   0.8057   0.8223     C
H       0.2264   0.5194   0.1072     H
C        0.227   0.0199   0.3893     C
H       0.2327   0.6221   0.4173     H
C       0.2391   0.6587   0.3296     C
C       0.2416   0.0923   0.1298     C
H       0.2456    0.969   0.4182     H
H       0.2517   0.7477   0.6003     H
C       0.2528   0.1617   0.3364     C
H        0.253   0.7872    0.414     H
O       0.2665   0.0653  0.67262     O
H       0.2709   0.1729   0.8906     H
H       0.2785   0.5726   0.6367     H
C       0.2812   0.0878  0.38034     C
C        0.283   0.6357   0.3884     C
H       0.2892   0.2074   0.3294     H
C       0.2909   0.4783   0.2842     C
H        0.291   0.6715   0.3015     H
C       0.2923    0.218  0.70315     C
N       0.2939    0.042  0.84114     N
C       0.2958   0.5406    0.759     C
C       0.2961   0.4624   0.2223     C
H       0.3022   0.4588   0.6171     H
C       0.3031   0.6335   0.7748     C
C       0.3087   0.9337   0.2088     C
O       0.3113   0.8094  0.83383     O
C       0.3133   0.7273   0.4103     C
C       0.3146   0.1244    0.864     C
H       0.3174   0.0879   0.5362     H
H        0.321   0.5572   0.5335     H
C        0.323   0.3737   0.7264     C
C       0.3288   0.0804   0.1611     C
H       0.3306   0.8801   0.2357     H
C       0.3313   0.1144  0.67485     C
C       0.3327   0.5121   0.6212     C
H       0.3416    0.711   0.4485     H
H       0.3438   0.5749   0.3851     H
Zn     0.34395  0.92611  0.63928    Zn
C       0.3544   0.0238  0.52025     C
H       0.3549    0.417   0.3604     H
C       0.3585   0.4074   0.3193     C
C       0.3588   0.2762   0.7018     C
H       0.3614   0.1499   0.4326     H
C       0.3628    0.001   0.2003     C
H        0.364   0.7399   0.3819     H
H       0.3642   0.1271   0.1552     H
H       0.3646   0.6474   0.7665     H
C       0.3683    0.376   0.1955     C
H       0.3715   0.3658   0.1544     H
C        0.373   0.0833   0.4153     C
C       0.3755   0.9936  0.80462     C
C       0.3756   0.5358   0.5601     C
N       0.3784   0.9373  0.55156     N
C       0.3806   0.4503   0.7284     C
H       0.3819   0.9354   0.7827     H
N       0.3903   0.0069  0.46282     N
H       0.4045   0.5896   0.5637     H
H       0.4099   0.7208   0.1546     H
C       0.4104   0.1222   0.8407     C
H       0.4109   0.6112   0.1381     H
H        0.412   0.4532   0.8509     H
H        0.413   0.3437   0.8344     H
C       0.4157   0.4774   0.6652     C
O       0.4225   0.0784   0.6545     O
H       0.4262   0.2498   0.6847     H
H       0.4285   0.4757   0.5443     H
C       0.4319   0.3215   0.2924     C
C        0.432   0.8611  0.51088     C
H       0.4347   0.0677   0.3879     H
C       0.4353   0.3054   0.2309     C
C         0.44   0.9029   0.4564     C
H       0.4441   0.1682   0.8487     H
H       0.4456   0.5312   0.6686     H
H       0.4463   0.0541   0.2551     H
N       0.4471   0.0396   0.8035     N
O       0.4499   0.8447  0.69094     O
C       0.4505   0.6569   0.1362     C
C       0.4534   0.3896   0.8313     C
C       0.4554   0.9898   0.2354     C
H       0.4585   0.7918   0.5197     H
H       0.4597   0.9382   0.2662     H
H       0.4695   0.6685   0.0951     H
H       0.4701   0.4179   0.6486     H
H       0.4725   0.8685   0.4215     H
O       0.4736   0.7261  0.62163     O
C       0.4748    0.411   0.7656     C
H       0.4783   0.6515   0.2526     H
H       0.4831   0.2467   0.2136     H
H       0.4894    0.539   0.2368     H
C       0.4925   0.7534  0.66997     C
C       0.5075   0.2466  0.33003     C
H       0.5106    0.461   0.7632     H
H       0.5169   0.7533   0.7864     H
H       0.5217   0.3485   0.7474     H
C       0.5252    0.589   0.2344     C
O       0.5264   0.2739  0.37837     O
H       0.5275   0.1315   0.5785     H
H       0.5299   0.5821   0.3514     H
H       0.5305   0.3315   0.9049     H
H       0.5403   0.0618   0.7338     H
H       0.5415   0.2082   0.4803     H
C       0.5446   0.0102   0.7646     C
C       0.5466   0.6104   0.1687     C
C       0.5495   0.3431   0.8638     C
O       0.5501   0.1553  0.30906     O
N       0.5529   0.9604   0.1965     N
H       0.5537   0.9459   0.7449     H
H       0.5544   0.4688   0.3314     H
H       0.5559   0.8318   0.1513     H
C         0.56   0.0971   0.5436     C
C       0.5647   0.6946   0.7691     C
H       0.5653   0.9323   0.6121     H
C        0.568   0.1389  0.48912     C
C       0.5681   0.6785   0.7076     C
H       0.5715   0.5243   0.4557     H
H       0.5738   0.7502   0.3153     H
O       0.5775   0.9216   0.3455     O
C       0.5843   0.5226   0.3348     C
H        0.587   0.6563   0.1656     H
H        0.588   0.5468   0.1491     H
H       0.5891   0.3888   0.8619     H
C       0.5896   0.8778   0.1593     C
H       0.5901   0.2792   0.8454     H
H       0.5955   0.4104   0.4363     H
N       0.6097   0.9931  0.53718     N
H       0.6181   0.0646   0.2173     H
C       0.6194   0.5497   0.2716     C
N       0.6216   0.0627  0.44844     N
C       0.6244   0.4642   0.4399     C
C       0.6245   0.0064  0.19538     C
C        0.627   0.9167   0.5847     C
H       0.6285   0.6342   0.8456     H
C       0.6317    0.624   0.8045     C
H       0.6354   0.3526   0.2335     H
H       0.6358   0.8729   0.8448     H
H        0.636   0.2601   0.6181     H
C       0.6372    0.999   0.7997     C
H       0.6386   0.8501   0.5674     H
C       0.6412   0.7238   0.2982     C
C       0.6415   0.5926   0.6807     C
H       0.6451    0.583   0.6396     H
C       0.6456   0.9762  0.47975     C
Zn     0.65605  0.07389  0.36072    Zn
H       0.6562   0.4251   0.6149     H
H       0.6584    0.289   0.5515     H
C       0.6673   0.4879   0.3788     C
C       0.6687   0.8856  0.32515     C
H       0.6694   0.1199   0.7643     H
C       0.6712   0.9196   0.8389     C
C        0.677   0.6263   0.2736     C
H        0.679   0.4428   0.4665     H
H       0.6826   0.9121   0.4638     H
C       0.6854   0.8756    0.136     C
C       0.6867   0.2727   0.5897     C
O       0.6887   0.1906  0.16617     O
C       0.6913   0.0663   0.7912     C
C       0.6969   0.3665   0.2252     C
H       0.6978   0.5412   0.3829     H
C       0.7039   0.5376   0.7777     C
C       0.7042   0.4594    0.241     C
N       0.7061    0.958  0.15886     N
C       0.7077    0.782  0.29685     C
H        0.709   0.3285   0.6985     H
C       0.7091   0.5217   0.7158     C
H       0.7108   0.7926   0.6706     H
C        0.717   0.3643   0.6116     C
C       0.7188   0.9122  0.61966     C
H       0.7215   0.4274   0.3633     H
H       0.7291   0.8271   0.1094     H
O       0.7335   0.9347  0.32738     O
H        0.747   0.2128    0.586     H
C       0.7472   0.8383   0.6636     C
H       0.7483   0.2523   0.3997     H
H       0.7544    0.031   0.5818     H
C       0.7584   0.9077   0.8702     C
C       0.7609   0.3413   0.6704     C
H       0.7673   0.3779   0.5827     H
C        0.773   0.9801   0.6107     C
H       0.7736   0.4806   0.8928     H
C       0.7737   0.1943   0.1777     C
C       0.7776   0.5873   0.2472     C
N        0.778   0.1243   0.3482     N
C       0.7784   0.0565   0.8219     C
H       0.7808   0.8534   0.8967     H
C        0.783   0.2939   0.1965     C
C       0.7834   0.4524   0.8045     C
C       0.7942   0.2068   0.3724     C
C       0.7946   0.4822   0.2268     C
C       0.7986   0.4235   0.6985     C
C       0.8069   0.7432   0.2686     C
C       0.8087   0.4346   0.8626     C
C       0.8114   0.9779   0.8614     C
H       0.8126   0.1854   0.0468     H
H       0.8137   0.1033   0.8155     H
H        0.819   0.2782   0.6665     H
C       0.8301   0.8317   0.6975     C
C       0.8331    0.124   0.0259     C
Zn     0.83338  0.99647  0.13939    Zn
C       0.8363   0.3852   0.7587     C
C       0.8424   0.6471   0.2431     C
H       0.8465   0.1673   0.9387     H
H       0.8481   0.7816   0.7268     H
N       0.8489   0.0292  0.05131     N
H         0.85   0.7829   0.2669     H
C       0.8517   0.1147   0.9662     C
C       0.8555   0.9727   0.6449     C
H       0.8557   0.4735     0.62     H
O        0.857   0.1177   0.1724     O
C       0.8607   0.0813  0.31196     C
H       0.8687   0.5913   0.6875     H
H       0.8709   0.0229   0.2894     H
C       0.8743   0.3164   0.1841     C
C       0.8775   0.9656   0.0059     C
N       0.8797   0.0129  0.95407     N
C       0.8812   0.4102   0.1986     C
C       0.8832   0.4484    0.658     C
C       0.8853   0.8978   0.6882     C
C        0.886   0.2121   0.3509     C
C       0.8886   0.3457    0.875     C
H       0.8913   0.0189   0.6384     H
H       0.8943   0.8951   0.0097     H
H       0.9065   0.3328   0.9143     H
C       0.9073   0.9643   0.8946     C
H       0.9082   0.6226   0.2236     H
C       0.9145   0.2947   0.7725     C
H       0.9157   0.2605   0.3606     H
C       0.9244   0.5264   0.6831     C
O       0.9269   0.8103   0.1039     O
N       0.9277   0.1322  0.31188     N
H       0.9306   0.5209   0.3589     H
H       0.9318   0.2673   0.1657     H
H       0.9405   0.3856   0.6502     H
C       0.9408   0.2777   0.8322     C
H       0.9422   0.4249   0.1898     H
H       0.9444    0.892   0.8992     H
H       0.9468   0.5045   0.7226     H
H       0.9482    0.247   0.7429     H
O       0.9487   0.8915   0.1813     O
H       0.9527   0.9945   0.8714     H
H        0.959   0.9584    0.745     H
H       0.9646   0.4074   0.3366     H
C        0.973    0.893   0.7255     C
C       0.9738   0.8187   0.1542     C
H       0.9784   0.8414   0.7564     H
C       0.9869   0.4575    0.355     C
H       0.9912   0.5661   0.6061     H
