data_I
_chemical_name_common  '/Users/gianmarcoterrones/Research/MOFs/MOF_structures/water_stability_work_extra_structs/cleaned_from_CCDC/MOYPIA'
_cell_length_a  8.63700
_cell_length_b 10.97200
_cell_length_c 14.33925
_cell_angle_alpha 102.68053
_cell_angle_beta  107.52767
_cell_angle_gamma 90.00000
_space_group_name_H-M_alt      'P 1'


loop_
_space_group_symop_operation_xyz
  'x, y, z' 

loop_
_atom_site_label
_atom_site_fract_x
_atom_site_fract_y
_atom_site_fract_z
_atom_site_type_symbol
C       0.0006   0.5304   0.3128     C
C       0.0404   0.4492   0.9818     C
C       0.0529   0.3243   0.9468     C
C       0.0588   0.8232   0.5538     C
H       0.1069   0.5665    0.322     H
N       0.1092    0.744   0.6156     N
H        0.115   0.3714   0.5044     H
H       0.1197   0.4791    0.812     H
H       0.1198   0.9277   0.4722     H
H       0.1291   0.2338    0.608     H
H       0.1339   0.5974   0.0974     H
C       0.1416   0.5122   0.0748     C
C        0.158   0.8721   0.5132     C
C       0.1689   0.2552   0.0044     C
H       0.1735   0.1143    0.719     H
H       0.1767   0.1703   0.9804     H
N       0.1819   0.5859   0.7334     N
C        0.206   0.5056   0.7934     C
C       0.2131   0.3389   0.5326     C
H       0.2151   0.0665    0.322     H
C       0.2218   0.2574   0.5942     C
H       0.2392   0.1944   0.2166     H
H       0.2409   0.9735   0.8272     H
C       0.2521   0.4504   0.1332     C
H       0.2532    0.763   0.0518     H
H       0.2617   0.8611   0.9886     H
C       0.2656   0.7106   0.6356     C
C       0.2714   0.3208    0.099     C
C       0.2773    0.086   0.7382     C
H       0.2833   0.9565   0.2592     H
C       0.3027   0.6241    0.706     C
C       0.3122   0.0304   0.3128     C
C       0.3129   0.7919   0.0132     C
H       0.3141   0.7252   0.9576     H
H       0.3163    0.095   0.1528     H
C       0.3189   0.0014   0.8024     C
C       0.3195   0.8389   0.5326     C
C       0.3426   0.1674    0.209     C
H       0.3474   0.6741   0.2812     H
H       0.3524   0.4277   0.4722     H
C       0.3552   0.3721   0.5132     C
C       0.3579    0.461   0.8282     C
C         0.37   0.2106   0.6356     C
C       0.3724   0.7574   0.5942     C
H       0.3731   0.4037   0.8688     H
C       0.3748   0.4902   0.2332     C
H       0.3755   0.0087   0.3736     H
H       0.3894   0.8714   0.5044     H
C       0.4033   0.1241    0.706     C
C       0.4069   0.6075   0.2988     C
C       0.4112   0.1244   0.2866     C
C       0.4115   0.2747   0.1704     C
H       0.4468   0.1949   0.3442     H
C       0.4609    0.586   0.7382     C
C       0.4678   0.3919    0.255     C
C       0.4703    0.961   0.8282     C
H       0.4732   0.9003   0.1304     H
C        0.477   0.8315   0.0758     C
H       0.4789   0.7338    0.608     H
C       0.4835   0.5014   0.8024     C
C        0.495   0.3232   0.5538     C
H       0.4957   0.9037   0.8688     H
H       0.5009   0.1562    0.069     H
H       0.5026   0.3638   0.0362     H
N       0.5064    0.244   0.6156     N
H       0.5081   0.0856   0.2774     H
C       0.5291    0.625   0.3912     C
H       0.5336   0.8638   0.0362     H
H       0.5354   0.7102   0.1714     H
C       0.5428   0.2314   0.1214     C
H       0.5455   0.6143    0.719     H
H       0.5471   0.7016   0.4376     H
N       0.5515   0.0859   0.7334     N
H       0.5681   0.6562    0.069     H
C       0.5786   0.7314   0.1214     C
H       0.5863   0.4735   0.8272     H
C       0.5874   0.0056   0.7934     C
H       0.5876   0.3445   0.5388     H
C       0.5959   0.4094   0.3448     C
C       0.5988   0.3315   0.0758     C
C       0.6232   0.5266    0.413     C
H        0.636   0.2102   0.1714     H
H       0.6435   0.2252   0.9576     H
H       0.6572   0.4003   0.1304     H
O       0.6615   0.9676   0.5254     O
H       0.6619   0.3447   0.3594     H
H       0.6923   0.9791    0.812     H
H       0.6975   0.8447   0.3594     H
C       0.7003   0.2919   0.0132     C
Zn     0.72124  0.16607  0.68482    Zn
H       0.7269   0.3611   0.9886     H
C       0.7489   0.9094   0.3448     C
C       0.7524   0.0435   0.5118     C
O       0.7567   0.6431    0.577     O
C       0.7589   0.7747   0.1704     C
C       0.7594   0.5435   0.5118     C
H       0.7693   0.5856   0.2774     H
C       0.7872   0.8919    0.255     C
C       0.7898   0.0266    0.413     C
H       0.7986    0.263   0.0518     H
H       0.8037   0.6703   0.9804     H
O       0.8203   0.1431    0.577     O
C       0.8276   0.8208    0.099     C
C       0.8355   0.7552   0.0044     C
O       0.8361   0.3162   0.7974     O
H       0.8365    0.595   0.1528     H
C       0.8584   0.9902   0.2332     C
C       0.8621    0.125   0.3912     C
O       0.8639   0.4676   0.5254     O
C       0.8664   0.6674    0.209     C
O       0.8745    0.639   0.8172     O
C       0.8754   0.6244   0.2866     C
C       0.8811   0.9504   0.1332     C
H       0.8905   0.2016   0.4376     H
C       0.8919   0.1075   0.2988     C
C       0.8939   0.8243   0.9468     C
H       0.8974   0.6949   0.3442     H
C       0.9112   0.7533   0.8476     C
C       0.9332   0.0122   0.0748     C
H       0.9338   0.1741   0.2812     H
C       0.9364   0.2533   0.8476     C
C       0.9414   0.9492   0.9818     C
O       0.9427    0.139   0.8172     O
H       0.9512   0.8445   0.5388     H
O       0.9613   0.8162   0.7974     O
H       0.9633   0.4919   0.9428     H
H       0.9635   0.0974   0.0974     H
Zn     0.96358  0.66607  0.68482    Zn
H       0.9759   0.4565   0.2592     H
H       0.9774   0.6944   0.2166     H
H       0.9795   0.9919   0.9428     H
H       0.9981   0.5087   0.3736     H
