data_I
_chemical_name_common  '/Users/gianmarcoterrones/Research/MOFs/MOF_structures/water_stability_work_extra_structs/cleaned_from_CCDC/MOYPAS'
_cell_length_a  8.78300
_cell_length_b 14.61300
_cell_length_c 24.64000
_cell_angle_alpha 90.00000
_cell_angle_beta  90.00000
_cell_angle_gamma 90.00000
_space_group_name_H-M_alt      'P 1'


loop_
_space_group_symop_operation_xyz
  'x, y, z' 

loop_
_atom_site_label
_atom_site_fract_x
_atom_site_fract_y
_atom_site_fract_z
_atom_site_type_symbol
C       0.0001     0.25   0.6374     C
C       0.0001     0.75   0.8626     C
H         0.01     0.25   0.0999     H
H         0.01     0.75   0.4001     H
H       0.0127   0.0608   0.4558     H
H       0.0127   0.4392   0.4558     H
H       0.0127   0.5608   0.0442     H
H       0.0127   0.9392   0.0442     H
H       0.0223    0.092   0.0153     H
H       0.0223    0.408   0.0153     H
H       0.0223    0.592   0.4847     H
H       0.0223    0.908   0.4847     H
C       0.0267     0.25   0.8102     C
C       0.0267     0.75   0.6898     C
H       0.0318   0.0733   0.7766     H
H       0.0318   0.4267   0.7766     H
H       0.0318   0.5733   0.7234     H
H       0.0318   0.9267   0.7234     H
C        0.032    0.047   0.4937     C
C        0.032    0.453   0.4937     C
C        0.032    0.547   0.0063     C
C        0.032    0.953   0.0063     C
C       0.0341     0.25   0.7481     C
C       0.0341     0.75   0.7519     C
C       0.0355   0.0741    0.816     C
C       0.0355   0.4259    0.816     C
C       0.0355   0.5741    0.684     C
C       0.0355   0.9259    0.684     C
H       0.0682   0.0695   0.3292     H
H       0.0682   0.4305   0.3292     H
H       0.0682   0.5695   0.1708     H
H       0.0682   0.9305   0.1708     H
H       0.0755   0.0623   0.6775     H
H       0.0755   0.4377   0.6775     H
H       0.0755   0.5623   0.8225     H
H       0.0755   0.9377   0.8225     H
H       0.0952   0.1675   0.8737     H
H       0.0952   0.3325   0.8737     H
H       0.0952   0.6675   0.6263     H
H       0.0952   0.8325   0.6263     H
C       0.1026   0.1642   0.8345     C
C       0.1026   0.3358   0.8345     C
C       0.1026   0.6642   0.6655     C
C       0.1026   0.8358   0.6655     C
C       0.1125     0.25   0.2258     C
C       0.1125     0.75   0.2742     C
C       0.1237   0.0074   0.6648     C
C       0.1237   0.4926   0.6648     C
C       0.1237   0.5074   0.8352     C
C       0.1237   0.9926   0.8352     C
H       0.1265   0.0077   0.6259     H
H       0.1265   0.4923   0.6259     H
H       0.1265   0.5077   0.8741     H
H       0.1265   0.9923   0.8741     H
C       0.1288     0.25   0.1687     C
C       0.1288     0.75   0.3313     C
C       0.1436     0.25   0.6595     C
C       0.1436     0.75   0.8405     C
C        0.144     0.25   0.3192     C
C        0.144     0.75   0.1808     C
C        0.161     0.25   0.7151     C
C        0.161     0.75   0.7849     C
H       0.1686     0.25   0.4005     H
H       0.1686     0.75   0.0995     H
C       0.2025    0.057   0.5046     C
C       0.2025    0.443   0.5046     C
C       0.2025    0.557   0.9954     C
C       0.2025    0.943   0.9954     C
H       0.2099    0.165   0.8251     H
H       0.2099    0.335   0.8251     H
H       0.2099    0.665   0.6749     H
H       0.2099    0.835   0.6749     H
H       0.2211   0.0487   0.5431     H
H       0.2211   0.4513   0.5431     H
H       0.2211   0.5487   0.9569     H
H       0.2211   0.9513   0.9569     H
C       0.2219     0.25   0.3679     C
C       0.2219     0.75   0.1321     C
H       0.2248     0.25   0.1528     H
H       0.2248     0.75   0.3472     H
C       0.2256     0.25   0.2695     C
C       0.2256     0.75   0.2305     C
H       0.2257   0.0044   0.6787     H
H       0.2257   0.4956   0.6787     H
H       0.2257   0.5044   0.8213     H
H       0.2257   0.9956   0.8213     H
H       0.2339   0.1186   0.4951     H
H       0.2339   0.3814   0.4951     H
H       0.2339   0.6186   0.0049     H
H       0.2339   0.8814   0.0049     H
H       0.2579     0.25   0.7304     H
H       0.2579     0.75   0.7696     H
O       0.2637     0.25   0.5733     O
O       0.2637     0.75   0.9267     O
C       0.2832     0.25   0.6243     C
C       0.2832     0.75   0.8757     C
N        0.295   0.0085   0.0258     N
N        0.295   0.4915   0.0258     N
N        0.295   0.5085   0.4742     N
N        0.295   0.9915   0.4742     N
H        0.312   0.0479   0.3968     H
H        0.312   0.4521   0.3968     H
H        0.312   0.5479   0.1032     H
H        0.312   0.9521   0.1032     H
C       0.3351   0.0004     0.08     C
C       0.3351   0.4996     0.08     C
C       0.3351   0.5004     0.42     C
C       0.3351   0.9996     0.42     C
H       0.3395   0.1105   0.9733     H
H       0.3395   0.3895   0.9733     H
H       0.3395   0.6105   0.5267     H
H       0.3395   0.8895   0.5267     H
C       0.3506   0.0885   0.0085     C
C       0.3506   0.4115   0.0085     C
C       0.3506   0.5885   0.4915     C
C       0.3506   0.9115   0.4915     C
C        0.382     0.25   0.3679     C
C        0.382     0.75   0.1321     C
C       0.3823     0.25   0.2687     C
C       0.3823     0.75   0.2313     C
O       0.3833     0.25   0.4642     O
O       0.3833     0.75   0.0358     O
O       0.3924     0.25   0.9216     O
O       0.3924     0.75   0.5784     O
O       0.4122     0.25    0.645     O
O       0.4122     0.75    0.855     O
C       0.4144   0.0768   0.0924     C
C       0.4144   0.4232   0.0924     C
C       0.4144   0.5768   0.4076     C
C       0.4144   0.9232   0.4076     C
N       0.4227   0.1322   0.0473     N
N       0.4227   0.3678   0.0473     N
N       0.4227   0.6322   0.4527     N
N       0.4227   0.8678   0.4527     N
H       0.4361     0.25   0.2362     H
H       0.4361     0.75   0.2638     H
H        0.437     0.25   0.8187     H
H        0.437     0.75   0.6813     H
H       0.4567   0.0899   0.1261     H
H       0.4567   0.4101   0.1261     H
H       0.4567   0.5899   0.3739     H
H       0.4567   0.9101   0.3739     H
C       0.4571     0.25   0.3186     C
C       0.4571     0.75   0.1814     C
Zn     0.46443     0.25  0.53802    Zn
Zn     0.46443     0.75  0.96198    Zn
C       0.4679     0.25   0.4215     C
C       0.4679     0.75   0.0785     C
C       0.5321     0.25   0.9215     C
C       0.5321     0.75   0.5785     C
Zn     0.53557     0.25  0.03802    Zn
Zn     0.53557     0.75  0.46198    Zn
C       0.5429     0.25   0.8186     C
C       0.5429     0.75   0.6814     C
H       0.5433   0.0899   0.6261     H
H       0.5433   0.4101   0.6261     H
H       0.5433   0.5899   0.8739     H
H       0.5433   0.9101   0.8739     H
H        0.563     0.25   0.3187     H
H        0.563     0.75   0.1813     H
H       0.5639     0.25   0.7362     H
H       0.5639     0.75   0.7638     H
N       0.5773   0.1322   0.5473     N
N       0.5773   0.3678   0.5473     N
N       0.5773   0.6322   0.9527     N
N       0.5773   0.8678   0.9527     N
C       0.5856   0.0768   0.5924     C
C       0.5856   0.4232   0.5924     C
C       0.5856   0.5768   0.9076     C
C       0.5856   0.9232   0.9076     C
O       0.5878     0.25    0.145     O
O       0.5878     0.75    0.355     O
O       0.6076     0.25   0.4216     O
O       0.6076     0.75   0.0784     O
O       0.6167     0.25   0.9642     O
O       0.6167     0.75   0.5358     O
C       0.6177     0.25   0.7687     C
C       0.6177     0.75   0.7313     C
C        0.618     0.25   0.8679     C
C        0.618     0.75   0.6321     C
C       0.6494   0.0885   0.5085     C
C       0.6494   0.4115   0.5085     C
C       0.6494   0.5885   0.9915     C
C       0.6494   0.9115   0.9915     C
H       0.6605   0.1105   0.4733     H
H       0.6605   0.3895   0.4733     H
H       0.6605   0.6105   0.0267     H
H       0.6605   0.8895   0.0267     H
C       0.6649   0.0004     0.58     C
C       0.6649   0.4996     0.58     C
C       0.6649   0.5004     0.92     C
C       0.6649   0.9996     0.92     C
H        0.688   0.0479   0.8968     H
H        0.688   0.4521   0.8968     H
H        0.688   0.5479   0.6032     H
H        0.688   0.9521   0.6032     H
N        0.705   0.0085   0.5258     N
N        0.705   0.4915   0.5258     N
N        0.705   0.5085   0.9742     N
N        0.705   0.9915   0.9742     N
C       0.7168     0.25   0.1243     C
C       0.7168     0.75   0.3757     C
O       0.7363     0.25   0.0733     O
O       0.7363     0.75   0.4267     O
H       0.7421     0.25   0.2304     H
H       0.7421     0.75   0.2696     H
H       0.7661   0.1186   0.9951     H
H       0.7661   0.3814   0.9951     H
H       0.7661   0.6186   0.5049     H
H       0.7661   0.8814   0.5049     H
H       0.7743   0.0044   0.1787     H
H       0.7743   0.4956   0.1787     H
H       0.7743   0.5044   0.3213     H
H       0.7743   0.9956   0.3213     H
C       0.7744     0.25   0.7695     C
C       0.7744     0.75   0.7305     C
H       0.7752     0.25   0.6528     H
H       0.7752     0.75   0.8472     H
C       0.7781     0.25   0.8679     C
C       0.7781     0.75   0.6321     C
H       0.7789   0.0487   0.0431     H
H       0.7789   0.4513   0.0431     H
H       0.7789   0.5487   0.4569     H
H       0.7789   0.9513   0.4569     H
H       0.7901    0.165   0.3251     H
H       0.7901    0.335   0.3251     H
H       0.7901    0.665   0.1749     H
H       0.7901    0.835   0.1749     H
C       0.7975    0.057   0.0046     C
C       0.7975    0.443   0.0046     C
C       0.7975    0.557   0.4954     C
C       0.7975    0.943   0.4954     C
H       0.8314     0.25   0.9005     H
H       0.8314     0.75   0.5995     H
C        0.839     0.25   0.2151     C
C        0.839     0.75   0.2849     C
C        0.856     0.25   0.8192     C
C        0.856     0.75   0.6808     C
C       0.8564     0.25   0.1595     C
C       0.8564     0.75   0.3405     C
C       0.8712     0.25   0.6687     C
C       0.8712     0.75   0.8313     C
H       0.8735   0.0077   0.1259     H
H       0.8735   0.4923   0.1259     H
H       0.8735   0.5077   0.3741     H
H       0.8735   0.9923   0.3741     H
C       0.8763   0.0074   0.1648     C
C       0.8763   0.4926   0.1648     C
C       0.8763   0.5074   0.3352     C
C       0.8763   0.9926   0.3352     C
C       0.8875     0.25   0.7258     C
C       0.8875     0.75   0.7742     C
C       0.8974   0.1642   0.3345     C
C       0.8974   0.3358   0.3345     C
C       0.8974   0.6642   0.1655     C
C       0.8974   0.8358   0.1655     C
H       0.9048   0.1675   0.3737     H
H       0.9048   0.3325   0.3737     H
H       0.9048   0.6675   0.1263     H
H       0.9048   0.8325   0.1263     H
H       0.9245   0.0623   0.1775     H
H       0.9245   0.4377   0.1775     H
H       0.9245   0.5623   0.3225     H
H       0.9245   0.9377   0.3225     H
H       0.9318   0.0695   0.8292     H
H       0.9318   0.4305   0.8292     H
H       0.9318   0.5695   0.6708     H
H       0.9318   0.9305   0.6708     H
C       0.9645   0.0741    0.316     C
C       0.9645   0.4259    0.316     C
C       0.9645   0.5741    0.184     C
C       0.9645   0.9259    0.184     C
C       0.9659     0.25   0.2481     C
C       0.9659     0.75   0.2519     C
C        0.968    0.047   0.9937     C
C        0.968    0.453   0.9937     C
C        0.968    0.547   0.5063     C
C        0.968    0.953   0.5063     C
H       0.9682   0.0733   0.2766     H
H       0.9682   0.4267   0.2766     H
H       0.9682   0.5733   0.2234     H
H       0.9682   0.9267   0.2234     H
C       0.9733     0.25   0.3102     C
C       0.9733     0.75   0.1898     C
H       0.9777    0.092   0.5153     H
H       0.9777    0.408   0.5153     H
H       0.9777    0.592   0.9847     H
H       0.9777    0.908   0.9847     H
H       0.9873   0.0608   0.9558     H
H       0.9873   0.4392   0.9558     H
H       0.9873   0.5608   0.5442     H
H       0.9873   0.9392   0.5442     H
H         0.99     0.25   0.5999     H
H         0.99     0.75   0.9001     H
C       0.9999     0.25   0.1374     C
C       0.9999     0.75   0.3626     C
