data_I
_chemical_name_common  '/Users/gianmarcoterrones/Research/MOFs/MOF_structures/water_stability_work_extra_structs/cleaned_from_CCDC/NABNOU'
_cell_length_a 12.24792
_cell_length_b 12.24792
_cell_length_c 17.46000
_cell_angle_alpha 95.80808
_cell_angle_beta  95.80808
_cell_angle_gamma 110.30377
_space_group_name_H-M_alt      'P 1'


loop_
_space_group_symop_operation_xyz
  'x, y, z' 

loop_
_atom_site_label
_atom_site_fract_x
_atom_site_fract_y
_atom_site_fract_z
_atom_site_type_symbol
H       0.0006   0.3768   0.1196     H
C        0.014   0.1958    0.078     C
H       0.0158   0.2868   0.7553     H
H       0.0179   0.2997   0.6027     H
C       0.0194    0.253   0.5563     C
C       0.0222   0.1182    0.422     C
H       0.0224   0.6842   0.6587     H
H       0.0271   0.0751    0.375     H
C       0.0398   0.7392   0.8078     C
H       0.0431   0.2791    0.215     H
O       0.0445   0.7027   0.2646     O
C       0.0475   0.7069   0.8798     C
H       0.0566   0.2294   0.0352     H
O       0.0646   0.6566   0.1418     O
H       0.0704   0.1828    0.117     H
C       0.0739   0.6481   0.6792     C
H       0.0751   0.0271    0.875     H
C       0.0804   0.9148   0.5455     C
C       0.0819   0.8483    0.479     C
H       0.0849   0.8239   0.8089     H
C       0.0852   0.9196   0.9545     C
C       0.0879   0.6561   0.2103     C
C        0.101   0.6542   0.7593     C
H       0.1029   0.5851   0.5755     H
C       0.1143   0.2111   0.4572     C
N       0.1162   0.2782   0.5208     N
C       0.1182   0.0222    0.922     C
C       0.1224   0.5892     0.63     C
H       0.1298    0.724   0.9035     H
H       0.1314   0.8486   0.0444     H
H       0.1514   0.8686   0.4556     H
C       0.1517   0.9181    0.021     C
H       0.1538   0.6204   0.3564     H
C       0.1619   0.5917   0.2384     C
C       0.1755   0.6011   0.7853     C
H       0.1761   0.9151   0.6911     H
H       0.1828   0.0704    0.617     H
H       0.1843   0.2301   0.4342     H
C       0.1844   0.5816   0.3189     C
H       0.1956   0.6034   0.8396     H
C       0.1958    0.014    0.578     C
N       0.1964   0.5368   0.6559     N
H       0.1972   0.5396   0.1324     H
C       0.2087   0.5329   0.1861     C
C       0.2111   0.1143   0.9572     C
C       0.2213   0.5441    0.733     C
O       0.2229   0.5521   0.4748     O
H       0.2294   0.0566   0.5352     H
H       0.2301   0.1843   0.9342     H
C       0.2483   0.5181    0.342     C
C        0.253   0.0194   0.0563     C
C       0.2608   0.9602   0.6922     C
C       0.2688   0.5066   0.4276     C
C       0.2713   0.4653   0.2104     C
H       0.2735   0.5079   0.7525     H
H        0.276   0.8702   0.5965     H
N       0.2782   0.1162   0.0208     N
H       0.2791   0.0431    0.715     H
Cd     0.28356  0.44226  0.57255    Cd
H       0.2868   0.0158   0.2553     H
C       0.2921   0.4593   0.2885     C
C       0.2931   0.9525   0.6202     C
O       0.2973   0.9555   0.2354     O
H       0.2997   0.0179   0.1027     H
H       0.3158   0.9776   0.8413     H
C       0.3165   0.3981   0.1542     C
O       0.3195   0.3491   0.6773     O
O       0.3226   0.4188   0.0857     O
O       0.3284   0.4452   0.4465     O
H       0.3368   0.4144   0.3058     H
O       0.3434   0.9354   0.3582     O
C       0.3439   0.9121   0.2897     C
C       0.3458    0.899   0.7407     C
O       0.3491   0.3195   0.1773     O
C       0.3519   0.9261   0.8208     C
H       0.3768   0.0006   0.6196     H
H       0.3796   0.8462   0.1436     H
H       0.3966   0.8044   0.6604     H
C       0.3981   0.3165   0.6542     C
C       0.3989   0.8245   0.7147     C
H        0.407    0.511   0.8417     H
C       0.4083   0.8381   0.2616     C
C       0.4108   0.8776     0.87     C
O       0.4142   0.5278   0.8925     O
H       0.4144   0.3368   0.8058     H
H       0.4149   0.8971   0.9245     H
C       0.4184   0.8156   0.1811     C
O       0.4188   0.3226   0.5857     O
H        0.436    0.476    0.915     H
Cd     0.44226  0.28356  0.07255    Cd
O       0.4452   0.3284   0.9465     O
O       0.4479   0.7771   0.0252     O
C       0.4559   0.7787    0.767     C
C       0.4593   0.2921   0.7885     C
H       0.4604   0.8028   0.3676     H
N       0.4632   0.8036   0.8441     N
C       0.4653   0.2713   0.7104     C
C       0.4671   0.7913   0.3139     C
O       0.4722   0.5858   0.6075     O
H        0.476    0.436    0.415     H
C       0.4819   0.7517    0.158     C
H        0.489    0.593   0.6583     H
H       0.4921   0.7265   0.7475     H
C       0.4934   0.7312   0.0724     C
C       0.5066   0.2688   0.9276     C
H       0.5079   0.2735   0.2525     H
H        0.511    0.407   0.3417     H
C       0.5181   0.2483    0.842     C
H        0.524    0.564    0.585     H
O       0.5278   0.4142   0.3925     O
C       0.5329   0.2087   0.6861     C
C       0.5347   0.7287   0.2896     C
N       0.5368   0.1964   0.1559     N
H       0.5396   0.1972   0.6324     H
C       0.5407   0.7079   0.2115     C
C       0.5441   0.2213    0.233     C
O       0.5521   0.2229   0.9748     O
O       0.5548   0.6716   0.0535     O
Cd     0.55774  0.71644  0.92745    Cd
H        0.564    0.524    0.085     H
O       0.5812   0.6774   0.4143     O
C       0.5816   0.1844   0.8189     C
H       0.5851   0.1029   0.0755     H
H       0.5856   0.6632   0.1942     H
O       0.5858   0.4722   0.1075     O
C       0.5892   0.1224     0.13     C
C       0.5917   0.1619   0.7384     C
H        0.593    0.489   0.1583     H
C       0.6011   0.1755   0.2853     C
C       0.6019   0.6835   0.3458     C
H       0.6034   0.1956   0.3396     H
H       0.6204   0.1538   0.8564     H
H       0.6232   0.9994   0.3804     H
C       0.6481   0.0739   0.1792     C
O       0.6509   0.6805   0.8227     O
C       0.6542    0.101   0.2593     C
C       0.6561   0.0879   0.7103     C
O       0.6566   0.0646   0.6418     O
H       0.6632   0.5856   0.6942     H
O       0.6716   0.5548   0.5535     O
O       0.6774   0.5812   0.9143     O
O       0.6805   0.6509   0.3227     O
C       0.6835   0.6019   0.8458     C
H       0.6842   0.0224   0.1587     H
H       0.7003   0.9821   0.8973     H
O       0.7027   0.0445   0.7646     O
C       0.7069   0.0475   0.3798     C
C       0.7079   0.5407   0.7115     C
H       0.7132   0.9842   0.7447     H
Cd     0.71644  0.55774  0.42745    Cd
H       0.7209   0.9569    0.285     H
N       0.7218   0.8838   0.9792     N
H        0.724   0.1298   0.4035     H
H       0.7265   0.4921   0.2475     H
C       0.7287   0.5347   0.7896     C
C       0.7312   0.4934   0.5724     C
C       0.7392   0.0398   0.3078     C
C        0.747   0.9806   0.9437     C
C       0.7517   0.4819    0.658     C
H       0.7699   0.8157   0.0658     H
H       0.7706   0.9434   0.4648     H
O       0.7771   0.4479   0.5252     O
C       0.7787   0.4559    0.267     C
C       0.7889   0.8857   0.0428     C
C       0.7913   0.4671   0.8139     C
H       0.8028   0.4604   0.8676     H
N       0.8036   0.4632   0.3441     N
C       0.8042    0.986    0.422     C
H       0.8044   0.3966   0.1604     H
C       0.8156   0.4184   0.6811     C
H       0.8157   0.7699   0.5658     H
H       0.8172   0.9296    0.383     H
H       0.8239   0.0849   0.3089     H
C       0.8245   0.3989   0.2147     C
C       0.8381   0.4083   0.7616     C
H       0.8462   0.3796   0.6436     H
C       0.8483   0.0819    0.979     C
H       0.8486   0.1314   0.5444     H
H       0.8686   0.1514   0.9556     H
H       0.8702    0.276   0.0965     H
C       0.8776   0.4108     0.37     C
C       0.8818   0.9778    0.078     C
N       0.8838   0.7218   0.4792     N
C       0.8857   0.7889   0.5428     C
H       0.8971   0.4149   0.4245     H
C        0.899   0.3458   0.2407     C
C       0.9121   0.3439   0.7897     C
C       0.9148   0.0804   0.0455     C
H       0.9151   0.1761   0.1911     H
C       0.9181   0.1517    0.521     C
C       0.9196   0.0852   0.4545     C
H       0.9249   0.9729    0.125     H
C       0.9261   0.3519   0.3208     C
H       0.9296   0.8172    0.883     H
O       0.9354   0.3434   0.8582     O
H       0.9434   0.7706   0.9648     H
C       0.9525   0.2931   0.1202     C
O       0.9555   0.2973   0.7354     O
H       0.9569   0.7209    0.785     H
C       0.9602   0.2608   0.1922     C
H       0.9729   0.9249    0.625     H
H       0.9776   0.3158   0.3413     H
C       0.9778   0.8818    0.578     C
C       0.9806    0.747   0.4437     C
H       0.9821   0.7003   0.3973     H
H       0.9842   0.7132   0.2447     H
C        0.986   0.8042    0.922     C
H       0.9994   0.6232   0.8804     H
