data_I
_chemical_name_common  '/Users/gianmarcoterrones/Research/MOFs/MOF_structures/water_stability_work_extra_structs/cleaned_from_CCDC/NAGQOC02'
_cell_length_a  6.93700
_cell_length_b  8.96300
_cell_length_c 12.97900
_cell_angle_alpha 85.17000
_cell_angle_beta  77.56000
_cell_angle_gamma 83.54000
_space_group_name_H-M_alt      'P 1'


loop_
_space_group_symop_operation_xyz
  'x, y, z' 

loop_
_atom_site_label
_atom_site_fract_x
_atom_site_fract_y
_atom_site_fract_z
_atom_site_type_symbol
H       0.0195   0.6348   0.6773     H
H       0.0408   0.0753      0.1     H
O      0.07166  0.20632  0.56783     O
H       0.0877   0.4008   0.8086     H
H       0.1112   0.2213   0.8068     H
C       0.1249  0.34228  0.30658     C
H        0.126     0.13   0.5468     H
H         0.13    0.281   0.5339     H
H       0.1597   0.2417   0.3371     H
O      0.16671  0.93353  0.24868     O
H       0.1732   0.3455   0.2298     H
C      0.18103  0.31015  0.80792     C
C       0.1855  0.07503  0.08258     C
C      0.21919  0.45674  0.35288     C
H       0.2209   0.1788   0.0748     H
Mg     0.22522  0.78575  0.37164    Mg
O      0.22551  0.58675  0.30645     O
H       0.2375   0.3024   0.8714     H
H       0.2379   0.9245   0.6881     H
H       0.2385   0.0263   0.0162     H
O      0.24516  0.94311  0.48549     O
C      0.27134  0.99067  0.16918     C
O       0.2842  0.41973  0.43596     O
C      0.30487  0.83493   0.5433     C
O       0.3248  0.70284  0.51127     O
C      0.34491  0.31921  0.71118     C
O      0.34592  0.43024  0.64722     O
C      0.34876  0.86146  0.64801     C
H       0.3671   0.7648   0.6877     H
O      0.46424  0.98318   0.1539     O
H       0.4701   0.9124   0.6367     H
O      0.47946  0.20701  0.70057     O
H          0.5    0.084   0.7944     H
Mg         0.5      0.5      0.5    Mg
H          0.5    0.916   0.2056     H
O      0.52054  0.79299  0.29943     O
H       0.5299   0.0876   0.3633     H
O      0.53576  0.01682   0.8461     O
H       0.6329   0.2352   0.3123     H
C      0.65124  0.13854  0.35199     C
O      0.65408  0.56976  0.35278     O
C      0.65509  0.68079  0.28882     C
O       0.6752  0.29716  0.48873     O
C      0.69513  0.16507   0.4567     C
O       0.7158  0.58027  0.56404     O
C      0.72866  0.00933  0.83082     C
O      0.75484  0.05689  0.51451     O
H       0.7615   0.9737   0.9838     H
H       0.7621   0.0755   0.3119     H
H       0.7625   0.6976   0.1286     H
O      0.77449  0.41325  0.69355     O
Mg     0.77478  0.21425  0.62836    Mg
H       0.7791   0.8212   0.9252     H
C      0.78081  0.54326  0.64712     C
C       0.8145  0.92497  0.91742     C
C      0.81897  0.68985  0.19208     C
H       0.8268   0.6545   0.7702     H
O      0.83329  0.06647  0.75132     O
H       0.8403   0.7583   0.6629     H
H         0.87    0.719   0.4661     H
H        0.874     0.87   0.4532     H
C       0.8751  0.65772  0.69342     C
H       0.8888   0.7787   0.1932     H
H       0.9123   0.5992   0.1914     H
O      0.92834  0.79368  0.43217     O
H       0.9592   0.9247      0.9     H
H       0.9805   0.3652   0.3227     H
