data_I
_chemical_name_common  '/Users/gianmarcoterrones/Downloads/Ni-HF_no_solvent'
_cell_length_a 24.09450
_cell_length_b  8.19842
_cell_length_c 11.30720
_cell_angle_alpha 90.00000
_cell_angle_beta  90.00000
_cell_angle_gamma 90.00000
_space_group_name_H-M_alt      'P 1'


loop_
_space_group_symop_operation_xyz
  'x, y, z' 

loop_
_atom_site_label
_atom_site_fract_x
_atom_site_fract_y
_atom_site_fract_z
_atom_site_type_symbol
C          0.0      0.5  0.15865     C
C      0.00012  0.65589  0.08074     C
F     0.0102913  0.78855  0.14314     F
H       0.0179    0.343     0.36     H
F     0.0372911  0.64967  0.99302     F
F     0.0496411  0.32455  0.02814     F
C     0.0506813  0.39585  0.33964     C
C     0.0527614  0.48785  0.23684     C
O     0.0692816  0.36694  0.61194     O
C     0.0890013  0.28975  0.52884     C
C     0.0970013  0.38135  0.41284     C
O     0.100789  0.13794  0.52914     O
C     0.1027116  0.56387  0.20514     C
H       0.1051   0.6236   0.1354     H
H       0.1069   0.9987   0.1254     H
H       0.1121   0.9905   0.3266     H
H       0.1286   0.9093   0.9389     H
H       0.1302   0.9154   0.7368     H
C     0.1389616  0.03487  0.16304     C
H       0.1422   0.7926   0.5413     H
C     0.1422016  0.03047  0.28414     C
C     0.1461616  0.46005  0.38284     C
C     0.1482216  0.54887  0.27834     C
C      0.15012  0.98687  0.90014     C
C      0.15112  0.99187  0.77824     C
O     0.171091  0.84454  0.53324     O
N     0.1806212  0.10084  0.71642     N
H       0.1812   0.5997   0.2571     H
C     0.1812916  0.09735  0.96444     C
C     0.1830916  0.09265  0.09594     C
Ni    0.18500317 0.090665 0.529404    Ni
N     0.1872912  0.08174  0.34382     N
H       0.1951   0.7849   0.5023     H
C     0.1974612  0.45214  0.45944     C
O     0.205169  0.33544  0.52852     O
C     0.2095818  0.20977  0.77894     C
C      0.21102  0.21307  0.89994     C
C     0.2298917  0.14157  0.15864     C
H         0.23   0.2877   0.7378     H
C     0.2303516  0.13465  0.28084     C
O     0.230629  0.57034  0.44822     O
H       0.2316   0.2922    0.939     H
H       0.2379   0.6682   0.6794     H
H        0.239   0.6791   0.8818     H
H        0.261   0.1791   0.1182     H
H       0.2621   0.1682   0.3206     H
H       0.2684   0.7922    0.061     H
O     0.269389  0.07034  0.55182     O
C     0.2696516  0.63465  0.71924     C
H         0.27   0.7877   0.2622     H
C     0.2701117  0.64157  0.84144     C
C      0.28902  0.71307  0.10014     C
C     0.2904218  0.70977  0.22114     C
O     0.294849  0.83544  0.47152     O
C     0.3025412  0.95214  0.54064     C
H       0.3049   0.2849   0.4977     H
N     0.3127112  0.58174  0.65622     N
Ni    0.31499717 0.590665 0.470604    Ni
C     0.3169116  0.59265  0.90414     C
C     0.3187116  0.59735  0.03564     C
H       0.3188   0.0997   0.7429     H
N     0.3193812  0.60084  0.28362     N
O     0.328911  0.34454  0.46684     O
C      0.34892  0.49187  0.22184     C
C      0.34992  0.48687  0.09994     C
C     0.3517816  0.04887  0.72174     C
C     0.3538416  0.96005  0.61724     C
H       0.3578   0.2926   0.4587     H
C     0.3578016  0.53047  0.71594     C
C     0.3610416  0.53487  0.83704     C
H       0.3698   0.4154   0.2632     H
H       0.3714   0.4093   0.0611     H
H       0.3879   0.4905   0.6734     H
H       0.3931   0.4987   0.8746     H
H       0.3949   0.1236   0.8646     H
C     0.3972916  0.06387  0.79494     C
O     0.399229  0.63794  0.47094     O
C     0.4030013  0.88135  0.58724     C
C     0.4110013  0.78975  0.47124     C
O     0.4307216  0.86694  0.38814     O
C     0.4472414  0.98785  0.76324     C
C     0.4493213  0.89585  0.66044     C
F     0.4503611  0.82455  0.97194     F
F     0.4627111  0.14967  0.00702     F
H       0.4821    0.843     0.64     H
F     0.4897113  0.28855  0.85694     F
C      0.49992  0.15589  0.91934     C
C          0.5      0.0  0.84145     C
C      0.50012  0.84429  0.91934     C
F     0.5102913  0.71155  0.85694     F
H       0.5179    0.157     0.64     H
F     0.5372911  0.85047  0.00702     F
F     0.5496411  0.17555  0.97194     F
C     0.5506813  0.10425  0.66044     C
C     0.5527614  0.01225  0.76324     C
O     0.5692816  0.13314  0.38814     O
C     0.5890013  0.21035  0.47124     C
C     0.5970013  0.11875  0.58724     C
O     0.600789  0.36214  0.47094     O
C     0.6027116  0.93627  0.79494     C
H       0.6051   0.8764   0.8646     H
H       0.6069   0.5013   0.8746     H
H       0.6121   0.5095   0.6734     H
H       0.6286   0.5907   0.0611     H
H       0.6302   0.5846   0.2632     H
C     0.6389616  0.46527  0.83704     C
H       0.6422   0.7074   0.4587     H
C     0.6422016  0.46967  0.71594     C
C     0.6461616  0.04005  0.61724     C
C     0.6482216  0.95127  0.72174     C
C      0.65012  0.51327  0.09994     C
C      0.65112  0.50827  0.22184     C
O     0.671091  0.65554  0.46684     O
N     0.6806212  0.39924  0.28362     N
H       0.6812   0.9003   0.7429     H
C     0.6812916  0.40275  0.03564     C
C     0.6830916  0.40745  0.90414     C
Ni    0.68500317 0.409345 0.470604    Ni
N     0.6872912  0.41834  0.65622     N
H       0.6951   0.7151   0.4977     H
C     0.6974612  0.04794  0.54064     C
O     0.705169  0.16464  0.47152     O
C     0.7095818  0.29037  0.22114     C
C      0.71102  0.28707  0.10014     C
C     0.7298917  0.35857  0.84144     C
H         0.73   0.2123   0.2622     H
C     0.7303516  0.36545  0.71924     C
O     0.730629  0.92974  0.55182     O
H       0.7316   0.2078    0.061     H
H       0.7379   0.8318   0.3206     H
H        0.739   0.8209   0.1182     H
H        0.761   0.3209   0.8818     H
H       0.7621   0.3318   0.6794     H
H       0.7684   0.7078    0.939     H
O     0.769389  0.42974  0.44822     O
C     0.7696516  0.86545  0.28084     C
H         0.77   0.7123   0.7378     H
C     0.7701117  0.85857  0.15864     C
C      0.78902  0.78707  0.89994     C
C     0.7904218  0.79037  0.77894     C
O     0.794849  0.66464  0.52852     O
C     0.8025412  0.54794  0.45944     C
H       0.8049   0.2151   0.5023     H
N     0.8127112  0.91834  0.34382     N
Ni    0.81499717 0.909345 0.529404    Ni
C     0.8169116  0.90745  0.09594     C
C     0.8187116  0.90275  0.96444     C
H       0.8188   0.4003   0.2571     H
N     0.8193812  0.89924  0.71642     N
O     0.828911  0.15554  0.53324     O
C      0.84892  0.00827  0.77824     C
C      0.84992  0.01327  0.90014     C
C     0.8517816  0.45127  0.27834     C
C     0.8538416  0.54005  0.38284     C
H       0.8578   0.2074   0.5413     H
C     0.8578016  0.96967  0.28414     C
C     0.8610416  0.96527  0.16304     C
H       0.8698   0.0846   0.7368     H
H       0.8714   0.0907   0.9389     H
H       0.8879   0.0095   0.3266     H
H       0.8931   0.0013   0.1254     H
H       0.8949   0.3764   0.1354     H
C     0.8972916  0.43627  0.20514     C
O     0.899229  0.86214  0.52914     O
C     0.9030013  0.61875  0.41284     C
C     0.9110013  0.71035  0.52884     C
O     0.9307216  0.63314  0.61194     O
C     0.9472414  0.51225  0.23684     C
C     0.9493213  0.60425  0.33964     C
F     0.9503611  0.67555  0.02814     F
F     0.9627111  0.35047  0.99302     F
H       0.9821    0.657     0.36     H
F     0.9897113  0.21155  0.14314     F
C      0.99992  0.34429  0.08074     C
