data_I
_chemical_name_common  '/Users/gianmarcoterrones/Downloads/Ni2(C2O4)(L16)2'
_cell_length_a 19.86634
_cell_length_b 21.82894
_cell_length_c 11.63842
_cell_angle_alpha 90.00000
_cell_angle_beta  116.93530
_cell_angle_gamma 90.00000
_space_group_name_H-M_alt      'P 1'


loop_
_space_group_symop_operation_xyz
  'x, y, z' 

loop_
_atom_site_label
_atom_site_fract_x
_atom_site_fract_y
_atom_site_fract_z
_atom_site_type_symbol
H       0.0139   0.2928   0.8802     H
H       0.0139   0.7072   0.8802     H
C     0.0197812 0.260911  0.82992     C
C     0.0197812 0.739091  0.82992     C
C     0.0265512 0.2000711 0.3613518     C
C     0.0265512 0.7999311 0.3613518     C
C     0.0384211 0.246861 0.2916218     C
C     0.0384211 0.753141 0.2916218     C
C     0.0408211 0.168261 0.6927918     C
C     0.0408211 0.831741 0.6927918     C
H       0.0479   0.1357   0.6453     H
H       0.0479   0.8643   0.6453     H
H       0.0644   0.1901   0.4453     H
H       0.0644   0.8099   0.4453     H
C     0.0861611 0.227709 0.8758318     C
C     0.0861611 0.772309 0.8758318     C
N     0.096999 0.181568 0.8104114     N
N     0.096999 0.818448 0.8104114     N
C     0.1110411 0.280371 0.3465018     C
C     0.1110411 0.719631 0.3465018     C
O     0.114787 0.051286 0.8592712     O
O     0.114787 0.948726 0.8592712     O
H        0.121   0.1175   0.0724     H
H        0.121   0.8825   0.0724     H
H       0.1244   0.2869   0.1821     H
H       0.1244   0.7131   0.1821     H
H       0.1259   0.2381   0.9577     H
H       0.1259   0.7619   0.9577     H
H       0.1366   0.3141   0.6752     H
H       0.1366   0.6859   0.6752     H
N     0.141009 0.292368 0.4731816     N
N     0.141009 0.707648 0.4731816     N
C     0.1462414      0.0  0.87422     C
C     0.1467311 0.296291 0.2714218     C
C     0.1467311 0.703711 0.2714218     C
H       0.1584   0.1375   0.2882     H
H       0.1584   0.8625   0.2882     H
C     0.1708911 0.131731  0.12452     C
C     0.1708911 0.868271  0.12452     C
H       0.1797   0.3353   0.8917     H
H       0.1797   0.6647   0.8917     H
C     0.1868612 0.3282011  0.72512     C
C     0.1868612 0.6718011  0.72512     C
Ni    0.187262 0.122472 0.881813    Ni
Ni    0.187262 0.877532 0.881813    Ni
O     0.188118 0.120477 0.6982713     O
O     0.188118 0.879537 0.6982713     O
C     0.1929711 0.1434111  0.25352     C
C     0.1929711 0.8565911  0.25352     C
C     0.2068511 0.322591 0.5289717     C
C     0.2068511 0.677411 0.5289717     C
H       0.2073    0.138   0.4975     H
H       0.2073    0.862   0.4975     H
C     0.2130811 0.340831  0.85452     C
C     0.2130811 0.659171  0.85452     C
C     0.2157911 0.326271 0.3306618     C
C     0.2157911 0.673731 0.3306618     C
N     0.216869 0.139587 0.0700914     N
N     0.216869 0.860427 0.0700914     N
C     0.2324914      0.0  0.91722     C
O     0.233847 0.321666 0.1417112     O
O     0.233847 0.678346 0.1417112     O
C     0.2346911 0.336299 0.6685817     C
C     0.2346911 0.663719 0.6685817     C
O     0.235937 0.448806 0.0662513     O
O     0.235937 0.551206 0.0662513     O
C     0.2436511 0.156609 0.7466617     C
C     0.2436511 0.843409 0.7466617     C
C     0.2461911 0.340541 0.4606918     C
C     0.2461911 0.659461 0.4606918     C
C     0.2538111 0.159461 0.5393118     C
C     0.2538111 0.840541 0.5393118     C
C     0.2563511 0.343409 0.2533417     C
C     0.2563511 0.656609 0.2533417     C
O     0.264077 0.051206 0.9337513     O
O     0.264077 0.948806 0.9337513     O
C     0.2653111 0.163719 0.3314217     C
C     0.2653111 0.836299 0.3314217     C
O     0.266167 0.178346 0.8582912     O
O     0.266167 0.821666 0.8582912     O
C     0.2675114      0.5  0.08282     C
N     0.283149 0.360427 0.9299114     N
N     0.283149 0.639587 0.9299114     N
C     0.2842111 0.173731 0.6693418     C
C     0.2842111 0.826271 0.6693418     C
C     0.2869211 0.159171  0.14552     C
C     0.2869211 0.840831  0.14552     C
H       0.2927    0.362   0.5025     H
H       0.2927    0.638   0.5025     H
C     0.2931511 0.177411 0.4710317     C
C     0.2931511 0.822591 0.4710317     C
C     0.3070311 0.3565911  0.74652     C
C     0.3070311 0.6434111  0.74652     C
O     0.311898 0.379537 0.3017313     O
O     0.311898 0.620477 0.3017313     O
Ni    0.312742 0.377532 0.118193    Ni
Ni    0.312742 0.622472 0.118193    Ni
C     0.3131412 0.1718011  0.27492     C
C     0.3131412 0.8282011  0.27492     C
H       0.3203   0.1647   0.1083     H
H       0.3203   0.8353   0.1083     H
C     0.3291111 0.368271  0.87552     C
C     0.3291111 0.631731  0.87552     C
H       0.3416   0.3625   0.7118     H
H       0.3416   0.6375   0.7118     H
C     0.3532711 0.203711 0.7285818     C
C     0.3532711 0.796291 0.7285818     C
C     0.3537614      0.5  0.12582     C
N     0.359009 0.207648 0.5268216     N
N     0.359009 0.792368 0.5268216     N
H       0.3634   0.1859   0.3248     H
H       0.3634   0.8141   0.3248     H
H       0.3741   0.2619   0.0423     H
H       0.3741   0.7381   0.0423     H
H       0.3756   0.2131   0.8179     H
H       0.3756   0.7869   0.8179     H
H        0.379   0.3825   0.9276     H
H        0.379   0.6175   0.9276     H
O     0.385227 0.448726 0.1407312     O
O     0.385227 0.551286 0.1407312     O
C     0.3889611 0.219631 0.6535018     C
C     0.3889611 0.780371 0.6535018     C
N     0.403019 0.318448 0.1895914     N
N     0.403019 0.681568 0.1895914     N
C     0.4138411 0.272309 0.1241718     C
C     0.4138411 0.727709 0.1241718     C
H       0.4356   0.3099   0.5547     H
H       0.4356   0.6901   0.5547     H
H       0.4521   0.3643   0.3547     H
H       0.4521   0.6357   0.3547     H
C     0.4591811 0.331741 0.3072118     C
C     0.4591811 0.668261 0.3072118     C
C     0.4615811 0.253141 0.7083818     C
C     0.4615811 0.746861 0.7083818     C
C     0.4734512 0.2999311 0.6386518     C
C     0.4734512 0.7000711 0.6386518     C
C     0.4802212 0.239091  0.17012     C
C     0.4802212 0.760911  0.17012     C
H       0.4861   0.2072   0.1198     H
H       0.4861   0.7928   0.1198     H
H       0.5139   0.2072   0.8802     H
H       0.5139   0.7928   0.8802     H
C     0.5197812 0.239091  0.82992     C
C     0.5197812 0.760911  0.82992     C
C     0.5265512 0.2999311 0.3613518     C
C     0.5265512 0.7000711 0.3613518     C
C     0.5384211 0.253141 0.2916218     C
C     0.5384211 0.746861 0.2916218     C
C     0.5408211 0.331741 0.6927918     C
C     0.5408211 0.668261 0.6927918     C
H       0.5479   0.3643   0.6453     H
H       0.5479   0.6357   0.6453     H
H       0.5644   0.3099   0.4453     H
H       0.5644   0.6901   0.4453     H
C     0.5861611 0.272309 0.8758318     C
C     0.5861611 0.727709 0.8758318     C
N     0.596999 0.318448 0.8104114     N
N     0.596999 0.681568 0.8104114     N
C     0.6110411 0.219631 0.3465018     C
C     0.6110411 0.780371 0.3465018     C
O     0.614787 0.448726 0.8592712     O
O     0.614787 0.551286 0.8592712     O
H        0.621   0.3825   0.0724     H
H        0.621   0.6175   0.0724     H
H       0.6244   0.2131   0.1821     H
H       0.6244   0.7869   0.1821     H
H       0.6259   0.2619   0.9577     H
H       0.6259   0.7381   0.9577     H
H       0.6366   0.1859   0.6752     H
H       0.6366   0.8141   0.6752     H
N     0.641009 0.207648 0.4731816     N
N     0.641009 0.792368 0.4731816     N
C     0.6462414      0.5  0.87422     C
C     0.6467311 0.203711 0.2714218     C
C     0.6467311 0.796291 0.2714218     C
H       0.6584   0.3625   0.2882     H
H       0.6584   0.6375   0.2882     H
C     0.6708911 0.368271  0.12452     C
C     0.6708911 0.631731  0.12452     C
H       0.6797   0.1647   0.8917     H
H       0.6797   0.8353   0.8917     H
C     0.6868612 0.1718011  0.72512     C
C     0.6868612 0.8282011  0.72512     C
Ni    0.687262 0.377532 0.881813    Ni
Ni    0.687262 0.622472 0.881813    Ni
O     0.688118 0.379537 0.6982713     O
O     0.688118 0.620477 0.6982713     O
C     0.6929711 0.3565911  0.25352     C
C     0.6929711 0.6434111  0.25352     C
C     0.7068511 0.177411 0.5289717     C
C     0.7068511 0.822591 0.5289717     C
H       0.7073    0.362   0.4975     H
H       0.7073    0.638   0.4975     H
C     0.7130811 0.159171  0.85452     C
C     0.7130811 0.840831  0.85452     C
C     0.7157911 0.173731 0.3306618     C
C     0.7157911 0.826271 0.3306618     C
N     0.716869 0.360427 0.0700914     N
N     0.716869 0.639587 0.0700914     N
C     0.7324914      0.5  0.91722     C
O     0.733847 0.178346 0.1417112     O
O     0.733847 0.821666 0.1417112     O
C     0.7346911 0.163719 0.6685817     C
C     0.7346911 0.836299 0.6685817     C
O     0.735937 0.051206 0.0662513     O
O     0.735937 0.948806 0.0662513     O
C     0.7436511 0.343409 0.7466617     C
C     0.7436511 0.656609 0.7466617     C
C     0.7461911 0.159461 0.4606918     C
C     0.7461911 0.840541 0.4606918     C
C     0.7538111 0.340541 0.5393118     C
C     0.7538111 0.659461 0.5393118     C
C     0.7563511 0.156609 0.2533417     C
C     0.7563511 0.843409 0.2533417     C
O     0.764077 0.448806 0.9337513     O
O     0.764077 0.551206 0.9337513     O
C     0.7653111 0.336299 0.3314217     C
C     0.7653111 0.663719 0.3314217     C
O     0.766167 0.321666 0.8582912     O
O     0.766167 0.678346 0.8582912     O
C     0.7675114      0.0  0.08282     C
N     0.783149 0.139587 0.9299114     N
N     0.783149 0.860427 0.9299114     N
C     0.7842111 0.326271 0.6693418     C
C     0.7842111 0.673731 0.6693418     C
C     0.7869211 0.340831  0.14552     C
C     0.7869211 0.659171  0.14552     C
H       0.7927    0.138   0.5025     H
H       0.7927    0.862   0.5025     H
C     0.7931511 0.322591 0.4710317     C
C     0.7931511 0.677411 0.4710317     C
C     0.8070311 0.1434111  0.74652     C
C     0.8070311 0.8565911  0.74652     C
O     0.811898 0.120477 0.3017313     O
O     0.811898 0.879537 0.3017313     O
Ni    0.812742 0.122472 0.118193    Ni
Ni    0.812742 0.877532 0.118193    Ni
C     0.8131412 0.3282011  0.27492     C
C     0.8131412 0.6718011  0.27492     C
H       0.8203   0.3353   0.1083     H
H       0.8203   0.6647   0.1083     H
C     0.8291111 0.131731  0.87552     C
C     0.8291111 0.868271  0.87552     C
H       0.8416   0.1375   0.7118     H
H       0.8416   0.8625   0.7118     H
C     0.8532711 0.296291 0.7285818     C
C     0.8532711 0.703711 0.7285818     C
C     0.8537614      0.0  0.12582     C
N     0.859009 0.292368 0.5268216     N
N     0.859009 0.707648 0.5268216     N
H       0.8634   0.3141   0.3248     H
H       0.8634   0.6859   0.3248     H
H       0.8741   0.2381   0.0423     H
H       0.8741   0.7619   0.0423     H
H       0.8756   0.2869   0.8179     H
H       0.8756   0.7131   0.8179     H
H        0.879   0.1175   0.9276     H
H        0.879   0.8825   0.9276     H
O     0.885227 0.051286 0.1407312     O
O     0.885227 0.948726 0.1407312     O
C     0.8889611 0.280371 0.6535018     C
C     0.8889611 0.719631 0.6535018     C
N     0.903019 0.181568 0.1895914     N
N     0.903019 0.818448 0.1895914     N
C     0.9138411 0.227709 0.1241718     C
C     0.9138411 0.772309 0.1241718     C
H       0.9356   0.1901   0.5547     H
H       0.9356   0.8099   0.5547     H
H       0.9521   0.1357   0.3547     H
H       0.9521   0.8643   0.3547     H
C     0.9591811 0.168261 0.3072118     C
C     0.9591811 0.831741 0.3072118     C
C     0.9615811 0.246861 0.7083818     C
C     0.9615811 0.753141 0.7083818     C
C     0.9734512 0.2000711 0.6386518     C
C     0.9734512 0.7999311 0.6386518     C
C     0.9802212 0.260911  0.17012     C
C     0.9802212 0.739091  0.17012     C
H       0.9861   0.2928   0.1198     H
H       0.9861   0.7072   0.1198     H
