data_I
_chemical_name_common  '/Users/gianmarcoterrones/Downloads/Ni3(BTP)2'
_cell_length_a 18.54909
_cell_length_b 18.54909
_cell_length_c 18.54909
_cell_angle_alpha 90.00000
_cell_angle_beta  90.00000
_cell_angle_gamma 90.00000
_space_group_name_H-M_alt      'P 1'


loop_
_space_group_symop_operation_xyz
  'x, y, z' 

loop_
_atom_site_label
_atom_site_fract_x
_atom_site_fract_y
_atom_site_fract_z
_atom_site_type_symbol
O          0.0    0.265      0.5     O
Ni         0.0  0.38123      0.5    Ni
O          0.0      0.5    0.265     O
Ni         0.0      0.5  0.38123    Ni
Ni         0.0      0.5  0.61883    Ni
O          0.0      0.5    0.735     O
Ni         0.0  0.61883      0.5    Ni
O          0.0    0.735      0.5     O
N     0.084999 0.380089 0.431933     N
N     0.084999 0.380089 0.568066     N
N     0.084999 0.431933 0.380089     N
N     0.084999 0.431933 0.619911     N
N     0.084999 0.568066 0.380089     N
N     0.084999 0.568066 0.619911     N
N     0.084999 0.619911 0.431933     N
N     0.084999 0.619911 0.568066     N
C     0.134306 0.329203 0.413089     C
C     0.134306 0.329203 0.586911     C
C     0.134306 0.413089 0.329203     C
C     0.134306 0.413089 0.670797     C
C     0.134306 0.586911 0.329203     C
C     0.134306 0.586911 0.670797     C
C     0.134306 0.670797 0.413089     C
C     0.134306 0.670797 0.586911     C
H     0.145497 0.286847 0.439618     H
H     0.145497 0.286847 0.560382     H
H     0.145497 0.439618 0.286847     H
H     0.145497 0.439618 0.713153     H
H     0.145497 0.560382 0.286847     H
H     0.145497 0.560382 0.713153     H
H     0.145497 0.713153 0.439618     H
H     0.145497 0.713153 0.560382     H
C      0.16478 0.349598 0.349598     C
C      0.16478 0.349598 0.650402     C
C      0.16478 0.650402 0.349598     C
C      0.16478 0.650402 0.650402     C
C     0.220055 0.310512 0.310512     C
C     0.220055 0.310512 0.689488     C
C     0.220055 0.689488 0.310512     C
C     0.220055 0.689488 0.689488     C
H     0.227329 0.228442 0.381834     H
H     0.227329 0.228442 0.618166     H
H     0.227329 0.381834 0.228442     H
H     0.227329 0.381834 0.771558     H
H     0.227329 0.618166 0.228442     H
H     0.227329 0.618166 0.771558     H
H     0.227329 0.771558 0.381834     H
H     0.227329 0.771558 0.618166     H
C     0.245889  0.24655 0.337667     C
C     0.245889  0.24655 0.662333     C
C     0.245889 0.337667  0.24655     C
C     0.245889 0.337667 0.753451     C
C     0.245889 0.662333  0.24655     C
C     0.245889 0.662333 0.753451     C
C     0.245889 0.753451 0.337667     C
C     0.245889 0.753451 0.662333     C
O        0.265      0.0      0.5     O
O        0.265      0.5      0.0     O
H     0.286847 0.145497 0.439618     H
H     0.286847 0.145497 0.560382     H
H     0.286847 0.439618 0.145497     H
H     0.286847 0.439618 0.854503     H
H     0.286847 0.560382 0.145497     H
H     0.286847 0.560382 0.854503     H
H     0.286847 0.854503 0.439618     H
H     0.286847 0.854503 0.560382     H
C     0.310512 0.220055 0.310512     C
C     0.310512 0.220055 0.689488     C
C     0.310512 0.310512 0.220055     C
C     0.310512 0.310512 0.779945     C
C     0.310512 0.689488 0.220055     C
C     0.310512 0.689488 0.779945     C
C     0.310512 0.779945 0.310512     C
C     0.310512 0.779945 0.689488     C
C     0.329203 0.134306 0.413089     C
C     0.329203 0.134306 0.586911     C
C     0.329203 0.413089 0.134306     C
C     0.329203 0.413089 0.865694     C
C     0.329203 0.586911 0.134306     C
C     0.329203 0.586911 0.865694     C
C     0.329203 0.865694 0.413089     C
C     0.329203 0.865694 0.586911     C
C     0.337667 0.245889  0.24655     C
C     0.337667 0.245889 0.753451     C
C     0.337667 0.753451 0.245889     C
C     0.337667 0.753451 0.754111     C
C     0.349598  0.16478 0.349598     C
C     0.349598  0.16478 0.650402     C
C     0.349598 0.349598  0.16478     C
C     0.349598 0.349598  0.83522     C
C     0.349598 0.650402  0.16478     C
C     0.349598 0.650402  0.83522     C
C     0.349598  0.83522 0.349598     C
C     0.349598  0.83522 0.650402     C
N     0.380089 0.084999 0.431933     N
N     0.380089 0.084999 0.568066     N
N     0.380089 0.431933 0.084999     N
N     0.380089 0.431933 0.915001     N
N     0.380089 0.568066 0.084999     N
N     0.380089 0.568066 0.915001     N
N     0.380089 0.915001 0.431933     N
N     0.380089 0.915001 0.568066     N
Ni     0.38123      0.0      0.5    Ni
Ni     0.38123      0.5      0.0    Ni
H     0.381834 0.227329 0.228442     H
H     0.381834 0.227329 0.771558     H
H     0.381834 0.771558 0.227329     H
H     0.381834 0.771558 0.772671     H
C     0.413089 0.134306 0.329203     C
C     0.413089 0.134306 0.670797     C
C     0.413089 0.329203 0.134306     C
C     0.413089 0.329203 0.865694     C
C     0.413089 0.670797 0.134306     C
C     0.413089 0.670797 0.865694     C
C     0.413089 0.865694 0.329203     C
C     0.413089 0.865694 0.670797     C
N     0.431933 0.084999 0.380089     N
N     0.431933 0.084999 0.619911     N
N     0.431933 0.380089 0.084999     N
N     0.431933 0.380089 0.915001     N
N     0.431933 0.619911 0.084999     N
N     0.431933 0.619911 0.915001     N
N     0.431933 0.915001 0.380089     N
N     0.431933 0.915001 0.619911     N
H     0.439618 0.145497 0.286847     H
H     0.439618 0.145497 0.713153     H
H     0.439618 0.286847 0.145497     H
H     0.439618 0.286847 0.854503     H
H     0.439618 0.713153 0.145497     H
H     0.439618 0.713153 0.854503     H
H     0.439618 0.854503 0.286847     H
H     0.439618 0.854503 0.713153     H
O          0.5      0.0    0.265     O
Ni         0.5      0.0  0.38123    Ni
Ni         0.5      0.0  0.61883    Ni
O          0.5      0.0    0.735     O
O          0.5    0.265      0.0     O
Ni         0.5  0.38123      0.0    Ni
Ni         0.5  0.61883      0.0    Ni
O          0.5    0.735      0.0     O
H     0.560382 0.145497 0.286847     H
H     0.560382 0.145497 0.713153     H
H     0.560382 0.286847 0.145497     H
H     0.560382 0.286847 0.854503     H
H     0.560382 0.713153 0.145497     H
H     0.560382 0.713153 0.854503     H
H     0.560382 0.854503 0.286847     H
H     0.560382 0.854503 0.713153     H
N     0.568066 0.084999 0.380089     N
N     0.568066 0.084999 0.619911     N
N     0.568066 0.380089 0.084999     N
N     0.568066 0.380089 0.915001     N
N     0.568066 0.619911 0.084999     N
N     0.568066 0.619911 0.915001     N
N     0.568066 0.915001 0.380089     N
N     0.568066 0.915001 0.619911     N
C     0.586911 0.134306 0.329203     C
C     0.586911 0.134306 0.670797     C
C     0.586911 0.329203 0.134306     C
C     0.586911 0.329203 0.865694     C
C     0.586911 0.670797 0.134306     C
C     0.586911 0.670797 0.865694     C
C     0.586911 0.865694 0.329203     C
C     0.586911 0.865694 0.670797     C
H     0.618166 0.227329 0.228442     H
H     0.618166 0.227329 0.771558     H
H     0.618166 0.771558 0.227329     H
H     0.618166 0.771558 0.772671     H
Ni     0.61883      0.0      0.5    Ni
Ni     0.61883      0.5      0.0    Ni
N     0.619911 0.084999 0.431933     N
N     0.619911 0.084999 0.568066     N
N     0.619911 0.431933 0.084999     N
N     0.619911 0.431933 0.915001     N
N     0.619911 0.568066 0.084999     N
N     0.619911 0.568066 0.915001     N
N     0.619911 0.915001 0.431933     N
N     0.619911 0.915001 0.568066     N
C     0.650402  0.16478 0.349598     C
C     0.650402  0.16478 0.650402     C
C     0.650402 0.349598  0.16478     C
C     0.650402 0.349598  0.83522     C
C     0.650402 0.650402  0.16478     C
C     0.650402 0.650402  0.83522     C
C     0.650402  0.83522 0.349598     C
C     0.650402  0.83522 0.650402     C
C     0.662333 0.245889  0.24655     C
C     0.662333 0.245889 0.753451     C
C     0.662333 0.753451 0.245889     C
C     0.662333 0.753451 0.754111     C
C     0.670797 0.134306 0.413089     C
C     0.670797 0.134306 0.586911     C
C     0.670797 0.413089 0.134306     C
C     0.670797 0.413089 0.865694     C
C     0.670797 0.586911 0.134306     C
C     0.670797 0.586911 0.865694     C
C     0.670797 0.865694 0.413089     C
C     0.670797 0.865694 0.586911     C
C     0.689488 0.220055 0.310512     C
C     0.689488 0.220055 0.689488     C
C     0.689488 0.310512 0.220055     C
C     0.689488 0.310512 0.779945     C
C     0.689488 0.689488 0.220055     C
C     0.689488 0.689488 0.779945     C
C     0.689488 0.779945 0.310512     C
C     0.689488 0.779945 0.689488     C
H     0.713153 0.145497 0.439618     H
H     0.713153 0.145497 0.560382     H
H     0.713153 0.439618 0.145497     H
H     0.713153 0.439618 0.854503     H
H     0.713153 0.560382 0.145497     H
H     0.713153 0.560382 0.854503     H
H     0.713153 0.854503 0.439618     H
H     0.713153 0.854503 0.560382     H
O        0.735      0.0      0.5     O
O        0.735      0.5      0.0     O
C     0.753451 0.245889 0.337667     C
C     0.753451 0.245889 0.662333     C
C     0.753451 0.337667 0.245889     C
C     0.753451 0.337667 0.754111     C
C     0.753451 0.662333 0.245889     C
C     0.753451 0.662333 0.754111     C
C     0.753451 0.754111 0.337667     C
C     0.753451 0.754111 0.662333     C
H     0.771558 0.227329 0.381834     H
H     0.771558 0.227329 0.618166     H
H     0.771558 0.381834 0.227329     H
H     0.771558 0.381834 0.772671     H
H     0.771558 0.618166 0.227329     H
H     0.771558 0.618166 0.772671     H
H     0.771558 0.772671 0.381834     H
H     0.771558 0.772671 0.618166     H
C     0.779945 0.310512 0.310512     C
C     0.779945 0.310512 0.689488     C
C     0.779945 0.689488 0.310512     C
C     0.779945 0.689488 0.689488     C
C      0.83522 0.349598 0.349598     C
C      0.83522 0.349598 0.650402     C
C      0.83522 0.650402 0.349598     C
C      0.83522 0.650402 0.650402     C
H     0.854503 0.286847 0.439618     H
H     0.854503 0.286847 0.560382     H
H     0.854503 0.439618 0.286847     H
H     0.854503 0.439618 0.713153     H
H     0.854503 0.560382 0.286847     H
H     0.854503 0.560382 0.713153     H
H     0.854503 0.713153 0.439618     H
H     0.854503 0.713153 0.560382     H
C     0.865694 0.329203 0.413089     C
C     0.865694 0.329203 0.586911     C
C     0.865694 0.413089 0.329203     C
C     0.865694 0.413089 0.670797     C
C     0.865694 0.586911 0.329203     C
C     0.865694 0.586911 0.670797     C
C     0.865694 0.670797 0.413089     C
C     0.865694 0.670797 0.586911     C
N     0.915001 0.380089 0.431933     N
N     0.915001 0.380089 0.568066     N
N     0.915001 0.431933 0.380089     N
N     0.915001 0.431933 0.619911     N
N     0.915001 0.568066 0.380089     N
N     0.915001 0.568066 0.619911     N
N     0.915001 0.619911 0.431933     N
N     0.915001 0.619911 0.568066     N
