data_I
_chemical_name_common  '/Users/gianmarcoterrones/Downloads/Ni(HPTZ)2'
_cell_length_a 11.41029
_cell_length_b  7.95867
_cell_length_c 14.26311
_cell_angle_alpha 90.00000
_cell_angle_beta  95.54801
_cell_angle_gamma 90.00000
_space_group_name_H-M_alt      'P 1'


loop_
_space_group_symop_operation_xyz
  'x, y, z' 

loop_
_atom_site_label
_atom_site_fract_x
_atom_site_fract_y
_atom_site_fract_z
_atom_site_type_symbol
C      0.02371 0.387918 0.077311     C
C      0.04141 0.122817  0.15949     C
H      0.06476 0.492815 0.043958     H
C      0.08081 0.622716  0.83309     C
C      0.08987     0.25  0.11237     C
H     0.096587 0.022102 0.190898     H
C      0.09791 0.886318  0.91331     C
H     0.120102 0.520685 0.795915     H
C      0.15097     0.75  0.87197     C
H     0.151748 0.992952 0.938671     H
N      0.21187     0.25  0.09675     N
H     0.235167     0.25 0.494242     H
H     0.253366 0.516303 0.087321     H
H     0.253366 0.983697 0.087321     H
H     0.261047 0.412533 0.239786     H
C      0.27995  0.11427  0.08044     C
C      0.27995  0.38587  0.08044     C
O      0.28837  0.09191  0.30804     O
O      0.28837  0.40811  0.30804     O
H     0.296455     0.25 0.662762     H
P     0.3082617     0.75 0.8711614     P
O      0.32355     0.75  0.76224     O
C     0.328714     0.25 0.518311     C
H      0.33767 0.991859 0.325444     H
H     0.347452     0.75 0.391269     H
O      0.35514  0.58955  0.91624     O
O      0.35514  0.91055  0.91624     O
P     0.3602218     0.25 0.3287714     P
C     0.362615     0.25 0.612611     C
N      0.38154  0.16337  0.05534     N
N      0.38154  0.33677  0.05534     N
H      0.40831 0.760418 0.752852     H
C      0.40928     0.25  0.45307     C
H     0.411558     0.75 0.563713     H
C     0.440613     0.75  0.41669     C
O      0.46455     0.25  0.27334     O
N      0.47604  0.66407  0.11044     N
N      0.47604  0.83607  0.11044     N
C      0.47618     0.25  0.64337     C
C     0.478011     0.75  0.51388     C
C      0.48495  0.61588  0.19774     C
C      0.48495  0.88428  0.19774     C
H     0.486185  0.01452 0.221052     H
H     0.486185  0.48548 0.221052     H
N      0.49237     0.75  0.25515     N
Ni         0.5      0.0      0.0    Ni
Ni         0.5      0.5      0.0    Ni
N      0.50777     0.25  0.74495     N
H     0.513815  0.51452 0.778948     H
H     0.513815  0.98548 0.778948     H
C      0.51515  0.11588  0.80234     C
C      0.51515  0.38428  0.80234     C
C     0.522011     0.25  0.48628     C
C      0.52398     0.75  0.35677     C
N      0.52404  0.16407  0.88964     N
N      0.52404  0.33607  0.88964     N
O      0.53555     0.75  0.72674     O
C     0.559413     0.25  0.58349     C
H     0.588442     0.25 0.436287     H
C      0.59088     0.75  0.54707     C
N      0.61854  0.66337  0.94474     N
N      0.61854  0.83677  0.94474     N
C     0.637415     0.75 0.387411     C
P     0.6397818     0.75 0.6712314     P
O      0.64494  0.08955  0.08384     O
O      0.64494  0.41055  0.08384     O
H     0.652548     0.25 0.608731     H
H      0.66233 0.491859 0.674556     H
C     0.671314     0.75 0.481711     C
O      0.67655     0.25  0.23784     O
P     0.6917417     0.25 0.1288414     P
H     0.703545     0.75 0.337238     H
O      0.71177  0.59191  0.69204     O
O      0.71177  0.90811  0.69204     O
C      0.72015  0.61427  0.91964     C
C      0.72015  0.88587  0.91964     C
H     0.720402 0.153735 0.268394     H
H     0.738953 0.912533 0.760214     H
H     0.746634 0.016303 0.912679     H
H     0.746634 0.483697 0.912679     H
H     0.764833     0.75 0.505758     H
N      0.78827     0.75  0.90335     N
H     0.848252 0.492952 0.061329     H
C      0.84917     0.25  0.12817     C
H     0.879898 0.020685 0.204085     H
C      0.90211 0.386318  0.08671     C
H     0.903413 0.522102 0.809102     H
C      0.91027     0.75  0.88777     C
C      0.91921 0.122716  0.16709     C
H      0.93524 0.992815 0.956042     H
C      0.95861 0.622817  0.84069     C
C      0.97631 0.887918 0.922711     C
