data_I
_chemical_name_common  '/Users/gianmarcoterrones/Research/MOFs/MOF_structures/water_stability_work_extra_structs/cleaned_from_CCDC/NIZNUH'
_cell_length_a  7.45650
_cell_length_b 17.02150
_cell_length_c 17.15780
_cell_angle_alpha 90.00000
_cell_angle_beta  97.28000
_cell_angle_gamma 90.00000
_space_group_name_H-M_alt      'P 1'


loop_
_space_group_symop_operation_xyz
  'x, y, z' 

loop_
_atom_site_label
_atom_site_fract_x
_atom_site_fract_y
_atom_site_fract_z
_atom_site_type_symbol
Cu         0.0      0.0      0.0    Cu
Cu         0.0      0.5      0.5    Cu
H       0.0142   0.1869   0.2945     H
H       0.0142   0.3131   0.7945     H
Cu     0.01561   0.6296   0.6442    Cu
Cu     0.01561   0.8704   0.1442    Cu
C       0.0487     0.64   0.8064     C
C       0.0487     0.86   0.3064     C
C       0.0605   0.1952   0.3468     C
C       0.0605   0.3048   0.8468     C
N       0.0705   0.2358   0.8851     N
N       0.0705   0.2642   0.3851     N
O       0.0836   0.0972    0.699     O
O       0.0836   0.4028    0.199     O
O       0.1186  0.66842    0.748     O
O       0.1186  0.83158    0.248     O
N        0.119  0.02422   0.1037     N
N        0.119  0.47578   0.6037     N
O       0.1257  0.08917  0.95592     O
O       0.1257  0.41083  0.45592     O
N       0.1259   0.5238   0.6647     N
N       0.1259   0.9762   0.1647     N
C       0.1305     0.14   0.3986     C
C       0.1305     0.36   0.8986     C
H        0.141    0.544   0.9226     H
H        0.141    0.956   0.4226     H
H       0.1411   0.0868    0.388     H
H       0.1411   0.4132    0.888     H
N       0.1446   0.2493    0.958     N
N       0.1446   0.2507    0.458     N
C       0.1469   0.6563   0.8861     C
C       0.1469   0.8437   0.3861     C
N       0.1823   0.1751   0.4681     N
N       0.1823   0.3249   0.9681     N
H       0.1834   0.7259   0.3765     H
H       0.1834   0.7741   0.8765     H
C       0.1838   0.5937   0.9378     C
C       0.1838   0.9063   0.4378     C
O       0.1956   0.6186   0.5119     O
O       0.1956   0.8814   0.0119     O
O       0.2035   0.6105   0.4662     O
O       0.2035   0.8895   0.9662     O
C       0.2044   0.7316   0.9104     C
C       0.2044   0.7684   0.4104     C
N       0.2073   0.0902   0.1238     N
N       0.2073   0.4098   0.6238     N
Cu     0.20961  0.16987  0.03927    Cu
Cu     0.20961  0.33013  0.53927    Cu
C       0.2232   0.0122   0.2252     C
C       0.2232   0.4878   0.7252     C
H       0.2366   0.0668   0.9401     H
H       0.2366   0.4332   0.4401     H
H       0.2511    0.508   0.7757     H
H       0.2511    0.992   0.2757     H
C       0.2744   0.0843   0.1995     C
C       0.2744   0.4157   0.6995     C
O       0.2785   0.2434  0.60769     O
O       0.2785   0.2566  0.10769     O
O       0.2791  0.03251   0.5307     O
O       0.2791  0.46749   0.0307     O
C       0.2821   0.6032    0.011     C
C       0.2821   0.8968    0.511     C
Cu     0.29278    0.138  0.57271    Cu
Cu     0.29278    0.362  0.07271    Cu
C       0.2933   0.7418   0.9856     C
C       0.2933   0.7582   0.4856     C
O       0.3092   0.6578   0.5948     O
O       0.3092   0.8422   0.0948     O
C       0.3279   0.5328    0.063     C
C       0.3279   0.9672    0.563     C
C       0.3351   0.6782   0.0353     C
C       0.3351   0.8218   0.5353     C
H       0.3429   0.1218   0.2292     H
H       0.3429   0.3782   0.7292     H
H       0.3433   0.2486   0.6519     H
H       0.3433   0.2514   0.1519     H
S       0.3471   0.6608  0.51682     S
S       0.3471   0.8392  0.01682     S
H       0.3987    0.686   0.0849     H
H       0.3987    0.814   0.5849     H
O       0.4113   0.5418   0.1303     O
O       0.4113   0.9582   0.6303     O
H        0.423   0.1223   0.7094     H
H        0.423   0.3777   0.2094     H
O       0.4418   0.6669   0.6013     O
O       0.4418   0.8331   0.1013     O
O       0.4512   0.1056   0.6658     O
O       0.4512   0.3944   0.1658     O
H       0.4684   0.0564   0.6705     H
H       0.4684   0.4436   0.1705     H
O       0.4849   0.1428      0.0     O
O       0.4849   0.3572      0.5     O
O       0.4865    0.634   0.4701     O
O       0.4865    0.866   0.9701     O
H       0.5316   0.5564   0.8295     H
H       0.5316   0.9436   0.3295     H
O       0.5488   0.6056   0.8342     O
O       0.5488   0.8944   0.3342     O
O       0.5582   0.1669   0.8987     O
O       0.5582   0.3331   0.3987     O
H        0.577   0.6223   0.7906     H
H        0.577   0.8777   0.2906     H
O       0.5887   0.0418   0.3697     O
O       0.5887   0.4582   0.8697     O
H       0.6013    0.186   0.4151     H
H       0.6013    0.314   0.9151     H
S       0.6529   0.1608  0.98318     S
S       0.6529   0.3392  0.48318     S
H       0.6567   0.7486   0.8481     H
H       0.6567   0.7514   0.3481     H
H       0.6571   0.6218   0.2708     H
H       0.6571   0.8782   0.7708     H
C       0.6649   0.1782   0.4647     C
C       0.6649   0.3218   0.9647     C
C       0.6721   0.0328    0.437     C
C       0.6721   0.4672    0.937     C
O       0.6908   0.1578   0.9052     O
O       0.6908   0.3422   0.4052     O
C       0.7067   0.2418   0.5144     C
C       0.7067   0.2582   0.0144     C
Cu     0.70722    0.638  0.92729    Cu
Cu     0.70722    0.862  0.42729    Cu
C       0.7179   0.1032    0.489     C
C       0.7179   0.3968    0.989     C
O       0.7209  0.53251   0.9693     O
O       0.7209  0.96749   0.4693     O
O       0.7215   0.7434  0.89231     O
O       0.7215   0.7566  0.39231     O
C       0.7256   0.5843   0.3005     C
C       0.7256   0.9157   0.8005     C
H       0.7489    0.008   0.7243     H
H       0.7489    0.492   0.2243     H
H       0.7634   0.5668   0.5599     H
H       0.7634   0.9332   0.0599     H
C       0.7768   0.5122   0.2748     C
C       0.7768   0.9878   0.7748     C
Cu     0.79039  0.66987  0.46073    Cu
Cu     0.79039  0.83013  0.96073    Cu
N       0.7927   0.5902   0.3762     N
N       0.7927   0.9098   0.8762     N
C       0.7956   0.2316   0.5896     C
C       0.7956   0.2684   0.0896     C
O       0.7965   0.1105   0.0338     O
O       0.7965   0.3895   0.5338     O
O       0.8044   0.1186   0.9881     O
O       0.8044   0.3814   0.4881     O
C       0.8162   0.0937   0.5622     C
C       0.8162   0.4063   0.0622     C
H       0.8166   0.2259   0.1235     H
H       0.8166   0.2741   0.6235     H
N       0.8177   0.6751   0.0319     N
N       0.8177   0.8249   0.5319     N
C       0.8531   0.1563   0.6139     C
C       0.8531   0.3437   0.1139     C
N       0.8554   0.7493    0.542     N
N       0.8554   0.7507    0.042     N
H       0.8589   0.5868    0.112     H
H       0.8589   0.9132    0.612     H
H        0.859    0.044   0.5774     H
H        0.859    0.456   0.0774     H
C       0.8695     0.64   0.1014     C
C       0.8695     0.86   0.6014     C
N       0.8741   0.0238   0.8353     N
N       0.8741   0.4762   0.3353     N
O       0.8743  0.58917  0.54408     O
O       0.8743  0.91083  0.04408     O
N        0.881  0.52422   0.3963     N
N        0.881  0.97578   0.8963     N
O       0.8814  0.16842    0.752     O
O       0.8814  0.33158    0.252     O
O       0.9164   0.5972    0.801     O
O       0.9164   0.9028    0.301     O
N       0.9295   0.7358   0.6149     N
N       0.9295   0.7642   0.1149     N
C       0.9395   0.6952   0.1532     C
C       0.9395   0.8048   0.6532     C
C       0.9513     0.14   0.6936     C
C       0.9513     0.36   0.1936     C
Cu     0.98439   0.1296   0.8558    Cu
Cu     0.98439   0.3704   0.3558    Cu
H       0.9858   0.6869   0.2055     H
H       0.9858   0.8131   0.7055     H
