data_I
_chemical_name_common  '/Users/gianmarcoterrones/Research/MOFs/MOF_structures/water_stability_work_extra_structs/cleaned_from_CCDC/NIZNIV'
_cell_length_a 10.47740
_cell_length_b 19.66440
_cell_length_c 21.97440
_cell_angle_alpha 90.00000
_cell_angle_beta  90.00000
_cell_angle_gamma 103.28400
_space_group_name_H-M_alt      'P 1'


loop_
_space_group_symop_operation_xyz
  'x, y, z' 

loop_
_atom_site_label
_atom_site_fract_x
_atom_site_fract_y
_atom_site_fract_z
_atom_site_type_symbol
C        0.008   0.7301    0.855     C
O       0.0129   0.7169   0.1388     O
H        0.014   0.9097   0.1674     H
O       0.0159   0.3688   0.3485     O
C       0.0175   0.2726   0.9144     C
H       0.0195   0.0922   0.7031     H
H       0.0219   0.5997   0.1002     H
C       0.0222   0.1397   0.7007     C
H       0.0301   0.0914   0.3956     H
O       0.0322   0.2603   0.3038     O
H        0.034   0.5816   0.7091     H
N       0.0346   0.7622   0.2968     N
N       0.0362   0.6742   0.8278     N
H       0.0369     0.03   0.1343     H
H       0.0386   0.6301   0.3941     H
O       0.0387   0.7113   0.0383     O
O       0.0432   0.8034   0.4647     O
C       0.0513   0.8441   0.5082     C
C       0.0557   0.1163   0.4851     C
O        0.056   0.3696  0.73546     O
Cu     0.05844  0.46874  0.74225    Cu
O       0.0612  0.56896  0.74947     O
H        0.064   0.5909   0.9523     H
H       0.0697    0.268   0.1254     H
N       0.0773   0.8303   0.2877     N
H       0.0779   0.3544   0.7758     H
C       0.0812   0.0878   0.4295     C
Cu     0.08153  0.41524  0.19474    Cu
C       0.0859   0.9465   0.1744     C
N       0.0898   0.2514   0.6862     N
O       0.0907   0.6184   0.3687     O
H       0.0918   0.5761   0.3758     H
O        0.092   0.4615  0.07996     O
H       0.0983   0.3498   0.4519     H
C       0.0991   0.0128   0.1558     C
S      0.10155  0.32695  0.32508     S
H       0.1022   0.8534   0.7233     H
H       0.1095   0.2301   0.0173     H
O       0.1132   0.5999   0.0957     O
H       0.1161   0.1303    0.572     H
C       0.1168   0.7839   0.8481     C
O       0.1185   0.3678  0.56306     O
H       0.1204   0.9744   0.6894     H
H       0.1216   0.5557   0.0798     H
Cu     0.12401  0.68677  0.28448    Cu
N       0.1243    0.554   0.2372     N
O       0.1252   0.0347  0.31205     O
H       0.1262   0.8294   0.8624     H
C       0.1274   0.1904   0.6848     C
C       0.1285   0.2372    0.926     C
C       0.1323   0.1106   0.5351     C
O       0.1413   0.8558   0.5482     O
H       0.1446   0.1945     0.27     H
O       0.1457   0.4416  0.84013     O
O       0.1524   0.6185   0.9517     O
H       0.1553   0.7503   0.4653     H
N       0.1568    0.693    0.805     N
H       0.1571   0.1268   0.2738     H
C       0.1576   0.2193   0.9846     C
O       0.1661   0.1618   0.2502     O
C       0.1679   0.3287   0.4455     C
H       0.1727   0.7644   0.1679     H
H       0.1728   0.7046   0.5218     H
H       0.1741   0.4766   0.9719     H
C       0.1776   0.8892    0.724     C
H       0.1812   0.2338   0.8376     H
C       0.1836   0.0541   0.4254     C
C       0.1837   0.4308   0.0847     C
C       0.1877   0.9562   0.7053     C
O       0.1881   0.3652     0.28     O
N       0.1882    0.509    0.214     N
Cu     0.19236  0.34832  0.67669    Cu
H       0.1933   0.7193   0.6633     H
Cu     0.19508  0.67463  0.03896    Cu
N       0.1959   0.9425   0.2052     N
C       0.1981   0.3112   0.3875     C
C       0.2006    0.222    0.877     C
N       0.2029   0.6157   0.2439     N
N       0.2065   0.7596   0.8175     N
C        0.208   0.3363   0.5572     C
O       0.2095   0.4031  0.13396     O
H       0.2103   0.1844   0.6747     H
H        0.212   0.5885   0.9462     H
O       0.2164   0.9473   0.3624     O
O       0.2175   0.7392   0.4935     O
N       0.2185   0.0502   0.1736     N
S       0.2215  0.02091  0.35471     S
O       0.2236   0.1773  0.10202     O
N       0.2264   0.4941   0.7036     N
C       0.2336   0.0755   0.5311     C
C       0.2411   0.4531   0.9753     C
C       0.2425   0.3145   0.4947     C
O       0.2426   0.7893   0.1832     O
Cu     0.24295  0.62738  0.75896    Cu
Cu     0.25705  0.87262  0.25896    Cu
O       0.2574   0.7107   0.6832     O
C       0.2575   0.1855   0.9947     C
C       0.2589   0.0469   0.4753     C
C       0.2664   0.4245   0.0311     C
N       0.2736   0.0059   0.2036     N
O       0.2764   0.3227  0.60202     O
S       0.2785  0.47909  0.85471     S
N       0.2815   0.4498   0.6736     N
O       0.2825   0.7608   0.9935     O
O       0.2836   0.5527   0.8624     O
H        0.288   0.9115   0.4462     H
H       0.2897   0.3156   0.1747     H
O       0.2905   0.0969  0.63396     O
C        0.292   0.1637   0.0572     C
N       0.2935   0.7404   0.3175     N
N       0.2971   0.8843   0.7439     N
C       0.2994    0.278    0.377     C
C       0.3019   0.1888   0.8875     C
N       0.3041   0.5575   0.7052     N
Cu     0.30492  0.82537  0.53896    Cu
H       0.3067   0.7807   0.1633     H
Cu     0.30764  0.15168  0.17669    Cu
N       0.3118    0.991    0.714     N
O       0.3119   0.1348     0.78     O
C       0.3123   0.5438   0.2053     C
C       0.3163   0.0692   0.5847     C
C       0.3164   0.4459   0.9254     C
H       0.3188   0.2662   0.3376     H
C       0.3224   0.6108    0.224     C
H       0.3259   0.0234   0.4719     H
H       0.3272   0.7954   0.0218     H
H       0.3273   0.7356   0.6679     H
C       0.3321   0.1713   0.9455     C
O       0.3339   0.3382   0.7502     O
C       0.3424   0.2807   0.4846     C
H       0.3429   0.3732   0.7738     H
N       0.3432    0.807    0.305     N
H       0.3447   0.7497   0.9653     H
O       0.3476   0.8815   0.4517     O
O       0.3543   0.0584  0.34013     O
H       0.3554   0.3055     0.77     H
O       0.3587   0.6442   0.0482     O
C       0.3677   0.3894   0.0351     C
C       0.3715   0.2628    0.426     C
C       0.3726   0.3096   0.1848     C
H       0.3738   0.6706   0.3624     H
O       0.3748   0.4653  0.81205     O
N       0.3757    0.946   0.7372     N
Cu     0.37599  0.81323  0.78448    Cu
H       0.3784   0.9443   0.5798     H
H       0.3796   0.5256   0.1894     H
O       0.3815   0.1322  0.06306     O
C       0.3832   0.7161   0.3481     C
H       0.3839   0.3697    0.072     H
O       0.3868   0.9001   0.5957     O
H       0.3905   0.2699   0.5173     H
H       0.3978   0.6466   0.2233     H
S      0.39845  0.17305  0.82508     S
C       0.4009   0.4872   0.6558     C
H       0.4017   0.1502   0.9519     H
O        0.408   0.0385  0.57996     O
H       0.4082   0.9239   0.8758     H
O       0.4093   0.8816   0.8687     O
N       0.4102   0.2486   0.1862     N
C       0.4141   0.5535   0.6744     C
Cu     0.41847  0.08476  0.69474    Cu
C       0.4188   0.4122   0.9295     C
H       0.4221   0.1456   0.2758     H
N       0.4227   0.6697   0.7877     N
H       0.4303    0.232   0.6254     H
H        0.436   0.9091   0.4523     H
O       0.4388  0.93104  0.24947     O
Cu     0.44156  0.03126  0.24225    Cu
O        0.444   0.1304  0.23546     O
C       0.4443   0.3837   0.9851     C
C       0.4487   0.6559   0.0082     C
O       0.4568   0.6966   0.9647     O
O       0.4613   0.7887   0.5383     O
H       0.4614   0.8699   0.8941     H
H       0.4631     0.47   0.6343     H
N       0.4638   0.8258   0.3278     N
N       0.4654   0.7378   0.7968     N
H        0.466   0.9184   0.2091     H
O       0.4678   0.2397   0.8038     O
H       0.4699   0.4086   0.8956     H
C       0.4778   0.3603   0.2007     C
H       0.4781   0.9003   0.6002     H
H       0.4805   0.4078   0.2031     H
C       0.4825   0.2274   0.4144     C
O       0.4841   0.1312   0.8485     O
H        0.486   0.5903   0.6674     H
O       0.4871   0.7831   0.6388     O
C        0.492   0.7699    0.355     C
C        0.508   0.2301    0.645     C
O       0.5129   0.2169   0.3612     O
H        0.514   0.4097   0.3326     H
O       0.5159   0.8688   0.1515     O
C       0.5175   0.7726   0.5856     C
H       0.5195   0.5922   0.7969     H
H       0.5219   0.0997   0.3998     H
C       0.5222   0.6397   0.7993     C
H       0.5301   0.5914   0.1044     H
O       0.5322   0.7603   0.1962     O
H        0.534   0.0816   0.7909     H
N       0.5346   0.2622   0.2032     N
N       0.5362   0.1742   0.6722     N
H       0.5369     0.53   0.3657     H
H       0.5386   0.1301   0.1059     H
O       0.5387   0.2113   0.4617     O
O       0.5432   0.3034   0.0353     O
C       0.5513   0.3441   0.9918     C
C       0.5557   0.6163   0.0149     C
O        0.556   0.8696  0.76454     O
Cu     0.55844  0.96874  0.75775    Cu
O       0.5612  0.06896  0.75053     O
H        0.564   0.0909   0.5477     H
H       0.5697    0.768   0.3746     H
N       0.5773   0.3303   0.2123     N
H       0.5779   0.8544   0.7242     H
C       0.5812   0.5878   0.0705     C
Cu     0.58153  0.91524  0.30526    Cu
C       0.5859   0.4465   0.3256     C
N       0.5898   0.7514   0.8138     N
O       0.5907   0.1184   0.1313     O
H       0.5918   0.0761   0.1242     H
O        0.592   0.9615  0.42004     O
H       0.5983   0.8498   0.0481     H
C       0.5991   0.5128   0.3442     C
S      0.60155  0.82695  0.17492     S
H       0.6022   0.3534   0.7767     H
H       0.6095   0.7301   0.4827     H
O       0.6132   0.0999   0.4043     O
H       0.6161   0.6303    0.928     H
C       0.6168   0.2839   0.6519     C
O       0.6185   0.8678  0.93694     O
H       0.6204   0.4744   0.8106     H
H       0.6216   0.0557   0.4202     H
Cu     0.62401  0.18677  0.21552    Cu
N       0.6243    0.054   0.2628     N
O       0.6252   0.5347  0.18795     O
H       0.6262   0.3294   0.6376     H
C       0.6274   0.6904   0.8152     C
C       0.6285   0.7372    0.574     C
C       0.6323   0.6106   0.9649     C
O       0.6413   0.3558   0.9518     O
H       0.6446   0.6945     0.23     H
O       0.6457   0.9416  0.65987     O
O       0.6524   0.1185   0.5483     O
H       0.6553   0.2503   0.0347     H
N       0.6568    0.193    0.695     N
H       0.6571   0.6268   0.2262     H
C       0.6576   0.7193   0.5154     C
O       0.6661   0.6618   0.2498     O
C       0.6679   0.8287   0.0545     C
H       0.6727   0.2644   0.3321     H
H       0.6728   0.2046   0.9782     H
H       0.6741   0.9766   0.5281     H
C       0.6776   0.3892    0.776     C
H       0.6812   0.7338   0.6624     H
C       0.6836   0.5541   0.0746     C
C       0.6837   0.9308   0.4153     C
C       0.6877   0.4562   0.7947     C
O       0.6881   0.8652     0.22     O
N       0.6882    0.009    0.286     N
Cu     0.69236  0.84832  0.82331    Cu
H       0.6933   0.2193   0.8367     H
Cu     0.69508  0.17463  0.46104    Cu
N       0.6959   0.4425   0.2948     N
C       0.6981   0.8112   0.1125     C
C       0.7006    0.722    0.623     C
N       0.7029   0.1157   0.2561     N
N       0.7065   0.2596   0.6825     N
C        0.708   0.8363   0.9428     C
O       0.7095   0.9031  0.36604     O
H       0.7103   0.6844   0.8253     H
H        0.712   0.0885   0.5538     H
O       0.7164   0.4473   0.1376     O
O       0.7175   0.2392   0.0065     O
N       0.7185   0.5502   0.3264     N
S       0.7215  0.52091  0.14529     S
O       0.7236   0.6773  0.39798     O
N       0.7264   0.9941   0.7964     N
C       0.7336   0.5755   0.9689     C
C       0.7411   0.9531   0.5247     C
C       0.7425   0.8145   0.0053     C
O       0.7426   0.2893   0.3168     O
Cu     0.74295  0.12738  0.74104    Cu
Cu     0.75705  0.37262  0.24104    Cu
O       0.7574   0.2107   0.8168     O
C       0.7575   0.6855   0.5053     C
C       0.7589   0.5469   0.0247     C
C       0.7664   0.9245   0.4689     C
N       0.7736   0.5059   0.2964     N
O       0.7764   0.8227  0.89798     O
S       0.7785  0.97909  0.64529     S
N       0.7815   0.9498   0.8264     N
O       0.7825   0.2608   0.5065     O
O       0.7836   0.0527   0.6376     O
H        0.788   0.4115   0.0538     H
H       0.7897   0.8156   0.3253     H
O       0.7905   0.5969  0.86604     O
C        0.792   0.6637   0.4428     C
N       0.7935   0.2404   0.1825     N
N       0.7971   0.3843   0.7561     N
C       0.7994    0.778    0.123     C
C       0.8019   0.6888   0.6125     C
N       0.8041   0.0575   0.7948     N
Cu     0.80492  0.32537  0.96104    Cu
H       0.8067   0.2807   0.3367     H
Cu     0.80764  0.65168  0.32331    Cu
N       0.8118    0.491    0.786     N
O       0.8119   0.6348     0.72     O
C       0.8123   0.0438   0.2947     C
C       0.8163   0.5692   0.9153     C
C       0.8164   0.9459   0.5746     C
H       0.8188   0.7662   0.1624     H
C       0.8224   0.1108    0.276     C
H       0.8259   0.5234   0.0281     H
H       0.8272   0.2954   0.4782     H
H       0.8273   0.2356   0.8321     H
C       0.8321   0.6713   0.5545     C
O       0.8339   0.8382   0.7498     O
C       0.8424   0.7807   0.0154     C
H       0.8429   0.8732   0.7262     H
N       0.8432    0.307    0.195     N
H       0.8447   0.2497   0.5347     H
O       0.8476   0.3815   0.0483     O
O       0.8543   0.5584  0.15987     O
H       0.8554   0.8055     0.73     H
O       0.8587   0.1442   0.4518     O
C       0.8677   0.8894   0.4649     C
C       0.8715   0.7628    0.074     C
C       0.8726   0.8096   0.3152     C
H       0.8738   0.1706   0.1376     H
O       0.8748   0.9653  0.68795     O
N       0.8757    0.446   0.7628     N
Cu     0.87599  0.31323  0.71552    Cu
H       0.8784   0.4443   0.9202     H
H       0.8796   0.0256   0.3106     H
O       0.8815   0.6322  0.43694     O
C       0.8832   0.2161   0.1519     C
H       0.8839   0.8697    0.428     H
O       0.8868   0.4001   0.9043     O
H       0.8905   0.7699   0.9827     H
H       0.8978   0.1466   0.2767     H
S      0.89845  0.67305  0.67492     S
C       0.9009   0.9872   0.8442     C
H       0.9017   0.6502   0.5481     H
O        0.908   0.5385  0.92004     O
H       0.9082   0.4239   0.6242     H
O       0.9093   0.3816   0.6313     O
N       0.9102   0.7486   0.3138     N
C       0.9141   0.0535   0.8256     C
Cu     0.91847  0.58476  0.80526    Cu
C       0.9188   0.9122   0.5705     C
H       0.9221   0.6456   0.2242     H
N       0.9227   0.1697   0.7123     N
H       0.9303    0.732   0.8746     H
H        0.936   0.4091   0.0477     H
O       0.9388  0.43104  0.25053     O
Cu     0.94156  0.53126  0.25775    Cu
O        0.944   0.6304  0.26454     O
C       0.9443   0.8837   0.5149     C
C       0.9487   0.1559   0.4918     C
O       0.9568   0.1966   0.5353     O
O       0.9613   0.2887   0.9617     O
H       0.9614   0.3699   0.6059     H
H       0.9631     0.97   0.8657     H
N       0.9638   0.3258   0.1722     N
N       0.9654   0.2378   0.7032     N
H        0.966   0.4184   0.2909     H
O       0.9678   0.7397   0.6962     O
H       0.9699   0.9086   0.6044     H
C       0.9778   0.8603   0.2993     C
H       0.9781   0.4003   0.8998     H
H       0.9805   0.9078   0.2969     H
C       0.9825   0.7274   0.0856     C
O       0.9841   0.6312   0.6515     O
H        0.986   0.0903   0.8326     H
O       0.9871   0.2831   0.8612     O
C        0.992   0.2699    0.145     C
