data_I
_chemical_name_common  '/Users/gianmarcoterrones/Downloads/NOTT-300'
_cell_length_a 14.82959
_cell_length_b 14.82959
_cell_length_c 11.77317
_cell_angle_alpha 90.00000
_cell_angle_beta  90.00000
_cell_angle_gamma 90.00000
_space_group_name_H-M_alt      'P 1'


loop_
_space_group_symop_operation_xyz
  'x, y, z' 

loop_
_atom_site_label
_atom_site_fract_x
_atom_site_fract_y
_atom_site_fract_z
_atom_site_type_symbol
H          0.0      0.0  0.10399     H
C          0.0      0.0 0.1964914     C
C          0.0      0.0 0.4347411     C
C          0.0      0.0 0.5652611     C
C          0.0      0.0 0.8035114     C
H          0.0      0.0 0.896009     H
C          0.0      0.5 0.0535114     C
H          0.0      0.5 0.146009     H
H          0.0      0.5  0.35399     H
C          0.0      0.5 0.4464914     C
C          0.0      0.5 0.6847411     C
C          0.0      0.5 0.8152611     C
C     0.040711 0.571388 0.872848     C
C     0.040711 0.928628 0.377168     C
C     0.044981 0.568197 0.992781     C
C     0.044981 0.931817 0.257221     C
C     0.068197 0.544981 0.507221     C
C     0.068197 0.955021 0.742781     C
H     0.068644 0.628416   0.8264     H
H     0.068644 0.871584 0.423599     H
C     0.071388 0.540711 0.627168     C
C     0.071388 0.959291 0.622848     C
C     0.0928016 0.6396114  0.05552     C
C     0.0928016 0.8603914  0.19452     C
O     0.102199 0.713259 0.9986916     O
O     0.102199 0.786759 0.2513116     O
O     0.121651 0.626291 0.3556412     O
O     0.121651 0.873711 0.8943612     O
O     0.126291 0.621651 0.1443612     O
O     0.126291 0.878351 0.1056412     O
H     0.128416 0.568644 0.673599     H
H     0.128416 0.931356   0.5764     H
C     0.1396114 0.5928016  0.44452     C
C     0.1396114 0.9072016  0.80552     C
Al    0.194265 0.694265     0.25    Al
Al    0.194265 0.805745      0.0    Al
O     0.213259 0.602199 0.5013116     O
O     0.213259 0.897819 0.7486916     O
O     0.2425613     0.75    0.625     O
O         0.25 0.7425613    0.875     O
O         0.25 0.7574413    0.375     O
O     0.2574413     0.75    0.125     O
O     0.286759 0.602199 0.2486916     O
O     0.286759 0.897819 0.0013116     O
Al    0.305745 0.694265      0.5    Al
Al    0.305745 0.805745     0.75    Al
C     0.3603914 0.5928016  0.30552     C
C     0.3603914 0.9072016  0.94452     C
H     0.371584 0.568644   0.0764     H
H     0.371584 0.931356 0.173599     H
O     0.373711 0.621651 0.6056412     O
O     0.373711 0.878351 0.6443612     O
O     0.378351 0.626291 0.3943612     O
O     0.378351 0.873711 0.8556412     O
O     0.397819 0.713259 0.7513116     O
O     0.397819 0.786759 0.4986916     O
C     0.4072016 0.6396114  0.69452     C
C     0.4072016 0.8603914  0.55552     C
C     0.428628 0.540711 0.122848     C
C     0.428628 0.959291 0.127168     C
H     0.431356 0.628416 0.923599     H
H     0.431356 0.871584   0.3264     H
C     0.431817 0.544981 0.242781     C
C     0.431817 0.955021 0.007221     C
C     0.455021 0.568197 0.757221     C
C     0.455021 0.931817 0.492781     C
C     0.459291 0.571388 0.877168     C
C     0.459291 0.928628 0.372848     C
C          0.5      0.0 0.1847411     C
C          0.5      0.0 0.3152611     C
C          0.5      0.0 0.5535114     C
H          0.5      0.0 0.646009     H
H          0.5      0.0  0.85399     H
C          0.5      0.0 0.9464914     C
C          0.5      0.5 0.0652611     C
C          0.5      0.5 0.3035114     C
H          0.5      0.5 0.396009     H
H          0.5      0.5  0.60399     H
C          0.5      0.5 0.6964914     C
C          0.5      0.5 0.9347411     C
C     0.540711 0.071388 0.372848     C
C     0.540711 0.428628 0.877168     C
C     0.544981 0.068197 0.492781     C
C     0.544981 0.431817 0.757221     C
C     0.568197 0.044981 0.007221     C
C     0.568197 0.455021 0.242781     C
H     0.568644 0.128416   0.3264     H
H     0.568644 0.371584 0.923599     H
C     0.571388 0.040711 0.127168     C
C     0.571388 0.459291 0.122848     C
C     0.5928016 0.1396114  0.55552     C
C     0.5928016 0.3603914  0.69452     C
O     0.602199 0.213259 0.4986916     O
O     0.602199 0.286759 0.7513116     O
O     0.621651 0.126291 0.8556412     O
O     0.621651 0.373711 0.3943612     O
O     0.626291 0.121651 0.6443612     O
O     0.626291 0.378351 0.6056412     O
H     0.628416 0.068644 0.173599     H
H     0.628416 0.431356   0.0764     H
C     0.6396114 0.0928016  0.94452     C
C     0.6396114 0.4072016  0.30552     C
Al    0.694265 0.194265     0.75    Al
Al    0.694265 0.305745      0.5    Al
O     0.713259 0.102199 0.0013116     O
O     0.713259 0.397819 0.2486916     O
O     0.7425613     0.25    0.125     O
O         0.75 0.2425613    0.375     O
O         0.75 0.2574413    0.875     O
O     0.7574413     0.25    0.625     O
O     0.786759 0.102199 0.7486916     O
O     0.786759 0.397819 0.5013116     O
Al    0.805745 0.194265      0.0    Al
Al    0.805745 0.305745     0.25    Al
C     0.8603914 0.0928016  0.80552     C
C     0.8603914 0.4072016  0.44452     C
H     0.871584 0.068644   0.5764     H
H     0.871584 0.431356 0.673599     H
O     0.873711 0.121651 0.1056412     O
O     0.873711 0.378351 0.1443612     O
O     0.878351 0.126291 0.8943612     O
O     0.878351 0.373711 0.3556412     O
O     0.897819 0.213259 0.2513116     O
O     0.897819 0.286759 0.9986916     O
C     0.9072016 0.1396114  0.19452     C
C     0.9072016 0.3603914  0.05552     C
C     0.928628 0.040711 0.622848     C
C     0.928628 0.459291 0.627168     C
H     0.931356 0.128416 0.423599     H
H     0.931356 0.371584   0.8264     H
C     0.931817 0.044981 0.742781     C
C     0.931817 0.455021 0.507221     C
C     0.955021 0.068197 0.257221     C
C     0.955021 0.431817 0.992781     C
C     0.959291 0.071388 0.377168     C
C     0.959291 0.428628 0.872848     C
