data_I
_chemical_name_common  '/Users/gianmarcoterrones/Downloads/NU-1000'
_cell_length_a 39.38757
_cell_length_b 39.38757
_cell_length_c 16.48294
_cell_angle_alpha 90.00000
_cell_angle_beta  90.00000
_cell_angle_gamma 120.00000
_space_group_name_H-M_alt      'P 1'


loop_
_space_group_symop_operation_xyz
  'x, y, z' 

loop_
_atom_site_label
_atom_site_fract_x
_atom_site_fract_y
_atom_site_fract_z
_atom_site_type_symbol
Zr       3e-06 0.455262 0.106654    Zr
Zr       3e-06 0.455262 0.893354    Zr
Zr       3e-06 0.544742 0.106654    Zr
Zr       3e-06 0.544742 0.893354    Zr
O        3e-05  0.40012  0.07727     O
O        3e-05  0.40012  0.92287     O
O        3e-05  0.59992  0.07727     O
O        3e-05  0.59992  0.92287     O
O        6e-05  0.46684  0.24064     O
O        6e-05  0.46684  0.75944     O
O        6e-05  0.53324  0.24064     O
O        6e-05  0.53324  0.75944     O
O     0.0350417 0.5175212  0.10484     O
O     0.0350417 0.5175212  0.89524     O
O     0.0365917 0.4679911      0.0     O
O     0.0365917 0.5686012      0.0     O
O      0.05773 0.4659816  0.15154     O
O      0.05773 0.4659816  0.84854     O
O      0.05773 0.5917716  0.15154     O
O      0.05773 0.5917716  0.84854     O
Zr    0.071963 0.535982      0.0    Zr
H       0.0872   0.4384   0.2446     H
H       0.0872   0.4384   0.7554     H
H       0.0872   0.6488   0.2446     H
H       0.0872   0.6488   0.7554     H
C      0.09283  0.49132  0.13374     C
C      0.09283  0.49132  0.86634     C
C      0.09283  0.60152  0.13374     C
C      0.09283  0.60152  0.86634     C
O      0.10453 0.5174416  0.08414     O
O      0.10453 0.5174416  0.91594     O
O      0.10453 0.5870313  0.08414     O
O      0.10453 0.5870313  0.91594     O
C      0.11365  0.45924  0.23985     C
C      0.11365  0.45924  0.76025     C
C      0.11365  0.65442  0.23985     C
C      0.11365  0.65442  0.76025     C
C      0.12393  0.49032  0.18214     C
C      0.12393  0.49032  0.81794     C
C      0.12393  0.63362  0.18214     C
C      0.12393  0.63362  0.81794     C
H       0.1364   0.4408     0.33     H
H       0.1364   0.4408     0.67     H
H       0.1364   0.6956     0.33     H
H       0.1364   0.6956     0.67     H
C      0.14315  0.46004  0.28885     C
C      0.14315  0.46004  0.71125     C
C      0.14315  0.68312  0.28885     C
C      0.14315  0.68312  0.71125     C
C      0.16226  0.51684  0.17415     C
C      0.16226  0.51684  0.82595     C
C      0.16226  0.64544  0.17415     C
C      0.16226  0.64544  0.82595     C
H       0.1623   0.4908   0.4337     H
H       0.1623   0.4908   0.5663     H
H       0.1623   0.6715   0.4337     H
H       0.1623   0.6715   0.5663     H
H       0.1696   0.5367   0.1341     H
H       0.1696   0.5367   0.8659     H
H       0.1696   0.6329   0.1341     H
H       0.1696   0.6329   0.8659     H
C      0.18175  0.48824  0.27794     C
C      0.18175  0.48824  0.72214     C
C      0.18175  0.69352  0.27794     C
C      0.18175  0.69352  0.72214     C
C      0.18325  0.49044  0.46135     C
C      0.18325  0.49044  0.53875     C
C      0.18325  0.69282  0.46135     C
C      0.18325  0.69282  0.53875     C
C      0.19136  0.51694  0.22004     C
C      0.19136  0.51694  0.78004     C
C      0.19136  0.67444  0.22004     C
C      0.19136  0.67444  0.78004     C
C      0.21346  0.48994  0.41454     C
C      0.21346  0.48994  0.58554     C
C      0.21346  0.72354  0.41454     C
C      0.21346  0.72354  0.58554     C
C      0.21375  0.48894  0.32694     C
C      0.21375  0.48894  0.67314     C
C      0.21375  0.72482  0.32694     C
C      0.21375  0.72482  0.67314     C
H       0.2179   0.5365   0.2121     H
H       0.2179   0.5365   0.7879     H
H       0.2179   0.6814   0.2121     H
H       0.2179   0.6814   0.7879     H
C      0.24352  0.75656  0.45687     C
C      0.24352  0.75656  0.54327     C
C      0.24356  0.48705  0.45687     C
C      0.24356  0.48705  0.54327     C
H       0.2439   0.4878   0.2304     H
H       0.2439   0.4878   0.7696     H
H       0.2439   0.7561   0.2304     H
H       0.2439   0.7561   0.7696     H
C      0.24424  0.75577  0.28817     C
C      0.24424  0.75577  0.71197     C
C      0.24437  0.48855  0.28817     C
C      0.24437  0.48855  0.71197     C
C      0.27522  0.48894  0.32694     C
C      0.27522  0.48894  0.67314     C
C      0.27522  0.78635  0.32694     C
C      0.27522  0.78635  0.67314     C
C      0.27654  0.48994  0.41454     C
C      0.27654  0.48994  0.58554     C
C      0.27654  0.78666  0.41454     C
C      0.27654  0.78666  0.58554     C
H       0.3044   0.4408     0.33     H
H       0.3044   0.4408     0.67     H
H       0.3044   0.8636     0.33     H
H       0.3044   0.8636     0.67     H
C      0.30652  0.48824  0.27794     C
C      0.30652  0.48824  0.72214     C
C      0.30652  0.81835  0.27794     C
C      0.30652  0.81835  0.72214     C
C      0.30722  0.49044  0.46135     C
C      0.30722  0.49044  0.53875     C
C      0.30722  0.81685  0.46135     C
C      0.30722  0.81685  0.53875     C
C      0.31692  0.46004  0.28885     C
C      0.31692  0.46004  0.71125     C
C      0.31692  0.85695  0.28885     C
C      0.31692  0.85695  0.71125     C
H       0.3186   0.5365   0.2121     H
H       0.3186   0.5365   0.7879     H
H       0.3186   0.7821   0.2121     H
H       0.3186   0.7821   0.7879     H
C      0.32564  0.51694  0.22004     C
C      0.32564  0.51694  0.78004     C
C      0.32564  0.80876  0.22004     C
C      0.32564  0.80876  0.78004     C
H       0.3285   0.4908   0.4337     H
H       0.3285   0.4908   0.5663     H
H       0.3285   0.8377   0.4337     H
H       0.3285   0.8377   0.5663     H
C      0.34562  0.45924  0.23985     C
C      0.34562  0.45924  0.76025     C
C      0.34562  0.88645  0.23985     C
C      0.34562  0.88645  0.76025     C
H       0.3512   0.4384   0.2446     H
H       0.3512   0.4384   0.7554     H
H       0.3512   0.9128   0.2446     H
H       0.3512   0.9128   0.7554     H
C      0.35464  0.51684  0.17415     C
C      0.35464  0.51684  0.82595     C
C      0.35464  0.83786  0.17415     C
C      0.35464  0.83786  0.82595     C
C      0.36642  0.49032  0.18214     C
C      0.36642  0.49032  0.81794     C
C      0.36642  0.87613  0.18214     C
C      0.36642  0.87613  0.81794     C
H       0.3671   0.5367   0.1341     H
H       0.3671   0.5367   0.8659     H
H       0.3671   0.8304   0.1341     H
H       0.3671   0.8304   0.8659     H
C      0.39852  0.49132  0.13374     C
C      0.39852  0.49132  0.86634     C
C      0.39852  0.90723  0.13374     C
C      0.39852  0.90723  0.86634     C
O      0.40012    3e-05  0.07727     O
O      0.40012    3e-05  0.92287     O
O      0.40012  0.40012  0.07727     O
O      0.40012  0.40012  0.92287     O
O     0.4082316 0.4659816  0.15154     O
O     0.4082316 0.4659816  0.84854     O
O     0.4082316  0.94233  0.15154     O
O     0.4082316  0.94233  0.84854     O
O     0.4129713 0.5174416  0.08414     O
O     0.4129713 0.5174416  0.91594     O
O     0.4129713  0.89553  0.08414     O
O     0.4129713  0.89553  0.91594     O
O     0.4314012 0.4679911      0.0     O
O     0.4314012 0.9634117      0.0     O
H       0.4384   0.0872   0.2446     H
H       0.4384   0.0872   0.7554     H
H       0.4384   0.3512   0.2446     H
H       0.4384   0.3512   0.7554     H
H       0.4408   0.1364     0.33     H
H       0.4408   0.1364     0.67     H
H       0.4408   0.3044     0.33     H
H       0.4408   0.3044     0.67     H
Zr    0.455262    3e-06 0.106654    Zr
Zr    0.455262    3e-06 0.893354    Zr
Zr    0.455262 0.455262 0.106654    Zr
Zr    0.455262 0.455262 0.893354    Zr
C      0.45924  0.11365  0.23985     C
C      0.45924  0.11365  0.76025     C
C      0.45924  0.34562  0.23985     C
C      0.45924  0.34562  0.76025     C
C      0.46004  0.14315  0.28885     C
C      0.46004  0.14315  0.71125     C
C      0.46004  0.31692  0.28885     C
C      0.46004  0.31692  0.71125     C
H       0.4633   0.6329   0.1341     H
H       0.4633   0.6329   0.8659     H
H       0.4633   0.8304   0.1341     H
H       0.4633   0.8304   0.8659     H
H       0.4635   0.6814   0.2121     H
H       0.4635   0.6814   0.7879     H
H       0.4635   0.7821   0.2121     H
H       0.4635   0.7821   0.7879     H
Zr    0.464022 0.535982      0.0    Zr
Zr    0.464022 0.928043      0.0    Zr
O     0.4659816  0.05773  0.15154     O
O     0.4659816  0.05773  0.84854     O
O     0.4659816 0.4082316  0.15154     O
O     0.4659816 0.4082316  0.84854     O
O      0.46684    6e-05  0.24064     O
O      0.46684    6e-05  0.75944     O
O      0.46684  0.46684  0.24064     O
O      0.46684  0.46684  0.75944     O
O     0.4679911 0.0365917      0.0     O
O     0.4679911 0.4314012      0.0     O
O     0.4824812 0.5175212  0.10484     O
O     0.4824812 0.5175212  0.89524     O
O     0.4824812 0.9649617  0.10484     O
O     0.4824812 0.9649617  0.89524     O
O     0.4825616 0.5870313  0.08414     O
O     0.4825616 0.5870313  0.91594     O
O     0.4825616  0.89553  0.08414     O
O     0.4825616  0.89553  0.91594     O
C      0.48314  0.67444  0.22004     C
C      0.48314  0.67444  0.78004     C
C      0.48314  0.80876  0.22004     C
C      0.48314  0.80876  0.78004     C
C      0.48324  0.64544  0.17415     C
C      0.48324  0.64544  0.82595     C
C      0.48324  0.83786  0.17415     C
C      0.48324  0.83786  0.82595     C
C      0.48705  0.24352  0.45687     C
C      0.48705  0.24352  0.54327     C
H       0.4878   0.2439   0.2304     H
H       0.4878   0.2439   0.7696     H
C      0.48824  0.18175  0.27794     C
C      0.48824  0.18175  0.72214     C
C      0.48824  0.30652  0.27794     C
C      0.48824  0.30652  0.72214     C
C      0.48855  0.24424  0.28817     C
C      0.48855  0.24424  0.71197     C
C      0.48894  0.21375  0.32694     C
C      0.48894  0.21375  0.67314     C
C      0.48894  0.27522  0.32694     C
C      0.48894  0.27522  0.67314     C
C      0.48994  0.21346  0.41454     C
C      0.48994  0.21346  0.58554     C
C      0.48994  0.27654  0.41454     C
C      0.48994  0.27654  0.58554     C
C      0.49032  0.12393  0.18214     C
C      0.49032  0.12393  0.81794     C
C      0.49032  0.36642  0.18214     C
C      0.49032  0.36642  0.81794     C
C      0.49044  0.18325  0.46135     C
C      0.49044  0.18325  0.53875     C
C      0.49044  0.30722  0.46135     C
C      0.49044  0.30722  0.53875     C
H       0.4908   0.1623   0.4337     H
H       0.4908   0.1623   0.5663     H
H       0.4908   0.3285   0.4337     H
H       0.4908   0.3285   0.5663     H
C      0.49132  0.09283  0.13374     C
C      0.49132  0.09283  0.86634     C
C      0.49132  0.39852  0.13374     C
C      0.49132  0.39852  0.86634     C
C      0.50872  0.60152  0.13374     C
C      0.50872  0.60152  0.86634     C
C      0.50872  0.90723  0.13374     C
C      0.50872  0.90723  0.86634     C
H       0.5092   0.6715   0.4337     H
H       0.5092   0.6715   0.5663     H
H       0.5092   0.8377   0.4337     H
H       0.5092   0.8377   0.5663     H
C      0.50964  0.69282  0.46135     C
C      0.50964  0.69282  0.53875     C
C      0.50964  0.81685  0.46135     C
C      0.50964  0.81685  0.53875     C
C      0.50972  0.63362  0.18214     C
C      0.50972  0.63362  0.81794     C
C      0.50972  0.87613  0.18214     C
C      0.50972  0.87613  0.81794     C
C      0.51014  0.72354  0.41454     C
C      0.51014  0.72354  0.58554     C
C      0.51014  0.78666  0.41454     C
C      0.51014  0.78666  0.58554     C
C      0.51114  0.72482  0.32694     C
C      0.51114  0.72482  0.67314     C
C      0.51114  0.78635  0.32694     C
C      0.51114  0.78635  0.67314     C
C      0.51155  0.75584  0.28817     C
C      0.51155  0.75584  0.71197     C
C      0.51184  0.69352  0.27794     C
C      0.51184  0.69352  0.72214     C
C      0.51184  0.81835  0.27794     C
C      0.51184  0.81835  0.72214     C
H       0.5122   0.7561   0.2304     H
H       0.5122   0.7561   0.7696     H
C      0.51305  0.75652  0.45687     C
C      0.51305  0.75652  0.54327     C
C      0.51684  0.16226  0.17415     C
C      0.51684  0.16226  0.82595     C
C      0.51684  0.35464  0.17415     C
C      0.51684  0.35464  0.82595     C
C      0.51694  0.19136  0.22004     C
C      0.51694  0.19136  0.78004     C
C      0.51694  0.32564  0.22004     C
C      0.51694  0.32564  0.78004     C
O     0.5174416  0.10453  0.08414     O
O     0.5174416  0.10453  0.91594     O
O     0.5174416 0.4129713  0.08414     O
O     0.5174416 0.4129713  0.91594     O
O     0.5175212 0.0350417  0.10484     O
O     0.5175212 0.0350417  0.89524     O
O     0.5175212 0.4824812  0.10484     O
O     0.5175212 0.4824812  0.89524     O
O     0.5320111 0.5686012      0.0     O
O     0.5320111 0.9634117      0.0     O
O      0.53324    6e-05  0.24064     O
O      0.53324    6e-05  0.75944     O
O      0.53324  0.53324  0.24064     O
O      0.53324  0.53324  0.75944     O
O     0.5340216 0.5917716  0.15154     O
O     0.5340216 0.5917716  0.84854     O
O     0.5340216  0.94233  0.15154     O
O     0.5340216  0.94233  0.84854     O
Zr    0.535982 0.071963      0.0    Zr
Zr    0.535982 0.464022      0.0    Zr
H       0.5365   0.2179   0.2121     H
H       0.5365   0.2179   0.7879     H
H       0.5365   0.3186   0.2121     H
H       0.5365   0.3186   0.7879     H
H       0.5367   0.1696   0.1341     H
H       0.5367   0.1696   0.8659     H
H       0.5367   0.3671   0.1341     H
H       0.5367   0.3671   0.8659     H
C      0.54004  0.68312  0.28885     C
C      0.54004  0.68312  0.71125     C
C      0.54004  0.85695  0.28885     C
C      0.54004  0.85695  0.71125     C
C      0.54084  0.65442  0.23985     C
C      0.54084  0.65442  0.76025     C
C      0.54084  0.88645  0.23985     C
C      0.54084  0.88645  0.76025     C
Zr    0.544742    3e-06 0.106654    Zr
Zr    0.544742    3e-06 0.893354    Zr
Zr    0.544742 0.544742 0.106654    Zr
Zr    0.544742 0.544742 0.893354    Zr
H       0.5592   0.6956     0.33     H
H       0.5592   0.6956     0.67     H
H       0.5592   0.8636     0.33     H
H       0.5592   0.8636     0.67     H
H       0.5616   0.6488   0.2446     H
H       0.5616   0.6488   0.7554     H
H       0.5616   0.9128   0.2446     H
H       0.5616   0.9128   0.7554     H
O     0.5686012 0.0365917      0.0     O
O     0.5686012 0.5320111      0.0     O
O     0.5870313  0.10453  0.08414     O
O     0.5870313  0.10453  0.91594     O
O     0.5870313 0.4825616  0.08414     O
O     0.5870313 0.4825616  0.91594     O
O     0.5917716  0.05773  0.15154     O
O     0.5917716  0.05773  0.84854     O
O     0.5917716 0.5340216  0.15154     O
O     0.5917716 0.5340216  0.84854     O
O      0.59992    3e-05  0.07727     O
O      0.59992    3e-05  0.92287     O
O      0.59992  0.59992  0.07727     O
O      0.59992  0.59992  0.92287     O
C      0.60152  0.09283  0.13374     C
C      0.60152  0.09283  0.86634     C
C      0.60152  0.50872  0.13374     C
C      0.60152  0.50872  0.86634     C
H       0.6329   0.1696   0.1341     H
H       0.6329   0.1696   0.8659     H
H       0.6329   0.4633   0.1341     H
H       0.6329   0.4633   0.8659     H
C      0.63362  0.12393  0.18214     C
C      0.63362  0.12393  0.81794     C
C      0.63362  0.50972  0.18214     C
C      0.63362  0.50972  0.81794     C
C      0.64544  0.16226  0.17415     C
C      0.64544  0.16226  0.82595     C
C      0.64544  0.48324  0.17415     C
C      0.64544  0.48324  0.82595     C
H       0.6488   0.0872   0.2446     H
H       0.6488   0.0872   0.7554     H
H       0.6488   0.5616   0.2446     H
H       0.6488   0.5616   0.7554     H
C      0.65442  0.11365  0.23985     C
C      0.65442  0.11365  0.76025     C
C      0.65442  0.54084  0.23985     C
C      0.65442  0.54084  0.76025     C
H       0.6715   0.1623   0.4337     H
H       0.6715   0.1623   0.5663     H
H       0.6715   0.5092   0.4337     H
H       0.6715   0.5092   0.5663     H
C      0.67444  0.19136  0.22004     C
C      0.67444  0.19136  0.78004     C
C      0.67444  0.48314  0.22004     C
C      0.67444  0.48314  0.78004     C
H       0.6814   0.2179   0.2121     H
H       0.6814   0.2179   0.7879     H
H       0.6814   0.4635   0.2121     H
H       0.6814   0.4635   0.7879     H
C      0.68312  0.14315  0.28885     C
C      0.68312  0.14315  0.71125     C
C      0.68312  0.54004  0.28885     C
C      0.68312  0.54004  0.71125     C
C      0.69282  0.18325  0.46135     C
C      0.69282  0.18325  0.53875     C
C      0.69282  0.50964  0.46135     C
C      0.69282  0.50964  0.53875     C
C      0.69352  0.18175  0.27794     C
C      0.69352  0.18175  0.72214     C
C      0.69352  0.51184  0.27794     C
C      0.69352  0.51184  0.72214     C
H       0.6956   0.1364     0.33     H
H       0.6956   0.1364     0.67     H
H       0.6956   0.5592     0.33     H
H       0.6956   0.5592     0.67     H
C      0.72354  0.21346  0.41454     C
C      0.72354  0.21346  0.58554     C
C      0.72354  0.51014  0.41454     C
C      0.72354  0.51014  0.58554     C
C      0.72482  0.21375  0.32694     C
C      0.72482  0.21375  0.67314     C
C      0.72482  0.51114  0.32694     C
C      0.72482  0.51114  0.67314     C
C      0.75577  0.51155  0.28817     C
C      0.75577  0.51155  0.71197     C
C      0.75584  0.24437  0.28817     C
C      0.75584  0.24437  0.71197     C
H       0.7561   0.2439   0.2304     H
H       0.7561   0.2439   0.7696     H
H       0.7561   0.5122   0.2304     H
H       0.7561   0.5122   0.7696     H
C      0.75652  0.24356  0.45687     C
C      0.75652  0.24356  0.54327     C
C      0.75656  0.51305  0.45687     C
C      0.75656  0.51305  0.54327     C
H       0.7821   0.3186   0.2121     H
H       0.7821   0.3186   0.7879     H
H       0.7821   0.4635   0.2121     H
H       0.7821   0.4635   0.7879     H
C      0.78635  0.27522  0.32694     C
C      0.78635  0.27522  0.67314     C
C      0.78635  0.51114  0.32694     C
C      0.78635  0.51114  0.67314     C
C      0.78666  0.27654  0.41454     C
C      0.78666  0.27654  0.58554     C
C      0.78666  0.51014  0.41454     C
C      0.78666  0.51014  0.58554     C
C      0.80876  0.32564  0.22004     C
C      0.80876  0.32564  0.78004     C
C      0.80876  0.48314  0.22004     C
C      0.80876  0.48314  0.78004     C
C      0.81685  0.30722  0.46135     C
C      0.81685  0.30722  0.53875     C
C      0.81685  0.50964  0.46135     C
C      0.81685  0.50964  0.53875     C
C      0.81835  0.30652  0.27794     C
C      0.81835  0.30652  0.72214     C
C      0.81835  0.51184  0.27794     C
C      0.81835  0.51184  0.72214     C
H       0.8304   0.3671   0.1341     H
H       0.8304   0.3671   0.8659     H
H       0.8304   0.4633   0.1341     H
H       0.8304   0.4633   0.8659     H
H       0.8377   0.3285   0.4337     H
H       0.8377   0.3285   0.5663     H
H       0.8377   0.5092   0.4337     H
H       0.8377   0.5092   0.5663     H
C      0.83786  0.35464  0.17415     C
C      0.83786  0.35464  0.82595     C
C      0.83786  0.48324  0.17415     C
C      0.83786  0.48324  0.82595     C
C      0.85695  0.31692  0.28885     C
C      0.85695  0.31692  0.71125     C
C      0.85695  0.54004  0.28885     C
C      0.85695  0.54004  0.71125     C
H       0.8636   0.3044     0.33     H
H       0.8636   0.3044     0.67     H
H       0.8636   0.5592     0.33     H
H       0.8636   0.5592     0.67     H
C      0.87613  0.36642  0.18214     C
C      0.87613  0.36642  0.81794     C
C      0.87613  0.50972  0.18214     C
C      0.87613  0.50972  0.81794     C
C      0.88645  0.34562  0.23985     C
C      0.88645  0.34562  0.76025     C
C      0.88645  0.54084  0.23985     C
C      0.88645  0.54084  0.76025     C
O      0.89553 0.4129713  0.08414     O
O      0.89553 0.4129713  0.91594     O
O      0.89553 0.4825616  0.08414     O
O      0.89553 0.4825616  0.91594     O
C      0.90723  0.39852  0.13374     C
C      0.90723  0.39852  0.86634     C
C      0.90723  0.50872  0.13374     C
C      0.90723  0.50872  0.86634     C
H       0.9128   0.3512   0.2446     H
H       0.9128   0.3512   0.7554     H
H       0.9128   0.5616   0.2446     H
H       0.9128   0.5616   0.7554     H
Zr    0.928043 0.464022      0.0    Zr
O      0.94233 0.4082316  0.15154     O
O      0.94233 0.4082316  0.84854     O
O      0.94233 0.5340216  0.15154     O
O      0.94233 0.5340216  0.84854     O
O     0.9634117 0.4314012      0.0     O
O     0.9634117 0.5320111      0.0     O
O     0.9649617 0.4824812  0.10484     O
O     0.9649617 0.4824812  0.89524     O
