data_I
_chemical_name_common  '/Users/gianmarcoterrones/Downloads/NU-1000-SALI-9'
_cell_length_a 41.04650
_cell_length_b 41.04650
_cell_length_c 16.79200
_cell_angle_alpha 90.00000
_cell_angle_beta  90.00000
_cell_angle_gamma 120.00000
_space_group_name_H-M_alt      'P 1'


loop_
_space_group_symop_operation_xyz
  'x, y, z' 

loop_
_atom_site_label
_atom_site_fract_x
_atom_site_fract_y
_atom_site_fract_z
_atom_site_type_symbol
O     -0.01067  0.57221  0.01222     O
O      0.01892  0.49632  0.06486     O
O      0.01955  0.53789  0.94659     O
O      0.01982  0.44898  0.96403     O
O      0.02003  0.48994  0.84602     O
O      0.03615  0.44511  0.79383     O
O      0.03928  0.55467   0.1125     O
O      0.04099   0.4594  0.12369     O
O      0.04137  0.56649   0.8241     O
Zr     0.05107   0.5095  0.95652    Zr
C      0.07042  0.46808   0.8173     C
H      0.07114  0.60784  0.22964     H
O        0.072  0.48873  0.87649     O
H       0.0721  0.62021  0.71063     H
H      0.07345  0.42436  0.69328     H
H      0.07497  0.44358  0.24515     H
C      0.07497  0.56962   0.0918     C
C      0.07626  0.47829  0.09885     C
C      0.07657  0.57494  0.83256     C
O      0.08499  0.55735  0.03017     O
O      0.08536  0.49748  0.03291     O
O      0.08595  0.55595  0.88022     O
C      0.09985  0.61887  0.20982     C
C      0.10094  0.62794  0.72306     C
C      0.10145   0.4456  0.71149     C
C      0.10297   0.4584  0.22085     C
C       0.1055  0.47066    0.774     C
C      0.10688  0.60249  0.14214     C
C      0.10841  0.60859  0.78426     C
C      0.10892  0.47847  0.14862     C
F      0.11508  0.28152  0.67557     F
H      0.12128  0.66155  0.30196     H
H      0.12229  0.67066  0.63055     H
H      0.12488  0.43899  0.31528     H
H      0.12732  0.42676   0.6243     H
F      0.12825  0.25447  0.77702     F
C      0.12935  0.64994  0.25298     C
C      0.13021  0.65723  0.67603     C
C      0.13257   0.4568  0.26317     C
C      0.13291  0.44702  0.67113     C
F      0.13726  0.24243  0.65045     F
C      0.13953  0.26984  0.70183     C
F      0.14258  0.92887  0.66971     F
C      0.14345  0.49709  0.79415     C
F       0.1436  0.87974  0.61217     F
C      0.14565  0.61916   0.1217     C
F      0.14581  0.92592  0.53663     F
C      0.14721  0.49809  0.12324     C
C      0.14724  0.62101  0.79574     C
H      0.14886    0.517  0.84165     H
H      0.15303  0.64635  0.53461     H
H      0.15349  0.60851  0.07063     H
H      0.15396  0.64452  0.38938     H
H      0.15434  0.51409  0.06845     H
H      0.15532  0.60769  0.84113     H
C      0.15744  0.91812  0.60787     C
H      0.15814  0.48556  0.53939     H
H      0.16011   0.4898  0.39486     H
F      0.16411  0.26981  0.48743     F
F      0.16646  0.23229  0.39317     F
C      0.16833  0.66588   0.2341     C
C      0.16901  0.66929  0.68702     C
C      0.17088  0.47401  0.68942     C
C      0.17114  0.47757  0.23979     C
C      0.17475   0.6711  0.50508     C
C      0.17503  0.67028  0.41666     C
C      0.17509  0.49862  0.75332     C
C       0.1752  0.64964  0.16589     C
C      0.17648  0.65052  0.74931     C
C      0.17717  0.49787   0.1674     C
C       0.1794  0.48168  0.51018     C
C      0.17983   0.3037   0.7039     C
F      0.17983  0.33107  0.75218     F
C      0.17993  0.48322  0.42199     C
C      0.18784  0.26115  0.44576     C
F      0.18959  0.31806   0.6275     F
F      0.19844  0.30886  0.35269     F
F      0.19865  0.27916   0.8123     F
C      0.20069  0.93974   0.6113     C
C      0.20128  0.69885  0.28361     C
C      0.20138  0.70134  0.63593     C
F      0.20165  0.89542  0.70253     F
C      0.20214  0.70148  0.54946     C
C      0.20217  0.70017  0.37028     C
H      0.20316  0.51983  0.77113     H
H      0.20392  0.66032  0.14651     H
F      0.20408  0.94736  0.75292     F
C      0.20438  0.47797  0.28908     C
F      0.20508    0.249  0.49939     F
C      0.20508  0.47663  0.64094     C
H      0.20536  0.65827  0.76155     H
H      0.20553  0.51419  0.14454     H
C      0.20599  0.47873  0.37571     C
C      0.20628  0.47779  0.55462     C
F      0.20788  0.26507    0.688     F
C      0.20887  0.29311  0.73566     C
F      0.21297  0.97766  0.60135     F
F      0.21397  0.92794  0.54819     F
C      0.21612  0.93365  0.69098     C
C      0.21732  0.29632  0.40091     C
F       0.2229  0.26174  0.29235     F
C      0.23202  0.73166  0.50554     C
C      0.23205  0.73105  0.41279     C
H      0.23251  0.73306   0.7397     H
C      0.23257  0.73247  0.67524     C
C      0.23287  0.72966  0.24316     C
H      0.23301  0.72951  0.17871     H
H      0.23474  0.47649  0.18416     H
C      0.23527  0.47745  0.24856     C
C      0.23577  0.47754   0.4182     C
C      0.23615  0.47756  0.51095     C
H      0.23629  0.47617  0.74527     H
C      0.23663  0.47724  0.68085     C
F        0.238  0.32402  0.45654     F
C      0.24405  0.28847  0.34931     C
C      0.24967  0.32716  0.73667     C
F      0.25039   0.3558  0.78175     F
F      0.25661  0.91389  0.80009     F
F      0.25813  0.34014  0.26201     F
C      0.25977  0.95362  0.69206     C
F      0.26018  0.34013  0.65945     F
F       0.2611  0.27395   0.3976     F
C      0.26263  0.76177  0.54796     C
C      0.26282  0.76059   0.3694     C
C      0.26333  0.76331  0.63421     C
C      0.26382   0.7612  0.28307     C
C      0.26625  0.47836  0.37471     C
C      0.26643  0.47726  0.28841     C
C      0.26712  0.47885  0.55338     C
F      0.26717  0.30264  0.84799     F
C      0.26799  0.47798  0.63979     C
F      0.26906   0.9725  0.82854     F
F      0.27141  0.93751  0.63434     F
F      0.27422  0.99128    0.674     F
C      0.27504   0.3244  0.30713     C
C      0.27557  0.95093  0.77429     C
F      0.27826  0.29168  0.19198     F
C      0.27845  0.31683  0.77181     C
F      0.27886  0.28922  0.72505     F
C      0.29295  0.78856  0.50242     C
C      0.29311  0.78787  0.41432     C
C      0.29582  0.79625  0.68295     C
C      0.29684  0.79415  0.23398     C
H        0.297  0.84249  0.61804     H
H      0.29722  0.84073  0.29581     H
C      0.29723  0.48292  0.41936     C
F      0.29727  0.35022   0.3646     F
C      0.29773  0.48335  0.50748     C
C      0.29875  0.47616  0.23911     C
C      0.30033  0.31591  0.25184     C
C      0.30077  0.47691  0.68723     C
H      0.30153  0.43318  0.61644     H
H      0.30217  0.43353  0.30921     H
H      0.30402  0.76073  0.76598     H
H      0.30533  0.51741  0.15095     H
F      0.30547  1.05719  1.56989     F
H      0.30668  0.75867  0.15402     H
C       0.3098  0.83499  0.66563     C
H      0.31022  0.51936  0.77515     H
C      0.31069  0.83309  0.24992     C
F      0.31232  1.02579  1.43719     F
F      0.31238  0.93554  0.89925     F
C      0.31339  0.78947  0.74856     C
C      0.31403  0.45272  0.25943     C
C      0.31472  0.45266  0.66525     C
C       0.3154  0.49893   0.1708     C
C      0.31563  0.78743  0.17053     C
F       0.3157  0.29828  0.29572     F
F      0.31788   0.3705  0.17104     F
H      0.31825  0.81013  0.53046     H
C      0.31841  0.96454  0.77184     C
H      0.31864  0.80883  0.38591     H
F      0.31872  0.98928   1.3128     F
F      0.31879  0.37848  0.82461     F
C       0.3189  0.35121  0.77597     C
C      0.31932  0.50026  0.75416     C
H      0.32293   0.4882  0.39065     H
H      0.32374  0.48889  0.53514     H
F      0.32378  0.93906  0.72773     F
F      0.33013   0.3661  0.70033     F
F      0.33174  1.00601  1.57871     F
C      0.33278  0.35202  0.21343     C
F      0.33325    0.953  1.18496     F
C      0.33489  0.96796  0.85618     C
F      0.33503  0.32112  0.09375     F
F      0.33507  0.32049  0.87827     F
F      0.33578  0.99804  0.89559     F
F       0.3378  0.99943   0.7356     F
C      0.34042  0.86479  0.70857     C
C      0.34201  0.86294  0.20806     C
C      0.34258  1.06839  1.58708     C
C      0.34361  0.81923  0.79218     C
C      0.34494  0.45355  0.21723     C
C      0.34567  0.49905  0.12749     C
C      0.34604  0.45314    0.704     C
F      0.34606   0.9797  1.45223     F
F      0.34649   1.0679  1.66881     F
C      0.34662  0.81724  0.12806     C
C      0.34805  0.34113   0.8086     C
C      0.34988  1.04007  1.45641     C
H      0.34992  0.89353  0.69101     H
C       0.3503  0.50007  0.79441     C
H      0.35084  0.89172  0.22411     H
C      0.35405  1.04169  1.54808     C
F      0.35442  0.31993  0.75328     F
H      0.35557  0.43464  0.68165     H
H      0.35557  0.81166  0.84136     H
H      0.35564  0.43582  0.23809     H
F      0.35577  0.37558  0.27322     F
H      0.35672  0.51734  0.07619     H
C      0.35699  0.34346  0.15602     C
C      0.35707  1.01078  1.32676     C
C       0.3584  0.85791  0.77323     C
H      0.35937  0.80957  0.08062     H
C      0.36129  0.85607  0.14587     C
C      0.36176  0.47657  0.14939     C
H      0.36302  0.51865  0.84478     H
C      0.36417  1.01514  1.41785     C
C      0.36489  0.47663   0.7701     C
F      0.36529   1.1049   1.5606     F
F      0.36578   1.0151  1.16218     F
F      0.36646  0.95752  1.32117     F
C      0.36781  0.98526  1.19524     C
F         0.37  1.04607  1.29356     F
F      0.37037  1.07625  1.42619     F
F      0.37198  0.32447  0.19587     F
C      0.37405  0.97377  0.85651     C
C      0.37721  0.99191  1.28555     C
C      0.38461  0.37623  0.82619     C
C      0.38896  0.37897  0.12217     C
F      0.39099  1.05356  1.56833     F
O      0.39113  0.97526  0.91945     O
C      0.39115  0.88993  0.82214     C
O      0.39391  0.97613  0.79692     O
O      0.39441  0.38663  0.04909     O
C      0.39463  0.47699   0.1003     C
C       0.3948  0.88813  0.09739     C
C       0.3967  0.98115  1.14863     C
O      0.39755  0.98057  1.07359     O
C      0.39787  0.47484  0.81328     C
O      0.39803  0.38656  0.89498     O
F      0.40239  1.03143   1.4327     F
O      0.40354   0.8801  0.88383     O
O      0.40554   0.8784  0.03348     O
O      0.40558  0.40019  0.77516     O
O      0.40577  0.49762  0.03654     O
O      0.40607  0.92539  0.80008     O
O       0.4106   0.4576  0.12361     O
O      0.41113  0.45396  0.78697     O
O      0.41128  0.92346  0.12101     O
O       0.4145   0.4933  0.87676     O
O      0.41505  0.40485  0.16239     O
F      0.41563  1.01472  1.29629     F
O      0.42429  0.94487  0.96697     O
O       0.4246  0.97987  1.17731     O
O      0.42495  0.45186  0.96189     O
H      0.43093   0.0659  0.69992     H
H      0.43149  0.11828  0.62587     H
H      0.43625    0.119  0.28593     H
H      0.43757  0.06832  0.21032     H
Zr     0.43838  0.97847  0.86502    Zr
H      0.43871   0.2941  0.61789     H
H      0.44006  0.29303  0.29746     H
H      0.44067  0.34696  0.69144     H
H      0.44182  0.34614  0.22573     H
H      0.44477  0.81195  0.08203     H
H      0.44478  0.76001  0.76265     H
Zr      0.4449  0.43713  0.85895    Zr
H      0.44503  0.81106  0.84044     H
Zr     0.44517  0.43767  0.06344    Zr
H      0.44539   0.7613  0.15859     H
H      0.44727  0.60874  0.07559     H
Zr     0.44791  0.97923  0.06638    Zr
H      0.44809  0.66079  0.14969     H
H      0.45027  0.61173  0.85297     H
H      0.45144  0.66365  0.77783     H
Zr     0.45172  0.91255  0.95779    Zr
C      0.45262  0.09441  0.71335     C
C      0.45295  0.12484  0.67025     C
Zr      0.4534  0.51196  0.96279    Zr
O      0.45682  0.03226  0.80318     O
O      0.45851  0.01276  0.96537     O
C       0.4589  0.12647  0.24388     C
C       0.4592  0.30694  0.66515     C
C      0.45981  0.09678  0.20046     C
O      0.46013  0.41878  0.96078     O
C      0.46027  0.33777  0.70816     C
C      0.46056  0.30622  0.25034     C
C      0.46138  0.33706  0.20821     C
O      0.46251  0.94443  0.84939     O
C      0.46582  0.81973  0.12812     C
C      0.46599  0.78873  0.74926     C
C      0.46607  0.81852  0.79442     C
C      0.46622  0.79007  0.17262     C
O      0.46628  0.87997  0.03414     O
C      0.46656  0.62063  0.12516     C
C      0.46663  0.62078  0.79866     C
O      0.46691  0.40377  0.11971     O
O      0.46702  0.40499   0.7976     O
C      0.46711  0.65115  0.16816     C
O      0.46713  0.55969  0.88948     O
C      0.46759  0.65139  0.75513     C
O      0.46798  0.56037  0.03398     O
O      0.46852  0.88496   0.8853     O
O      0.46922  0.03587  0.11863     O
O      0.46977  0.49656  0.07271     O
O      0.47169   0.4951  0.87178     O
O      0.47301  0.94534  0.06451     O
H      0.47482  0.64249  0.52967     H
H        0.478   0.6442  0.38519     H
C      0.47945  0.10043  0.77328     C
C      0.47959  0.06793  0.82204     C
C      0.48034  0.16327  0.68332     C
C      0.48171  0.19655   0.6339     C
H      0.48222  0.22802  0.73834     H
C      0.48231  0.19743  0.54758     C
C      0.48232  0.66912  0.50238     C
C      0.48279  0.22821  0.67389     C
C      0.48311  0.22793  0.50423     C
C      0.48357  0.66993  0.41433     C
C      0.48358  0.25961  0.63331     C
C      0.48374  0.29262  0.68213     C
C      0.48401  0.22812  0.41161     C
C      0.48409  0.16937  0.50284     C
C      0.48442  0.19802  0.36887     C
C      0.48447  0.25892  0.54695     C
C      0.48523  0.16971  0.41453     C
C      0.48557  0.35613  0.77219     C
C      0.48558  0.29251  0.23306     C
C      0.48582  0.25912  0.36839     C
C      0.48586  0.19774   0.2825     C
C      0.48592  0.56947  0.82302     C
H      0.48607  0.14694  0.53179     H
C      0.48607  0.60197  0.77334     C
C      0.48608  0.25999  0.28208     C
C      0.48625  0.16512  0.23348     C
C       0.4863  0.38903  0.82152     C
C      0.48657  0.35574  0.14435     C
C      0.48692  0.22928  0.24203     C
C      0.48704  0.38863  0.09602     C
H      0.48755  0.22949  0.17757     H
H      0.48793  0.14751  0.38646     H
C      0.48797  0.10343  0.14336     C
C      0.48818  0.70018  0.54851     C
H      0.48821  0.81342  0.38866     H
H      0.48827  0.81297  0.53423     H
C      0.48841  0.66582  0.68348     C
C       0.4885   0.0711  0.09421     C
C      0.48884   0.2896  0.50153     C
C      0.48884  0.69913  0.63494     C
C      0.48919  0.57223  0.09689     C
C      0.48926  0.70135  0.36995     C
C      0.48955  0.28971  0.41335     C
C      0.48986   0.7306  0.67589     C
C      0.48999  0.60539   0.1452     C
H      0.49026  0.73062  0.74033     H
C      0.49048  0.70116  0.28372     C
C      0.49052  0.79071  0.50524     C
C      0.49053  0.79102  0.41676     C
C      0.49079  0.89036  0.09158     C
C      0.49092  0.73188  0.50624     C
C      0.49097  0.66857  0.23464     C
C      0.49101  0.73257  0.24379     C
C       0.4912  0.73236   0.4135     C
C      0.49128  0.76258  0.63651     C
H      0.49147   0.7329  0.17933     H
C      0.49162  0.76228     0.55     C
C      0.49166  0.85855  0.14205     C
C      0.49187  0.76403  0.28437     C
C      0.49189  0.76303  0.37089     C
C      0.49214  0.79546  0.68709     C
C       0.4923  0.79697   0.2349     C
C      0.49251  0.85719  0.78115     C
C      0.49257  0.88931  0.83174     C
H      0.49332  0.31513   0.5298     H
H      0.49478  0.31545  0.38483     H
O      0.49645  0.01257  0.84671     O
O      0.50261  0.98066  0.72142     O
O      0.50361  0.07776  0.88047     O
O      0.50407  0.46265  0.07025     O
O      0.50415  0.55264  0.79774     O
O      0.50435    0.464  0.85044     O
C      0.50629  0.13897  0.78761     C
C      0.50664  0.16928  0.74438     C
C       0.5067  0.61618   0.7017     C
O      0.50675  0.40016  0.88582     O
O       0.5068  0.01283  0.06219     O
O      0.50732   0.9363  0.64898     O
O      0.50817  0.40053  0.03287     O
O      0.50846   0.0803  0.02945     O
C      0.50852  0.31056  0.74711     C
C      0.50886  0.64772   0.6599     C
O      0.50905  0.55685  0.12056     O
C      0.50948  0.34123   0.7904     C
C      0.51025  0.31074  0.16814     C
C      0.51076  0.34128   0.1254     C
O      0.51111  0.53289  0.96123     O
O      0.51151  0.94537  0.94222     O
O      0.51244  0.92534  0.82069     O
O      0.51368  0.92615  0.10797     O
C       0.5139  0.17194  0.17476     C
C       0.5144  0.62324  0.21072     C
C      0.51475  0.14217   0.1313     C
C      0.51511  0.65396  0.25338     C
Zr     0.51825  0.04447  0.95393    Zr
C      0.51827  0.86555  0.20337     C
C      0.51869  0.83579  0.24789     C
C      0.51909  0.83418    0.675     C
C      0.51915    0.864  0.72014     C
Zr     0.52013  0.44767  0.95995    Zr
Zr     0.52143  0.97848  0.83768    Zr
H      0.52179  0.60306  0.67789     H
F      0.52448  0.99654  0.55385     F
H      0.52689  0.65792  0.60808     H
C      0.52744  0.97249  0.68097     C
H      0.52759    0.146  0.83281     H
H      0.52787  0.30113  0.76428     H
H      0.52822   0.1978  0.75823     H
Zr     0.52905  0.52127  0.06551    Zr
Zr     0.52923  0.52383  0.86134    Zr
H      0.52942  0.35348  0.83879     H
H      0.52986  0.30169  0.15065     H
H      0.53062  0.35381  0.07696     H
Zr     0.53117  0.97915  0.04405    Zr
H      0.53341  0.61358  0.22923     H
H      0.53488  0.66637  0.30201     H
H      0.53554  0.20066  0.16283     H
H      0.53687  0.14974  0.08782     H
H      0.53925  0.89432  0.21699     H
H      0.54014  0.84336    0.293     H
H      0.54052  0.89272  0.70727     H
H      0.54059  0.84164  0.63009     H
O      0.54542  0.01216  0.94082     O
O      0.54911  0.50805  0.96219     O
C       0.5493  1.00158  0.61486     C
O      0.55129  0.97315  0.74117     O
O      0.56024  0.06446  0.87372     O
O      0.56031  0.55295  0.16453     O
O      0.56048  0.46792    0.877     O
O      0.56148  0.49842   0.1241     O
F      0.56281  1.03736  0.64538     F
O      0.56342  0.56656  0.78014     O
O      0.56427   0.0325  0.10883     O
O      0.56639  0.07814  0.02742     O
O      0.56674  0.51047  0.79288     O
O      0.56761  0.46042  0.03331     O
F      0.56811  0.96144  0.55101     F
O      0.57269  0.97988  1.11842     O
F      0.57273  0.64957  0.81484     F
O       0.5747  0.02859  0.80585     O
O       0.5749  0.57488  0.90028     O
C      0.57803  0.47984  0.09895     C
C      0.57865  0.48807  0.81647     C
C      0.57894  0.06818  0.08864     C
O      0.57992  0.98226  0.99623     O
O      0.58009   0.5721  0.05117     O
F      0.58134  1.01899  0.44954     F
C      0.58241  0.06278  0.82123     C
C      0.58243  0.99746  0.58132     C
C      0.58488  0.58927   0.8323     C
F      0.58633  0.71236   0.7517     F
C      0.58655   0.5787  0.12446     C
F      0.58989  0.63556  0.69785     F
C      0.59433  0.98242  1.06251     C
F      0.59945  0.77547  0.68886     F
C      0.60261  0.65164  0.77209     C
C      0.60483  1.02631   0.5145     C
F      0.60654  0.69935  0.63815     F
F      0.60677  1.00199  0.64293     F
H      0.60694  0.14112  0.82936     H
F      0.60862  0.63221  0.20524     F
C      0.61073  0.48009  0.14843     C
H      0.61142  0.51527   0.2444     H
C      0.61143   0.4861  0.77275     C
C      0.61152  0.10009   0.1394     C
H      0.61152  0.44207  0.84365     H
C      0.61549  0.09759  0.77805     C
H      0.61573  0.14698  0.07166     H
F      0.61614  1.06231  0.54145     F
C      0.61699  0.62825  0.81619     C
C      0.61758  0.71549  0.71291     C
H      0.61885  0.06402  0.22238     H
C      0.62057  0.61222  0.15916     C
F      0.62075  0.57769   0.2725     F
H      0.62087   0.4446  0.06857     H
F       0.6219   0.7635   0.5774     F
H      0.62265  0.53028   0.6883     H
C      0.62363  0.13536  0.78788     C
C      0.62469  0.50038   0.2205     C
C      0.62484  0.46136  0.79458     C
C      0.62701  0.13901  0.12143     C
C      0.62866  0.09288  0.20538     C
F      0.62918  0.98806   0.4639     F
C       0.6297  0.46077  0.12317     C
C      0.63096   0.5104  0.70809     C
C      0.63147  0.77902  0.65296     C
C       0.6327  0.98714  1.07346     C
C      0.63296  0.69361  0.76107     C
F      0.63336  0.64512    0.888     F
H      0.63488  0.06536  0.71181     H
F        0.636  0.96168  1.02494     F
F      0.63654  0.97938  1.15208     F
F      0.63872  1.04303  0.35407     F
C      0.63898  0.09314  0.72206     C
C      0.64023  1.02438  0.48832     C
F      0.64256  0.63506  0.09756     F
C      0.64347  0.59947  0.21044     C
F       0.6435  0.62548  0.77027     F
F      0.64444   0.8379  0.59814     F
F      0.64475   0.7101  0.83534     F
C      0.64701  0.75785   0.7028     C
H      0.64985  0.46729  0.39246     H
H      0.65083  0.47101   0.5371     H
H      0.65252  0.14597   0.3884     H
F      0.65284  0.57767  0.16329     F
C      0.65303  0.16633  0.74398     C
H      0.65421  0.14464  0.53404     H
C      0.65549  0.46085  0.75361     C
C      0.65601  0.50234  0.26289     C
C      0.65712  0.16849  0.16653     C
F      0.65725  1.05225  1.09917     F
F      0.65746  0.77437  0.77735     F
H      0.65751  0.19431  0.75433     H
F      0.65848  1.03458  0.97312     F
C      0.65897   0.1224  0.25003     C
C      0.66005   0.8212  0.64405     C
C       0.6602  0.46159  0.16717     C
C      0.66148     0.51  0.66763     C
C      0.66219  1.05203  0.41955     C
C      0.66305  1.02789  1.05215     C
F      0.66356   0.6957  0.72145     F
H      0.66386  0.44093  0.77292     H
F      0.66409  1.03299  0.55309     F
H      0.66585  0.52007   0.3152     H
H      0.66703  0.19734  0.14908     H
C      0.66781  0.12383  0.67748     C
F      0.66929  0.83865   0.7177     F
F      0.67072  0.65499  0.29084     F
H      0.67096  0.11449  0.29829     H
H      0.67263  0.44563  0.14435     H
F      0.67279  1.08829  0.44349     F
C      0.67392  0.16137   0.2334     C
C       0.6743  0.48205  0.23941     C
C      0.67456  0.48486  0.68787     C
H      0.67497  0.52969  0.61929     H
C       0.6757   0.1615  0.68618     C
C      0.67644  0.47526  0.42054     C
C      0.67671  0.47658  0.50861     C
C      0.67787  0.16751  0.41622     C
C      0.67848  0.16716  0.50475     C
F      0.67862  0.76123  0.66525     F
F      0.67889  0.59661  0.35917     F
C      0.68005  0.63268  0.24543     C
H      0.68418  0.11788  0.63549     H
F       0.6877  1.01458  0.36935     F
F      0.69244  0.82652  0.60688     F
C      0.69791  1.05052  0.39502     C
F      0.69813  1.07041  0.26033     F
C      0.70207  0.61893  0.29817     C
F      0.70294  0.65418   0.1833     F
C       0.7038  1.03561  1.06461     C
C      0.70671  0.19405  0.28353     C
C      0.70724  0.19498  0.63615     C
C      0.70734  0.48402  0.64027     C
C      0.70739  0.48235   0.2889     C
C      0.70767    0.195  0.37022     C
F      0.70774  1.02666  1.14221     F
C      0.70797  0.48165  0.37532     C
C      0.70801   0.4827  0.55398     C
C      0.70805   0.1954  0.54957     C
F      0.70989  1.01262  1.01372     F
F        0.712  0.59729  0.25202     F
C      0.72016  1.07824  0.32773     C
F      0.72166   1.0591  0.45994     F
F      0.72747   1.1003  1.09922     F
F      0.72819  0.67312  0.38272     F
F      0.72964  1.08634  0.97062     F
F      0.73261  1.11491  0.35133     F
C      0.73372  1.07744  1.04822     C
C      0.73762  0.22685  0.67588     C
H       0.7378    0.227  0.74036     H
F       0.7378  0.61432  0.44571     F
C      0.73784  0.22523  0.24331     C
H      0.73795  0.22491  0.17886     H
C      0.73806  0.22558   0.5059     C
C      0.73816  0.22518    0.413     C
C      0.73825  0.65198  0.33517     C
C      0.73891  0.48533  0.68119     C
H      0.73907  0.48585  0.74566     H
C      0.73919  0.48346  0.24904     C
H      0.73938  0.48354  0.18462     H
C      0.73957  0.48535  0.51132     C
C      0.73971  0.48505  0.41864     C
F      0.75117  1.07491   0.3088     F
C      0.76064  0.63823  0.38623     C
F      0.76133  0.67479  0.27461     F
H      0.76546  0.29347  0.14618     H
C      0.76748  0.25667  0.54856     C
C      0.76792  0.25588  0.36963     C
H      0.76797  0.43724  0.16713     H
H      0.76801  0.30187  0.76513     H
C      0.76849  0.25783  0.63502     C
C      0.76923  0.25635  0.28314     C
C      0.77053  0.48728  0.55494     C
C       0.7708  0.48652  0.37597     C
C      0.77082  0.48692  0.64119     C
C      0.77127  0.48545  0.28945     C
H      0.77155  0.43026  0.73264     H
F       0.7725  0.61858  0.33857     F
C      0.77464  1.08552  1.06011     C
F      0.77865    1.076  1.13721     F
F      0.78131  1.06338  1.00786     F
F      0.78513   0.6904  0.47751     F
C       0.7943  0.28698  0.50291     C
C      0.79437  0.30446  0.16447     C
C      0.79448  0.28661  0.41466     C
C       0.7955  0.67084  0.42596     C
C      0.79641  0.30981  0.74771     C
C      0.79682   0.4585  0.17927     C
F      0.79836  1.15004   1.0981     F
C      0.79881  0.45562  0.73347     C
C      0.79986  0.48727  0.42199     C
C      0.80001  0.48822  0.51049     C
F      0.80081  1.13761  0.96863     F
C      0.80183  0.29038  0.68333     C
C      0.80201  0.28909   0.2328     C
C      0.80366  0.48749   0.6905     C
C      0.80408  0.48554  0.23965     C
C       0.8043  1.12751  1.04553     C
F      0.81432  0.65659  0.46905     F
H      0.81459  0.34457  0.06808     H
H      0.81528  0.31216   0.3861     H
H      0.81529  0.31261  0.53099     H
H      0.81803  0.43587  0.08976     H
F      0.81983  0.69536   0.3692     F
H      0.82103   0.3537  0.83801     H
H      0.82299  0.48621   0.3941     H
H        0.823  0.42985  0.80755     H
C      0.82331   0.3346  0.11897     C
H      0.82375   0.4889  0.54013     H
C      0.82615  0.45762  0.13433     C
C      0.82728  0.34014  0.78984     C
C      0.82879  0.45544  0.77711     C
C      0.84011  0.30271  0.66568     C
C      0.84048  0.51941   0.6947     C
C      0.84127  0.30568  0.25054     C
C      0.84302  0.51234   0.2503     C
C      0.84492  1.13572  1.05672     C
H      0.84626  0.54486  0.66361     H
H      0.84662  0.28873   0.6189     H
H      0.84981  0.29486   0.3002     H
F       0.8504  1.12726  1.13357     F
H      0.85096  0.53457  0.29368     H
F        0.853  1.11498  1.00354     F
C      0.86237  0.35196  0.13764     C
C      0.86508  0.48376  0.14606     C
C      0.86551  0.35294  0.77023     C
C      0.86561  0.48724  0.78143     C
F      0.86959  1.17352  1.04305     F
C      0.87035   0.5194  0.73965     C
C      0.87038  0.33647  0.20537     C
C      0.87073  0.33312  0.70678     C
F      0.87157  0.59528  0.40702     F
C      0.87248  0.51131  0.20558     C
F      0.87956  0.66333  0.36738     F
O      0.87966  0.39685  0.02747     O
O      0.88576   0.4586  0.03598     O
F       0.8908  0.63618  0.50883     F
O      0.89211  0.46199  0.88439     O
C      0.89212  0.38554  0.08514     C
F      0.89408  0.55855   0.5002     F
C      0.89651   0.4823  0.09497     C
H      0.89722  0.54506  0.74261     H
C      0.89734  0.48664  0.83214     C
O      0.89786  0.40328   0.8758     O
H      0.89903  0.34109  0.68857     H
H      0.89924  0.34839  0.22411     H
C      0.90001  0.38524  0.81489     C
H      0.90133  0.53264  0.21743     H
C      0.90179  0.62771  0.43745     C
C       0.9112  0.66015  0.37916     C
Zr     0.91784  0.44398  0.95818    Zr
F      0.92044  0.52784  0.60764     F
F      0.92206  0.60553  0.58878     F
F      0.92231  0.65326  0.30643     F
F      0.92355  1.19571  0.55838     F
C      0.92718  0.59146  0.51781     C
O      0.92899   0.4037   0.0909     O
F      0.93041  1.25154  0.64486     F
O      0.93235  0.50392   0.1125     O
O      0.93354  0.50653  0.82353     O
O      0.93422  0.39671   0.7913     O
C      0.93544  0.62101  0.45142     C
F      0.93945  0.69392  0.40949     F
F      0.93979  1.30936  0.72832     F
F      0.94339  0.60881  0.38099     F
F      0.94759   1.3036  0.89012     F
F      0.94805  1.25111  0.80228     F
F      0.94818  1.14765  0.61698     F
F      0.94885   1.3327  1.23414     F
F      0.94948  1.19967   0.7125     F
O      0.95128  0.46275   0.0666     O
F      0.95154  0.60948  1.12441     F
O      0.95174   0.5045  0.94625     O
C       0.9555   0.5601  0.60575     C
O      0.95658   0.4244  0.96046     O
O      0.95698  0.45838  0.86372     O
F      0.95742  1.16076  0.48632     F
F      0.95821  0.58296  0.66917     F
F      0.95871  0.56062  0.46325     F
C      0.95939  0.58202  0.52764     C
C      0.96134  1.20877  0.57253     C
F      0.96675  0.65477  0.47308     F
C      0.96693   1.2615  0.66547     C
C      0.96854  1.17566  0.56192     C
C      0.97196  1.22654  0.65694     C
C      0.97366  1.31487  0.75811     C
C      0.97478  1.27765  0.75157     C
O      0.97778  1.38518  0.79283     O
C      0.97793  1.32913  0.84504     C
F      0.97803  1.32278  1.13169     F
F      0.97884  0.51956  0.56303     F
C      0.97985  1.36661  0.85046     C
C      0.98058  1.34915  1.18662     C
O      0.98113  1.40932  1.17406     O
F      0.98142  0.67062  1.20656     F
F      0.98211   1.2356  0.51556     F
C      0.98211  1.38183  1.14241     C
O      0.98382  0.55871  1.13196     O
O      0.98416  1.38429  0.91436     O
O      0.98466    0.505  0.71973     O
Zr     0.98493   0.4311  0.86202    Zr
O      0.98521   1.3859  1.06792     O
Zr     0.98549  0.52137  0.04909    Zr
Zr     0.98553  0.43722  0.06576    Zr
C      0.98591  0.54837  0.61554     C
C      0.98629  0.53554  0.69946     C
Zr     0.98673  0.51569  0.84324    Zr
F      0.98689  1.31673  1.34117     F
C      0.98708  0.58286  1.08145     C
C      0.98753  0.61875  1.10133     C
O      0.98857  0.55457  0.76044     O
F      0.99129  1.28911  0.61326     F
F      0.99382  0.61507  0.52832     F
F      0.99716  0.64117    1.034     F
F      1.00267  1.34231  0.71281     F
F      1.00552  0.61633  1.23509     F
F       1.0064  1.18758  0.57051     F
F      1.00794  0.72665  1.30547     F
F      1.00916  1.23723  0.67235     F
F      1.00994  1.28448  0.77561     F
F      1.01055  1.33296  0.87813     F
F      1.01078  1.30166  1.23615     F
C      1.01577  0.63989  1.16934     C
C      1.01609  1.36254  1.23817     C
C      1.01631  1.33057  1.28701     C
C      1.01748  0.67733  1.19296     C
F       1.0182  1.38962  1.29057     F
F      1.02126  0.57852  0.59953     F
F      1.02607  0.66983  1.33134     F
F      1.02718  1.30752  1.44899     F
F      1.03191  0.77703  1.42139     F
F      1.03266   0.7024  1.13015     F
C      1.04166   0.6951  1.26896     C
F      1.04186  1.28134  1.34783     F
C      1.04395   0.7327  1.29367     C
F      1.04705  1.37855  1.18809     F
F      1.05117  0.64782  1.14457     F
F      1.05256    0.723   1.4319     F
C      1.05321  1.31444  1.38945     C
C      1.05414  1.34457  1.33214     C
F      1.06054  0.75856  1.23264     F
F      1.06214  1.37625  1.37621     F
C      1.06728  0.74928  1.37108     C
C      1.06771  0.78505  1.39991     C
F      1.06783  1.29564  1.55295     F
F      1.07759  1.26369   1.4556     F
F      1.07771  0.70152  1.25536     F
F      1.08128  0.81235   1.3412     F
F      1.08265  1.35443  1.27679     F
F      1.09079  0.79912    1.466     F
C       1.0908  1.29879  1.48968     C
C      1.09212  1.32712  1.42803     C
F       1.1041  0.75803  1.35782     F
F      1.10514  1.36146   1.4658     F
F      1.11773   1.3313  1.36948     F
F       1.1267  1.31128  1.51847     F
