data_I
_chemical_name_common  '/Users/gianmarcoterrones/Research/MOFs/MOF_structures/water_stability_work_extra_structs/cleaned_from_CCDC/ODOXAG'
_cell_length_a 10.13230
_cell_length_b 13.15880
_cell_length_c 19.56690
_cell_angle_alpha 90.00000
_cell_angle_beta  90.00000
_cell_angle_gamma 108.98100
_space_group_name_H-M_alt      'P 1'


loop_
_space_group_symop_operation_xyz
  'x, y, z' 

loop_
_atom_site_label
_atom_site_fract_x
_atom_site_fract_y
_atom_site_fract_z
_atom_site_type_symbol
O       0.0007   0.0831   0.8725     O
O       0.0007   0.5831   0.6275     O
H         0.01    0.119    0.426     H
H         0.01    0.619    0.074     H
H       0.0389   0.1104   0.0771     H
H       0.0389   0.6104   0.4229     H
H       0.0566   0.2708   0.1517     H
H       0.0566   0.7708   0.3483     H
C       0.0634   0.1194   0.3238     C
C       0.0634   0.6194   0.1762     C
C       0.0702   0.3792   0.7909     C
C       0.0702   0.8792   0.7091     C
C       0.0776   0.1191   0.3944     C
C       0.0776   0.6191   0.1056     C
O       0.0865   0.3832   0.2744     O
O       0.0865   0.8832   0.2256     O
N       0.0898    0.268   0.0481     N
N       0.0898    0.768   0.4519     N
O       0.0913   0.4135   0.7282     O
O       0.0913   0.9135   0.7718     O
H       0.0945   0.3855   0.1184     H
H       0.0945   0.8855   0.3816     H
C       0.0964   0.4002    0.338     C
C       0.0964   0.9002    0.162     C
H       0.1035   0.1312   0.0033     H
H       0.1035   0.6312   0.4967     H
C       0.1103     0.16   0.0492     C
C       0.1103     0.66   0.4508     C
C       0.1161   0.3189   0.1184     C
C       0.1161   0.8189   0.3816     C
O       0.1278   0.1457   0.5371     O
O       0.1278   0.6457   0.9629     O
H         0.14    0.389    0.468     H
H         0.14    0.889    0.032     H
O       0.1551   0.3465   0.8221     O
O       0.1551   0.8465   0.6779     O
Cd     0.15844  0.10899  0.79026    Cd
Cd     0.15844  0.60899  0.70974    Cd
H       0.1726   0.3119   0.9532     H
H       0.1726   0.8119   0.5468     H
C        0.179   0.1274   0.2816     C
C        0.179   0.6274   0.2184     C
H       0.1872   0.4112   0.0007     H
H       0.1872   0.9112   0.4993     H
C       0.1935   0.3392   0.9994     C
C       0.1935   0.8392   0.5006     C
C       0.2063   0.1235   0.4233     C
C       0.2063   0.6235   0.0767     C
O       0.2195   0.3911   0.5913     O
O       0.2195   0.8911   0.9087     O
C       0.2227   0.3977   0.4479     C
C       0.2227   0.8977   0.0521     C
C       0.2238   0.1319   0.5011     C
C       0.2238   0.6319   0.9989     C
C       0.2264   0.3998   0.3766     C
C       0.2264   0.8998   0.1234     C
O       0.2296   0.1881   0.6905     O
O       0.2296   0.6881   0.8095     O
H       0.2464   0.1404   0.1238     H
H       0.2464   0.6404   0.3762     H
C       0.2566   0.1746   0.0793     C
C       0.2566   0.6746   0.4207     C
C       0.2694   0.3411   0.1371     C
C       0.2694   0.8411   0.3629     C
Cd     0.29437   0.3728  0.70348    Cd
Cd     0.29437   0.8728  0.79652    Cd
H       0.3053   0.1394   0.0497     H
H       0.3053   0.6394   0.4503     H
C        0.307   0.1322   0.3103     C
C        0.307   0.6322   0.1897     C
C       0.3197   0.1284   0.3812     C
C       0.3197   0.6284   0.1188     C
C       0.3218   0.3775   0.5617     C
C       0.3218   0.8775   0.9383     C
C       0.3322   0.3847   0.4858     C
C       0.3322   0.8847   0.0142     C
O       0.3397   0.1276    0.524     O
O       0.3397   0.6276    0.976     O
N       0.3408   0.2901   0.0863     N
N       0.3408   0.7901   0.4137     N
O       0.3419   0.1732   0.8703     O
O       0.3419   0.6732   0.6297     O
C        0.342   0.3428   0.0189     C
C        0.342   0.8428   0.4811     C
C       0.3465   0.3968   0.3426     C
C       0.3465   0.8968   0.1574     C
H        0.347    0.399    0.294     H
H        0.347    0.899    0.206     H
O       0.3705   0.0619   0.7912     O
O       0.3705   0.5619   0.7088     O
H       0.3783   0.3064   0.9843     H
H       0.3783   0.8064   0.5157     H
H        0.392    0.126    0.402     H
H        0.392    0.626    0.098     H
H       0.4025    0.417   0.0212     H
H       0.4025    0.917   0.4788     H
O       0.4029   0.0042   0.6327     O
O       0.4029   0.5042   0.8673     O
C       0.4102   0.1166   0.8458     C
C       0.4102   0.6166   0.6542     C
O       0.4207   0.3576   0.5954     O
O       0.4207   0.8576   0.9046     O
Cd     0.42388  0.18568  0.62789    Cd
Cd     0.42388  0.68568  0.87211    Cd
C        0.431   0.1556    0.263     C
C        0.431   0.6556    0.237     C
O       0.4388    0.223   0.2163     O
O       0.4388    0.723   0.2837     O
C        0.449   0.3769   0.4511     C
C        0.449   0.8769   0.0489     C
C       0.4592   0.3863   0.3805     C
C       0.4592   0.8863   0.1195     C
O       0.4788   0.3914    0.773     O
O       0.4788   0.8914    0.727     O
H        0.487    0.135    0.985     H
H        0.487    0.635    0.515     H
H        0.513    0.365    0.485     H
H        0.513    0.865    0.015     H
O       0.5212   0.1086    0.273     O
O       0.5212   0.6086    0.227     O
C       0.5408   0.1137   0.8805     C
C       0.5408   0.6137   0.6195     C
C        0.551   0.1231   0.9511     C
C        0.551   0.6231   0.5489     C
O       0.5612    0.277   0.7163     O
O       0.5612    0.777   0.7837     O
C        0.569   0.3444    0.763     C
C        0.569   0.8444    0.737     C
Cd     0.57612  0.31432  0.12789    Cd
Cd     0.57612  0.81432  0.37211    Cd
O       0.5793   0.1424   0.0954     O
O       0.5793   0.6424   0.4046     O
C       0.5898   0.3834   0.3458     C
C       0.5898   0.8834   0.1542     C
O       0.5971   0.4958   0.1327     O
O       0.5971   0.9958   0.3673     O
H       0.5975    0.083   0.5212     H
H       0.5975    0.583   0.9788     H
H        0.608    0.374    0.902     H
H        0.608    0.874    0.598     H
H       0.6217   0.1936   0.4843     H
H       0.6217   0.6936   0.0157     H
O       0.6295   0.4381   0.2912     O
O       0.6295   0.9381   0.2088     O
H        0.653    0.101    0.794     H
H        0.653    0.601    0.706     H
C       0.6535   0.1032   0.8426     C
C       0.6535   0.6032   0.6574     C
C        0.658   0.1572   0.5189     C
C        0.658   0.6572   0.9811     C
O       0.6581   0.3268   0.3703     O
O       0.6581   0.8268   0.1297     O
N       0.6592   0.2099   0.5863     N
N       0.6592   0.7099   0.9137     N
O       0.6603   0.3724    0.024     O
O       0.6603   0.8724    0.476     O
C       0.6678   0.1153   0.9858     C
C       0.6678   0.6153   0.5142     C
C       0.6782   0.1225   0.0617     C
C       0.6782   0.6225   0.4383     C
C       0.6803   0.3716   0.8812     C
C       0.6803   0.8716   0.6188     C
C        0.693   0.3678   0.8103     C
C        0.693   0.8678   0.6897     C
H       0.6947   0.3606   0.5497     H
H       0.6947   0.8606   0.9503     H
Cd     0.70563   0.1272  0.20348    Cd
Cd     0.70563   0.6272  0.29652    Cd
C       0.7306   0.1589   0.6371     C
C       0.7306   0.6589   0.8629     C
C       0.7434   0.3254   0.5793     C
C       0.7434   0.8254   0.9207     C
H       0.7536   0.3596   0.6238     H
H       0.7536   0.8596   0.8762     H
O       0.7704   0.3119   0.1905     O
O       0.7704   0.8119   0.3095     O
C       0.7736   0.1002   0.8766     C
C       0.7736   0.6002   0.6234     C
C       0.7762   0.3681   0.0011     C
C       0.7762   0.8681   0.4989     C
C       0.7773   0.1023   0.9479     C
C       0.7773   0.6023   0.5521     C
O       0.7805   0.1089   0.0913     O
O       0.7805   0.6089   0.4087     O
C       0.7937   0.3765   0.9233     C
C       0.7937   0.8765   0.5767     C
C       0.8065   0.1608   0.4994     C
C       0.8065   0.6608   0.0006     C
H       0.8128   0.0888   0.5007     H
H       0.8128   0.5888   0.9993     H
C        0.821   0.3726   0.7816     C
C        0.821   0.8726   0.7184     C
H       0.8274   0.1881   0.4532     H
H       0.8274   0.6881   0.0468     H
Cd     0.84156  0.39101  0.29026    Cd
Cd     0.84156  0.89101  0.20974    Cd
O       0.8449   0.1535   0.3221     O
O       0.8449   0.6535   0.1779     O
H         0.86    0.111    0.968     H
H         0.86    0.611    0.532     H
O       0.8722   0.3543   0.0371     O
O       0.8722   0.8543   0.4629     O
C       0.8839   0.1811   0.6184     C
C       0.8839   0.6811   0.8816     C
C       0.8897     0.34   0.5492     C
C       0.8897     0.84   0.9508     C
H       0.8965   0.3688   0.5033     H
H       0.8965   0.8688   0.9967     H
C       0.9036   0.0998    0.838     C
C       0.9036   0.5998    0.662     C
H       0.9055   0.1145   0.6184     H
H       0.9055   0.6145   0.8816     H
O       0.9087   0.0865   0.2282     O
O       0.9087   0.5865   0.2718     O
N       0.9102    0.232   0.5481     N
N       0.9102    0.732   0.9519     N
O       0.9135   0.1168   0.7744     O
O       0.9135   0.6168   0.7256     O
C       0.9224   0.3809   0.8944     C
C       0.9224   0.8809   0.6056     C
C       0.9298   0.1208   0.2909     C
C       0.9298   0.6208   0.2091     C
C       0.9366   0.3806   0.8238     C
C       0.9366   0.8806   0.6762     C
H       0.9434   0.2292   0.6517     H
H       0.9434   0.7292   0.8483     H
H       0.9611   0.3896   0.5771     H
H       0.9611   0.8896   0.9229     H
H         0.99    0.381    0.926     H
H         0.99    0.881    0.574     H
O       0.9993   0.4169   0.3725     O
O       0.9993   0.9169   0.1275     O
