data_I
_chemical_name_common  '/Users/gianmarcoterrones/Research/MOFs/MOF_structures/water_stability_work_extra_structs/cleaned_from_CCDC/OLEYAH'
_cell_length_a 14.27176
_cell_length_b 14.27176
_cell_length_c 14.27176
_cell_angle_alpha 107.07221
_cell_angle_beta  107.07221
_cell_angle_gamma 107.07221
_space_group_name_H-M_alt      'P 1'


loop_
_space_group_symop_operation_xyz
  'x, y, z' 

loop_
_atom_site_label
_atom_site_fract_x
_atom_site_fract_y
_atom_site_fract_z
_atom_site_type_symbol
C       0.0034    0.897   0.4713     C
H       0.0057   0.8298   0.4537     H
C       0.0139   0.4335   0.9168     C
C       0.0287    0.603   0.4966     C
O        0.032   0.6959   0.2592     O
C       0.0371   0.3629   0.8369     C
H       0.0463   0.6702   0.4943     H
C       0.0665   0.4861   0.5832     C
C        0.079   0.0884   0.5962     C
C       0.0832   0.9861   0.5665     C
C       0.0884   0.5962    0.079     C
C       0.0962   0.5884    0.579     C
C        0.103   0.5287   0.9966     C
O       0.1302   0.3659   0.6386     O
O       0.1341   0.3698   0.8614     O
C       0.1371   0.4629   0.6631     C
O       0.1386   0.8659   0.6302     O
O       0.1569   0.1716   0.6895     O
C       0.1631   0.9629   0.6371     C
H       0.1702   0.5463   0.9943     H
O       0.1716   0.6895   0.1569     O
Zn    0.17801778 0.32200444 0.75001111    Zn
O       0.1895   0.6716   0.6569     O
Zn    0.19038444 0.75001111 0.30963778    Zn
O       0.1959    0.532   0.7592     O
O       0.2408   0.8041    0.468     O
Zn    0.25001111 0.69038444 0.80963778    Zn
Zn    0.25001111 0.82200444 0.67801778    Zn
O       0.2592    0.032   0.6959     O
O       0.3041   0.7408    0.968     O
Zn    0.30963778 0.19038444 0.75001111    Zn
O       0.3105   0.8431   0.8284     O
Zn    0.32200444 0.75001111 0.17801778    Zn
O       0.3284   0.3431   0.8105     O
H       0.3298   0.5057   0.9537     H
C       0.3369   0.8629   0.5371     C
O       0.3431   0.8105   0.3284     O
O       0.3614   0.8698   0.6341     O
C       0.3629   0.8369   0.0371     C
O       0.3659   0.6386   0.1302     O
O       0.3698   0.8614   0.1341     O
C        0.397   0.5034   0.9713     C
C       0.4038    0.921   0.9116     C
C       0.4116    0.421   0.9038     C
C       0.4168   0.9335   0.5139     C
C        0.421   0.9038   0.4116     C
C       0.4335   0.9168   0.0139     C
H       0.4537   0.0057   0.8298     H
C       0.4629   0.6631   0.1371     C
O        0.468   0.2408   0.8041     O
C       0.4713   0.0034    0.897     C
C       0.4861   0.5832   0.0665     C
H       0.4943   0.0463   0.6702     H
C       0.4966   0.0287    0.603     C
C       0.5034   0.9713    0.397     C
H       0.5057   0.9537   0.3298     H
C       0.5139   0.4168   0.9335     C
C       0.5287   0.9966    0.103     C
O        0.532   0.7592   0.1959     O
C       0.5371   0.3369   0.8629     C
H       0.5463   0.9943   0.1702     H
C       0.5665   0.0832   0.9861     C
C        0.579   0.0962   0.5884     C
C       0.5832   0.0665   0.4861     C
C       0.5884    0.579   0.0962     C
C       0.5962    0.079   0.0884     C
C        0.603   0.4966   0.0287     C
O       0.6302   0.1386   0.8659     O
O       0.6341   0.3614   0.8698     O
C       0.6371   0.1631   0.9629     C
O       0.6386   0.1302   0.3659     O
O       0.6569   0.1895   0.6716     O
C       0.6631   0.1371   0.4629     C
H       0.6702   0.4943   0.0463     H
O       0.6716   0.6569   0.1895     O
Zn    0.67801778 0.25001111 0.82200444    Zn
O       0.6895   0.1569   0.1716     O
Zn    0.69038444 0.80963778 0.25001111    Zn
O       0.6959   0.2592    0.032     O
O       0.7408    0.968   0.3041     O
Zn    0.75001111 0.17801778 0.32200444    Zn
Zn    0.75001111 0.30963778 0.19038444    Zn
O       0.7592   0.1959    0.532     O
O       0.8041    0.468   0.2408     O
Zn    0.80963778 0.25001111 0.69038444    Zn
O       0.8105   0.3284   0.3431     O
Zn    0.82200444 0.67801778 0.25001111    Zn
O       0.8284   0.3105   0.8431     O
H       0.8298   0.4537   0.0057     H
C       0.8369   0.0371   0.3629     C
O       0.8431   0.8284   0.3105     O
O       0.8614   0.1341   0.3698     O
C       0.8629   0.5371   0.3369     C
O       0.8659   0.6302   0.1386     O
O       0.8698   0.6341   0.3614     O
C        0.897   0.4713   0.0034     C
C       0.9038   0.4116    0.421     C
C       0.9116   0.4038    0.921     C
C       0.9168   0.0139   0.4335     C
C        0.921   0.9116   0.4038     C
C       0.9335   0.5139   0.4168     C
H       0.9537   0.3298   0.5057     H
C       0.9629   0.6371   0.1631     C
O        0.968   0.3041   0.7408     O
C       0.9713    0.397   0.5034     C
C       0.9861   0.5665   0.0832     C
H       0.9943   0.1702   0.5463     H
C       0.9966    0.103   0.5287     C
