data_I
_chemical_name_common  '/Users/gianmarcoterrones/Research/MOFs/MOF_structures/water_stability_work_extra_structs/cleaned_from_CCDC/OLEYEL'
_cell_length_a 14.27102
_cell_length_b 14.27102
_cell_length_c 14.27102
_cell_angle_alpha 107.04988
_cell_angle_beta  107.04988
_cell_angle_gamma 107.04988
_space_group_name_H-M_alt      'P 1'


loop_
_space_group_symop_operation_xyz
  'x, y, z' 

loop_
_atom_site_label
_atom_site_fract_x
_atom_site_fract_y
_atom_site_fract_z
_atom_site_type_symbol
C       0.0008    0.902   0.4713     C
H       0.0035    0.835   0.4531     H
C       0.0133   0.4317   0.9198     C
C       0.0259   0.3839   0.2189     C
C       0.0287    0.598   0.4992     C
O       0.0326   0.6949   0.2607     O
C       0.0419   0.3629   0.8378     C
H       0.0469    0.665   0.4965     H
C       0.0683   0.4867   0.5802     C
O       0.0728   0.6909   0.8383     O
C         0.08   0.0873   0.5978     C
C       0.0802   0.9867   0.5683     C
C       0.0873   0.5978     0.08     C
C       0.0978   0.5873     0.58     C
C        0.098   0.5287   0.9992     C
C       0.1161   0.4741   0.2811     C
O       0.1292   0.3667   0.6391     O
O       0.1333   0.3708   0.8609     O
C       0.1371   0.4581   0.6622     C
O       0.1391   0.8667   0.6292     O
O        0.157   0.1719   0.6882     O
O       0.1617   0.9272   0.3091     O
C       0.1622   0.9581   0.6371     C
H        0.165   0.5469   0.9965     H
O       0.1719   0.6882    0.157     O
Zn    0.17862778 0.32139444 0.75001111    Zn
Zn      0.1843   0.7834   0.3061    Zn
O       0.1882   0.6719    0.657     O
O       0.1909   0.5728   0.3383     O
Zn      0.1939   0.7166   0.3157    Zn
O       0.1949   0.5326   0.7607     O
Zn      0.2166   0.6939   0.8157    Zn
C       0.2189   0.0259   0.3839     C
O       0.2393   0.8051   0.4674     O
Zn    0.25001111 0.82139444 0.67862778    Zn
O       0.2607   0.0326   0.6949     O
C       0.2811   0.1161   0.4741     C
Zn      0.2834   0.6843   0.8061    Zn
O       0.3051   0.7393   0.9674     O
Zn      0.3061   0.1843   0.7834    Zn
O       0.3091   0.1617   0.9272     O
O       0.3118    0.843   0.8281     O
Zn      0.3157   0.1939   0.7166    Zn
Zn    0.32139444 0.75001111 0.17862778    Zn
O       0.3281    0.343   0.8118     O
H        0.335   0.5035   0.9531     H
C       0.3378   0.8629   0.5419     C
O       0.3383   0.1909   0.5728     O
O        0.343   0.8118   0.3281     O
O       0.3609   0.8708   0.6333     O
C       0.3629   0.8378   0.0419     C
O       0.3667   0.6391   0.1292     O
O       0.3708   0.8609   0.1333     O
C       0.3839   0.2189   0.0259     C
C        0.402   0.5008   0.9713     C
C       0.4022     0.92   0.9127     C
C       0.4127     0.42   0.9022     C
C       0.4198   0.9317   0.5133     C
C         0.42   0.9022   0.4127     C
O       0.4272   0.6617   0.8091     O
C       0.4317   0.9198   0.0133     C
H       0.4531   0.0035    0.835     H
C       0.4581   0.6622   0.1371     C
O       0.4674   0.2393   0.8051     O
C       0.4713   0.0008    0.902     C
C       0.4741   0.2811   0.1161     C
C       0.4867   0.5802   0.0683     C
H       0.4965   0.0469    0.665     H
C       0.4992   0.0287    0.598     C
C       0.5008   0.9713    0.402     C
H       0.5035   0.9531    0.335     H
C       0.5133   0.4198   0.9317     C
C       0.5259   0.7189   0.8839     C
C       0.5287   0.9992    0.098     C
O       0.5326   0.7607   0.1949     O
C       0.5419   0.3378   0.8629     C
H       0.5469   0.9965    0.165     H
C       0.5683   0.0802   0.9867     C
O       0.5728   0.3383   0.1909     O
C         0.58   0.0978   0.5873     C
C       0.5802   0.0683   0.4867     C
C       0.5873     0.58   0.0978     C
C       0.5978     0.08   0.0873     C
C        0.598   0.4992   0.0287     C
C       0.6161   0.7811   0.9741     C
O       0.6292   0.1391   0.8667     O
O       0.6333   0.3609   0.8708     O
C       0.6371   0.1622   0.9581     C
O       0.6391   0.1292   0.3667     O
O        0.657   0.1882   0.6719     O
O       0.6617   0.8091   0.4272     O
C       0.6622   0.1371   0.4581     C
H        0.665   0.4965   0.0469     H
O       0.6719    0.657   0.1882     O
Zn    0.67862778 0.25001111 0.82139444    Zn
Zn      0.6843   0.8061   0.2834    Zn
O       0.6882    0.157   0.1719     O
O       0.6909   0.8383   0.0728     O
Zn      0.6939   0.8157   0.2166    Zn
O       0.6949   0.2607   0.0326     O
Zn      0.7166   0.3157   0.1939    Zn
C       0.7189   0.8839   0.5259     C
O       0.7393   0.9674   0.3051     O
Zn    0.75001111 0.17862778 0.32139444    Zn
O       0.7607   0.1949   0.5326     O
C       0.7811   0.9741   0.6161     C
Zn      0.7834   0.3061   0.1843    Zn
O       0.8051   0.4674   0.2393     O
Zn      0.8061   0.2834   0.6843    Zn
O       0.8091   0.4272   0.6617     O
O       0.8118   0.3281    0.343     O
Zn      0.8157   0.2166   0.6939    Zn
Zn    0.82139444 0.67862778 0.25001111    Zn
O       0.8281   0.3118    0.843     O
H        0.835   0.4531   0.0035     H
C       0.8378   0.0419   0.3629     C
O       0.8383   0.0728   0.6909     O
O        0.843   0.8281   0.3118     O
O       0.8609   0.1333   0.3708     O
C       0.8629   0.5419   0.3378     C
O       0.8667   0.6292   0.1391     O
O       0.8708   0.6333   0.3609     O
C       0.8839   0.5259   0.7189     C
C        0.902   0.4713   0.0008     C
C       0.9022   0.4127     0.42     C
C       0.9127   0.4022     0.92     C
C       0.9198   0.0133   0.4317     C
C         0.92   0.9127   0.4022     C
O       0.9272   0.3091   0.1617     O
C       0.9317   0.5133   0.4198     C
H       0.9531    0.335   0.5035     H
C       0.9581   0.6371   0.1622     C
O       0.9674   0.3051   0.7393     O
C       0.9713    0.402   0.5008     C
C       0.9741   0.6161   0.7811     C
C       0.9867   0.5683   0.0802     C
H       0.9965    0.165   0.5469     H
C       0.9992    0.098   0.5287     C
