data_I
_chemical_name_common  '/Users/gianmarcoterrones/Research/MOFs/MOF_structures/water_stability_work_extra_structs/cleaned_from_CCDC/OLOPUC'
_cell_length_a 14.28938
_cell_length_b 14.28938
_cell_length_c 14.28938
_cell_angle_alpha 107.08405
_cell_angle_beta  107.08405
_cell_angle_gamma 107.08405
_space_group_name_H-M_alt      'P 1'


loop_
_space_group_symop_operation_xyz
  'x, y, z' 

loop_
_atom_site_label
_atom_site_fract_x
_atom_site_fract_y
_atom_site_fract_z
_atom_site_type_symbol
C       0.0019    0.899   0.4739     C
H       0.0025   0.8313   0.4567     H
C       0.0143   0.4301   0.9174     C
C       0.0261    0.601   0.4981     C
O        0.034   0.6966   0.2592     O
C       0.0367   0.3618   0.8343     C
H       0.0433   0.6687   0.4975     H
C       0.0699   0.4857   0.5826     C
O        0.078   0.6916   0.8168     O
C       0.0793   0.0872   0.5962     C
C       0.0826   0.9857   0.5699     C
C       0.0872   0.5962   0.0793     C
C       0.0962   0.5872   0.5793     C
C        0.101   0.5261   0.9981     C
O       0.1312   0.3681   0.6383     O
O       0.1319   0.3688   0.8617     O
C       0.1382   0.4633   0.6657     C
O       0.1383   0.8681   0.6312     O
O       0.1551   0.1709   0.6893     O
C       0.1657   0.9633   0.6382     C
H       0.1687   0.5433   0.9975     H
O       0.1709   0.6893   0.1551     O
Zn    0.17840778 0.32161444 0.75001111    Zn
O       0.1832    0.922   0.3084     O
Zn     0.18539  0.78029  0.30545    Zn
O       0.1893   0.6709   0.6551     O
O       0.1916    0.578   0.3168     O
Zn     0.19455  0.71971  0.31461    Zn
O       0.1966    0.534   0.7592     O
Zn     0.21971  0.69455  0.81461    Zn
O       0.2408   0.8034    0.466     O
Zn    0.25001111 0.82161444 0.67840778    Zn
O       0.2592    0.034   0.6966     O
Zn     0.28029  0.68539  0.80545    Zn
O       0.3034   0.7408    0.966     O
Zn     0.30545  0.18539  0.78029    Zn
O       0.3084   0.1832    0.922     O
O       0.3107   0.8449   0.8291     O
Zn     0.31461  0.19455  0.71971    Zn
O       0.3168   0.1916    0.578     O
Zn    0.32161444 0.75001111 0.17840778    Zn
O       0.3291   0.3449   0.8107     O
H       0.3313   0.5025   0.9567     H
C       0.3343   0.8618   0.5367     C
O       0.3449   0.8107   0.3291     O
O       0.3617   0.8688   0.6319     O
C       0.3618   0.8343   0.0367     C
O       0.3681   0.6383   0.1312     O
O       0.3688   0.8617   0.1319     O
C        0.399   0.5019   0.9739     C
C       0.4038   0.9207   0.9128     C
C       0.4128   0.4207   0.9038     C
C       0.4174   0.9301   0.5143     C
C       0.4207   0.9038   0.4128     C
O        0.422   0.6832   0.8084     O
C       0.4301   0.9174   0.0143     C
H       0.4567   0.0025   0.8313     H
C       0.4633   0.6657   0.1382     C
O        0.466   0.2408   0.8034     O
C       0.4739   0.0019    0.899     C
C       0.4857   0.5826   0.0699     C
H       0.4975   0.0433   0.6687     H
C       0.4981   0.0261    0.601     C
C       0.5019   0.9739    0.399     C
H       0.5025   0.9567   0.3313     H
C       0.5143   0.4174   0.9301     C
C       0.5261   0.9981    0.101     C
O        0.534   0.7592   0.1966     O
C       0.5367   0.3343   0.8618     C
H       0.5433   0.9975   0.1687     H
C       0.5699   0.0826   0.9857     C
O        0.578   0.3168   0.1916     O
C       0.5793   0.0962   0.5872     C
C       0.5826   0.0699   0.4857     C
C       0.5872   0.5793   0.0962     C
C       0.5962   0.0793   0.0872     C
C        0.601   0.4981   0.0261     C
O       0.6312   0.1383   0.8681     O
O       0.6319   0.3617   0.8688     O
C       0.6382   0.1657   0.9633     C
O       0.6383   0.1312   0.3681     O
O       0.6551   0.1893   0.6709     O
C       0.6657   0.1382   0.4633     C
H       0.6687   0.4975   0.0433     H
O       0.6709   0.6551   0.1893     O
Zn    0.67840778 0.25001111 0.82161444    Zn
O       0.6832   0.8084    0.422     O
Zn     0.68539  0.80545  0.28029    Zn
O       0.6893   0.1551   0.1709     O
O       0.6916   0.8168    0.078     O
Zn     0.69455  0.81461  0.21971    Zn
O       0.6966   0.2592    0.034     O
Zn     0.71971  0.31461  0.19455    Zn
O       0.7408    0.966   0.3034     O
Zn    0.75001111 0.17840778 0.32161444    Zn
O       0.7592   0.1966    0.534     O
Zn     0.78029  0.30545  0.18539    Zn
O       0.8034    0.466   0.2408     O
Zn     0.80545  0.28029  0.68539    Zn
O       0.8084    0.422   0.6832     O
O       0.8107   0.3291   0.3449     O
Zn     0.81461  0.21971  0.69455    Zn
O       0.8168    0.078   0.6916     O
Zn    0.82161444 0.67840778 0.25001111    Zn
O       0.8291   0.3107   0.8449     O
H       0.8313   0.4567   0.0025     H
C       0.8343   0.0367   0.3618     C
O       0.8449   0.8291   0.3107     O
O       0.8617   0.1319   0.3688     O
C       0.8618   0.5367   0.3343     C
O       0.8681   0.6312   0.1383     O
O       0.8688   0.6319   0.3617     O
C        0.899   0.4739   0.0019     C
C       0.9038   0.4128   0.4207     C
C       0.9128   0.4038   0.9207     C
C       0.9174   0.0143   0.4301     C
C       0.9207   0.9128   0.4038     C
O        0.922   0.3084   0.1832     O
C       0.9301   0.5143   0.4174     C
H       0.9567   0.3313   0.5025     H
C       0.9633   0.6382   0.1657     C
O        0.966   0.3034   0.7408     O
C       0.9739    0.399   0.5019     C
C       0.9857   0.5699   0.0826     C
H       0.9975   0.1687   0.5433     H
C       0.9981    0.101   0.5261     C
