data_I
_chemical_name_common  '/Users/gianmarcoterrones/Research/MOFs/MOF_structures/water_stability_work_extra_structs/cleaned_from_CCDC/ONOCOK'
_cell_length_a  8.89430
_cell_length_b 14.00100
_cell_length_c 14.44800
_cell_angle_alpha 90.00000
_cell_angle_beta  90.00000
_cell_angle_gamma 90.28000
_space_group_name_H-M_alt      'P 1'


loop_
_space_group_symop_operation_xyz
  'x, y, z' 

loop_
_atom_site_label
_atom_site_fract_x
_atom_site_fract_y
_atom_site_fract_z
_atom_site_type_symbol
C       0.0022   0.8223   0.8076     C
C       0.0025   0.8856   0.4299     C
H       0.0105   0.3203   0.2103     H
C       0.0149   0.9968   0.8487     C
C       0.0214   0.4917   0.3337     C
C        0.025   0.9496   0.5031     C
H       0.0309    0.468   0.3936     H
C       0.0311   0.7274   0.8268     C
H       0.0403   0.7512   0.3854     H
C       0.0443   0.1665   0.8806     C
H       0.0487   0.0944   0.6227     H
O       0.0513   0.6427   0.1557     O
C       0.0555   0.7927   0.4349     C
H       0.0579   0.1624   0.2429     H
O       0.0599   0.5365   0.8913     O
C       0.0611    0.896   0.8622     C
C       0.0769   0.8119    0.176     C
C       0.0898   0.0724   0.8928     C
C        0.094   0.9147   0.5826     C
H       0.0957   0.2155   0.9108     H
H       0.1044   0.9546   0.6337     H
O       0.1048   0.4759   0.6897     O
C       0.1093   0.9802   0.2072     C
C       0.1226   0.7028   0.9018     C
C       0.1266   0.7114   0.1923     C
C        0.131   0.7613    0.513     C
O       0.1356   0.4889   0.2825     O
C       0.1377   0.6012   0.9335     C
C       0.1479   0.8218   0.5877     C
C       0.1542   0.8865   0.2189     C
C       0.1599   0.8705   0.9332     C
H       0.1622   0.0289   0.2367     H
Mn     0.17005  0.41594  0.82327    Mn
H       0.1714   0.0594   0.9309     H
Mn       0.173  0.50422  0.12279    Mn
C       0.1898   0.7754   0.9527     C
H       0.1952   0.8006   0.6412     H
C       0.1994    0.664   0.5141     C
H       0.2064   0.9181   0.9679     H
O       0.2081   0.6205   0.4379     O
O        0.221   0.5846   0.0003     O
H        0.237   0.8731   0.2559     H
O       0.2419   0.6981     0.24     O
H       0.2444   0.2398   0.5004     H
O       0.2444   0.6316   0.5901     O
O       0.2556   0.3684   0.0901     O
H       0.2556   0.7602   0.0004     H
O       0.2581   0.3019     0.74     O
H        0.263   0.1269   0.7559     H
O        0.279   0.4154   0.5003     O
O       0.2919   0.3795   0.9379     O
H       0.2936   0.0819   0.4679     H
C       0.3006    0.336   0.0141     C
H       0.3048   0.1994   0.1412     H
C       0.3102   0.2246   0.4527     C
Mn       0.327  0.49578  0.62279    Mn
H       0.3286   0.9406   0.4309     H
Mn     0.32995  0.58406  0.32327    Mn
H       0.3378   0.9711   0.7367     H
C       0.3401   0.1295   0.4332     C
C       0.3458   0.1135   0.7189     C
C       0.3521   0.1782   0.0877     C
C       0.3623   0.3988   0.4335     C
O       0.3644   0.5111   0.7825     O
C        0.369   0.2387    0.013     C
C       0.3734   0.2886   0.6923     C
C       0.3774   0.2972   0.4018     C
C       0.3907   0.0198   0.7072     C
O       0.3952   0.5241   0.1897     O
H       0.3956   0.0454   0.1337     H
H       0.4043   0.7845   0.4108     H
C        0.406   0.0853   0.0826     C
C       0.4102   0.9276   0.3928     C
C       0.4231   0.1881    0.676     C
C       0.4389    0.104   0.3622     C
O       0.4401   0.4635   0.3913     O
H       0.4421   0.8376   0.7429     H
C       0.4445   0.2073   0.9349     C
O       0.4487   0.3573   0.6557     O
H       0.4513   0.9056   0.1227     H
C       0.4557   0.8335   0.3806     C
H       0.4597   0.2488   0.8854     H
C       0.4689   0.2726   0.3268     C
H       0.4691    0.532   0.8936     H
C        0.475   0.0504   0.0031     C
C       0.4786   0.5083   0.8337     C
C       0.4851   0.0032   0.3487     C
H       0.4895   0.6797   0.7103     H
C       0.4975   0.1144   0.9299     C
C       0.4978   0.1777   0.3076     C
C       0.5022   0.8223   0.6924     C
C       0.5025   0.8856   0.0701     C
H       0.5105   0.3203   0.2897     H
C       0.5149   0.9968   0.6513     C
C       0.5214   0.4917   0.1663     C
C        0.525   0.9496   0.9969     C
H       0.5309    0.468   0.1064     H
C       0.5311   0.7274   0.6732     C
H       0.5403   0.7512   0.1146     H
C       0.5443   0.1665   0.6194     C
H       0.5487   0.0944   0.8773     H
O       0.5513   0.6427   0.3443     O
C       0.5555   0.7927   0.0651     C
H       0.5579   0.1624   0.2571     H
O       0.5599   0.5365   0.6087     O
C       0.5611    0.896   0.6378     C
C       0.5769   0.8119    0.324     C
C       0.5898   0.0724   0.6072     C
C        0.594   0.9147   0.9174     C
H       0.5957   0.2155   0.5892     H
H       0.6044   0.9546   0.8663     H
O       0.6048   0.4759   0.8103     O
C       0.6093   0.9802   0.2928     C
C       0.6226   0.7028   0.5982     C
C       0.6266   0.7114   0.3077     C
C        0.631   0.7613    0.987     C
O       0.6356   0.4889   0.2175     O
C       0.6377   0.6012   0.5665     C
C       0.6479   0.8218   0.9123     C
C       0.6542   0.8865   0.2811     C
C       0.6599   0.8705   0.5668     C
H       0.6622   0.0289   0.2633     H
Mn     0.67005  0.41594  0.67673    Mn
H       0.6714   0.0594   0.5691     H
Mn       0.673  0.50422  0.37721    Mn
C       0.6898   0.7754   0.5473     C
H       0.6952   0.8006   0.8588     H
C       0.6994    0.664   0.9859     C
H       0.7064   0.9181   0.5321     H
O       0.7081   0.6205   0.0621     O
O        0.721   0.5846   0.4997     O
H        0.737   0.8731   0.2441     H
O       0.7419   0.6981     0.26     O
H       0.7444   0.2398   0.9996     H
O       0.7444   0.6316   0.9099     O
O       0.7556   0.3684   0.4099     O
H       0.7556   0.7602   0.4996     H
O       0.7581   0.3019     0.76     O
H        0.763   0.1269   0.7441     H
O        0.779   0.4154   0.9997     O
O       0.7919   0.3795   0.5621     O
H       0.7936   0.0819   0.0321     H
C       0.8006    0.336   0.4859     C
H       0.8048   0.1994   0.3588     H
C       0.8102   0.2246   0.0473     C
Mn       0.827  0.49578  0.87721    Mn
H       0.8286   0.9406   0.0691     H
Mn     0.82995  0.58406  0.17673    Mn
H       0.8378   0.9711   0.7633     H
C       0.8401   0.1295   0.0668     C
C       0.8458   0.1135   0.7811     C
C       0.8521   0.1782   0.4123     C
C       0.8623   0.3988   0.0665     C
O       0.8644   0.5111   0.7175     O
C        0.869   0.2387    0.487     C
C       0.8734   0.2886   0.8077     C
C       0.8774   0.2972   0.0982     C
C       0.8907   0.0198   0.7928     C
O       0.8952   0.5241   0.3103     O
H       0.8956   0.0454   0.3663     H
H       0.9043   0.7845   0.0892     H
C        0.906   0.0853   0.4174     C
C       0.9102   0.9276   0.1072     C
C       0.9231   0.1881    0.824     C
C       0.9389    0.104   0.1378     C
O       0.9401   0.4635   0.1087     O
H       0.9421   0.8376   0.7571     H
C       0.9445   0.2073   0.5651     C
O       0.9487   0.3573   0.8443     O
H       0.9513   0.9056   0.3773     H
C       0.9557   0.8335   0.1194     C
H       0.9597   0.2488   0.6146     H
C       0.9689   0.2726   0.1732     C
H       0.9691    0.532   0.6064     H
C        0.975   0.0504   0.4969     C
C       0.9786   0.5083   0.6663     C
C       0.9851   0.0032   0.1513     C
H       0.9895   0.6797   0.7897     H
C       0.9975   0.1144   0.5701     C
C       0.9978   0.1777   0.1924     C
