data_I
_chemical_name_common  '/Users/gianmarcoterrones/Research/MOFs/MOF_structures/water_stability_work_extra_structs/cleaned_from_CCDC/OSAVIO'
_cell_length_a 10.60304
_cell_length_b 10.60304
_cell_length_c 15.63000
_cell_angle_alpha 88.80294
_cell_angle_beta  88.80294
_cell_angle_gamma 76.84407
_space_group_name_H-M_alt      'P 1'


loop_
_space_group_symop_operation_xyz
  'x, y, z' 

loop_
_atom_site_label
_atom_site_fract_x
_atom_site_fract_y
_atom_site_fract_z
_atom_site_type_symbol
N       0.0003   0.6313   0.3494     N
C       0.0075   0.1983   0.2871     C
C       0.0123   0.3075     0.42     C
H       0.0126   0.5852   0.2417     H
H        0.014    0.728   0.4947     H
O       0.0146   0.4604   0.7333     O
O       0.0217   0.3989   0.8703     O
C       0.0239   0.6235   0.4306     C
C       0.0278   0.9542    0.486     C
H       0.0367   0.0643   0.5074     H
H       0.0455   0.0017   0.4361     H
H       0.0507   0.1513   0.2414     H
H       0.0518    0.193   0.9889     H
C        0.057    0.623   0.2831     C
H       0.0595   0.3307   0.4641     H
H       0.0642   0.7078   0.2635     H
H       0.0669   0.8567   0.6581     H
H       0.0686    0.864   0.4797     H
C       0.0727   0.4279   0.8028     C
C       0.0762    0.242   0.3503     C
H       0.0809   0.3913    0.102     H
H        0.081   0.5392   0.0976     H
C       0.0914   0.7212   0.4604     C
N       0.1042   0.8394   0.4441     N
H       0.1146   0.4548   0.0155     H
H       0.1164   0.7372   0.5991     H
C       0.1221   0.4551   0.0766     C
H        0.136   0.9314   0.5203     H
C       0.1377   0.8125   0.6227     C
H       0.1406   0.3268   0.5573     H
O       0.1425   0.5935   0.4488     O
H       0.1431   0.5695   0.2904     H
H       0.1433   0.9331   0.3419     H
H       0.1526   0.4288   0.6144     H
N       0.1606   0.8958   0.5559     N
O       0.1872   0.3752   0.5761     O
C       0.1875   0.8623   0.3773     C
H       0.2135   0.7859   0.3434     H
H       0.2141   0.7865   0.6566     H
C       0.2152   0.4202   0.8006     C
H       0.2176   0.5306   0.6932     H
C       0.2218   0.2186    0.342     C
H       0.2588    0.308   0.9063     H
N       0.2606   0.4244   0.0993     N
H       0.2628   0.8836   0.4009     H
C       0.2705   0.4811   0.7341     C
H        0.272    0.986   0.5053     H
H       0.2751   0.2515   0.1345     H
O       0.2772   0.1476   0.2838     O
C       0.2788   0.9086   0.5396     C
O       0.2809   0.2747   0.3927     O
H       0.2922   0.9358   0.7365     H
C       0.2947   0.3487   0.8619     C
H       0.3048   0.5994   0.0859     H
C       0.3212   0.3162     0.13     C
Ca     0.32699  0.44221  0.47782    Ca
H       0.3384    0.515   0.0039     H
C       0.3399   0.5137   0.0653     C
H       0.3609   0.0437   0.5264     H
N       0.3687   0.9997   0.6506     N
C       0.3765   0.9761   0.5694     C
C        0.377    0.943   0.7169     C
O       0.3952   0.5646   0.5897     O
H       0.4006   0.6952   0.9141     H
C       0.4026   0.4684   0.7287     C
O       0.4065   0.8575   0.5512     O
H       0.4148   0.9874   0.7583     H
H       0.4274   0.4844    0.084     H
C       0.4296   0.3372   0.8575     C
H       0.4305   0.8569   0.7096     H
O       0.4353   0.2867   0.1546     O
O       0.4354   0.6048   0.4103     O
O       0.4545   0.4249   0.3386     O
H       0.4608    0.919   0.9024     H
C       0.4618    0.529   0.6552     C
H       0.4694   0.7824   0.3068     H
O       0.4697   0.1889   0.9759     O
C        0.471   0.5382   0.3448     C
C       0.4829   0.3985   0.7916     C
Ca     0.48388  0.20166  0.30371    Ca
H        0.485   0.6616   0.9961     H
C       0.4863   0.6601   0.9347     C
O       0.5043   0.2965   0.5219     O
C       0.5147   0.2625   0.9243     C
H       0.5156   0.5726    0.916     H
C       0.5189   0.7295   0.2659     C
C       0.5316   0.5974   0.2713     C
O       0.5396   0.9854   0.2667     O
C       0.5449   0.8779   0.9234     C
H       0.5452   0.8854   0.9845     H
Ca     0.55779  0.67301  0.52218    Ca
H       0.5712   0.8474   0.3856     H
H       0.5717   0.3931   0.7891     H
C       0.5721   0.9273   0.1972     C
C       0.5749   0.1903   0.5052     C
O       0.5751   0.5455   0.6614     O
N       0.5756   0.7394   0.9007     N
O       0.5784    0.135   0.4351     O
C       0.5798   0.7848   0.1994     C
O       0.6011   0.9783   0.1297     O
C       0.6015   0.5171   0.2084     C
H       0.6069   0.4283   0.2109     H
H       0.6087   0.9191    0.898     H
O       0.6248   0.8128   0.4239     O
O       0.6276   0.2788   0.9298     O
Ca     0.64255  0.17109  0.07882    Ca
C       0.6513   0.7053   0.1381     C
C       0.6618   0.1206   0.5756     C
C       0.6628   0.5704   0.1425     C
H       0.6693   0.9405   0.5359     H
H       0.6732   0.8594   0.4427     H
O       0.6761   0.2041    0.232     O
H       0.6819   0.2823   0.6377     H
C       0.6838   0.6788     0.87     C
H        0.692   0.7412   0.0937     H
C       0.6925   0.9877     0.58     C
C       0.7028   0.1922   0.6402     C
O       0.7035   0.4957   0.4781     O
O       0.7133   0.5647   0.8454     O
H       0.7177   0.3181   0.3623     H
O       0.7212   0.3724   0.0702     O
O       0.7253   0.7191   0.6073     O
C       0.7375   0.4853   0.0757     C
H       0.7485   0.7249   0.8655     H
C        0.758   0.9238   0.6497     C
C       0.7741   0.1277   0.7071     C
C       0.7814   0.7782    0.658     C
O       0.7823   0.0207   0.9852     O
C       0.7954   0.1824   0.2241     C
O       0.7959   0.3239    0.768     O
Ca     0.79834  0.51612  0.69629    Ca
C       0.8017   0.9925   0.7129     C
H       0.8038   0.0376   0.9343     H
H        0.807   0.9482   0.0111     H
C       0.8078   0.2972   0.3598     C
C       0.8097   0.4251   0.4948     C
O       0.8111   0.5303   0.0241     O
C       0.8176   0.2046   0.7759     C
Ca     0.82891  0.35745  0.92118    Ca
H       0.8487   0.9493   0.7586     H
O       0.8524   0.7228   0.7162     O
O       0.8547   0.1275   0.1587     O
O        0.865   0.4216   0.5649     O
C       0.8723   0.2259   0.2929     C
O       0.8725   0.1453   0.8413     O
C       0.8794   0.3382   0.4244     C
H       0.9357   0.9633   0.4926     H
H       0.9563   0.6391   0.4736     H
H       0.9624   0.1962   0.0657     H
O       0.9793   0.2177   0.0148     O
H       0.9983   0.9545   0.5639     H
