data_I
_chemical_name_common  '/Users/gianmarcoterrones/Research/MOFs/MOF_structures/water_stability_work_extra_structs/cleaned_from_CCDC/OSAVOU'
_cell_length_a  6.97070
_cell_length_b 10.00800
_cell_length_c 17.99210
_cell_angle_alpha 90.00000
_cell_angle_beta  90.00000
_cell_angle_gamma 90.00000
_space_group_name_H-M_alt      'P 1'


loop_
_space_group_symop_operation_xyz
  'x, y, z' 

loop_
_atom_site_label
_atom_site_fract_x
_atom_site_fract_y
_atom_site_fract_z
_atom_site_type_symbol
H       0.0528   0.4118   0.0035     H
H       0.0528   0.4118   0.4965     H
C       0.0771   0.9028  0.54441     C
C       0.0771   0.9028  0.95559     C
Ca     0.08103  0.70489     0.75    Ca
C       0.0993   0.0447  0.06268     C
C       0.0993   0.0447  0.43732     C
O       0.1246  0.18637   0.1681     O
O       0.1246  0.18637   0.3319     O
H       0.1293   0.8364   0.5744     H
H       0.1293   0.8364   0.9256     H
H       0.1302   0.2496   0.6706     H
H       0.1302   0.2496   0.8294     H
H       0.1348    0.187   0.6457     H
H       0.1348    0.187   0.8543     H
H       0.1404   0.3011   0.5403     H
H       0.1404   0.3011   0.9597     H
N        0.141   0.3894   0.5309     N
N        0.141   0.3894   0.9691     N
O       0.1412  0.54568  0.64936     O
O       0.1412  0.54568  0.85064     O
H       0.1416   0.7028   0.1478     H
H       0.1416   0.7028   0.3522     H
H       0.1462   0.7654   0.1727     H
H       0.1462   0.7654   0.3273     H
C       0.1799   0.9458  0.01754     C
C       0.1799   0.9458  0.48246     C
H       0.1965   0.4088    0.529     H
H       0.1965   0.4088    0.971     H
C       0.2008    0.094  0.13116     C
C       0.2008    0.094  0.36884     C
H       0.2258   0.3435   0.7297     H
H       0.2258   0.3435   0.7703     H
H       0.2336   0.5601   0.1441     H
H       0.2336   0.5601   0.3559     H
O       0.2354   0.4211     0.25     O
C       0.2395   0.2616   0.7024     C
C       0.2395   0.2616   0.7976     C
C       0.2472   0.5237   0.2159     C
C       0.2472   0.5237   0.2841     C
H       0.2474   0.0201   0.6626     H
H       0.2474   0.0201   0.8374     H
C       0.2477   0.6488   0.1636     C
C       0.2477   0.6488   0.3364     C
N       0.2493   0.1446     0.75     N
N       0.2507   0.6446     0.25     N
C       0.2523   0.1488   0.6636     C
C       0.2523   0.1488   0.8364     C
H       0.2526   0.5201   0.1626     H
H       0.2526   0.5201   0.3374     H
C       0.2528   0.0237   0.7159     C
C       0.2528   0.0237   0.7841     C
C       0.2605   0.7616   0.2024     C
C       0.2605   0.7616   0.2976     C
O       0.2646   0.9211     0.75     O
H       0.2664   0.0601   0.6441     H
H       0.2664   0.0601   0.8559     H
H       0.2742   0.8435   0.2297     H
H       0.2742   0.8435   0.2703     H
C       0.2992    0.594  0.63116     C
C       0.2992    0.594  0.86884     C
H       0.3035   0.9088    0.029     H
H       0.3035   0.9088    0.471     H
C       0.3201   0.4458  0.51754     C
C       0.3201   0.4458  0.98246     C
H       0.3538   0.2654   0.6727     H
H       0.3538   0.2654   0.8273     H
H       0.3584   0.2028   0.6478     H
H       0.3584   0.2028   0.8522     H
O       0.3588  0.04568  0.14936     O
O       0.3588  0.04568  0.35064     O
N        0.359   0.8894   0.0309     N
N        0.359   0.8894   0.4691     N
H       0.3596   0.8011   0.0403     H
H       0.3596   0.8011   0.4597     H
H       0.3652    0.687   0.1457     H
H       0.3652    0.687   0.3543     H
H       0.3698   0.7496   0.1706     H
H       0.3698   0.7496   0.3294     H
H       0.3707   0.3364   0.0744     H
H       0.3707   0.3364   0.4256     H
O       0.3754  0.68637   0.6681     O
O       0.3754  0.68637   0.8319     O
C       0.4007   0.5447  0.56268     C
C       0.4007   0.5447  0.93732     C
Ca     0.41897  0.20489     0.25    Ca
C       0.4229   0.4028  0.04441     C
C       0.4229   0.4028  0.45559     C
H       0.4472   0.9118   0.5035     H
H       0.4472   0.9118   0.9965     H
H       0.5528   0.0882   0.0035     H
H       0.5528   0.0882   0.4965     H
C       0.5771   0.5972  0.54441     C
C       0.5771   0.5972  0.95559     C
Ca     0.58103  0.79511     0.75    Ca
C       0.5993   0.4553  0.06268     C
C       0.5993   0.4553  0.43732     C
O       0.6246  0.31363   0.1681     O
O       0.6246  0.31363   0.3319     O
H       0.6293   0.6636   0.5744     H
H       0.6293   0.6636   0.9256     H
H       0.6302   0.2504   0.6706     H
H       0.6302   0.2504   0.8294     H
H       0.6348    0.313   0.6457     H
H       0.6348    0.313   0.8543     H
H       0.6404   0.1989   0.5403     H
H       0.6404   0.1989   0.9597     H
N        0.641   0.1106   0.5309     N
N        0.641   0.1106   0.9691     N
O       0.6412  0.95432  0.64936     O
O       0.6412  0.95432  0.85064     O
H       0.6416   0.7972   0.1478     H
H       0.6416   0.7972   0.3522     H
H       0.6462   0.7346   0.1727     H
H       0.6462   0.7346   0.3273     H
C       0.6799   0.5542  0.01754     C
C       0.6799   0.5542  0.48246     C
H       0.6965   0.0912    0.529     H
H       0.6965   0.0912    0.971     H
C       0.7008    0.406  0.13116     C
C       0.7008    0.406  0.36884     C
H       0.7258   0.1565   0.7297     H
H       0.7258   0.1565   0.7703     H
H       0.7336   0.9399   0.1441     H
H       0.7336   0.9399   0.3559     H
O       0.7354   0.0789     0.25     O
C       0.7395   0.2384   0.7024     C
C       0.7395   0.2384   0.7976     C
C       0.7472   0.9763   0.2159     C
C       0.7472   0.9763   0.2841     C
H       0.7474   0.4799   0.6626     H
H       0.7474   0.4799   0.8374     H
C       0.7477   0.8512   0.1636     C
C       0.7477   0.8512   0.3364     C
N       0.7493   0.3554     0.75     N
N       0.7507   0.8554     0.25     N
C       0.7523   0.3512   0.6636     C
C       0.7523   0.3512   0.8364     C
H       0.7526   0.9799   0.1626     H
H       0.7526   0.9799   0.3374     H
C       0.7528   0.4763   0.7159     C
C       0.7528   0.4763   0.7841     C
C       0.7605   0.7384   0.2024     C
C       0.7605   0.7384   0.2976     C
O       0.7646   0.5789     0.75     O
H       0.7664   0.4399   0.6441     H
H       0.7664   0.4399   0.8559     H
H       0.7742   0.6565   0.2297     H
H       0.7742   0.6565   0.2703     H
C       0.7992    0.906  0.63116     C
C       0.7992    0.906  0.86884     C
H       0.8035   0.5912    0.029     H
H       0.8035   0.5912    0.471     H
C       0.8201   0.0542  0.51754     C
C       0.8201   0.0542  0.98246     C
H       0.8538   0.2346   0.6727     H
H       0.8538   0.2346   0.8273     H
H       0.8584   0.2972   0.6478     H
H       0.8584   0.2972   0.8522     H
O       0.8588  0.45432  0.14936     O
O       0.8588  0.45432  0.35064     O
N        0.859   0.6106   0.0309     N
N        0.859   0.6106   0.4691     N
H       0.8596   0.6989   0.0403     H
H       0.8596   0.6989   0.4597     H
H       0.8652    0.813   0.1457     H
H       0.8652    0.813   0.3543     H
H       0.8698   0.7504   0.1706     H
H       0.8698   0.7504   0.3294     H
H       0.8707   0.1636   0.0744     H
H       0.8707   0.1636   0.4256     H
O       0.8754  0.81363   0.6681     O
O       0.8754  0.81363   0.8319     O
C       0.9007   0.9553  0.56268     C
C       0.9007   0.9553  0.93732     C
Ca     0.91897  0.29511     0.25    Ca
C       0.9229   0.0972  0.04441     C
C       0.9229   0.0972  0.45559     C
H       0.9472   0.5882   0.5035     H
H       0.9472   0.5882   0.9965     H
