data_I
_chemical_name_common  '/Users/gianmarcoterrones/Research/MOFs/MOF_structures/water_stability_work_extra_structs/cleaned_from_CCDC/OSIMOT'
_cell_length_a 15.93799
_cell_length_b 15.93799
_cell_length_c 15.95000
_cell_angle_alpha 92.30332
_cell_angle_beta  92.30332
_cell_angle_gamma 100.59230
_space_group_name_H-M_alt      'P 1'


loop_
_space_group_symop_operation_xyz
  'x, y, z' 

loop_
_atom_site_label
_atom_site_fract_x
_atom_site_fract_y
_atom_site_fract_z
_atom_site_type_symbol
C      0.00165  0.49863   0.6838     C
H       0.0071   0.6501   0.9372     H
C      0.01519  0.89245   0.8686     C
C      0.01528    0.819    0.917     C
H       0.0168   0.8826   0.3403     H
H       0.0169   0.4619   0.2783     H
H       0.0171   0.9561   0.1726     H
H     0.01776667 0.31556667   0.6033     H
C      0.02101  0.37457   0.6177     C
C      0.02347  0.93973   0.3677     C
H       0.0245   0.1339   0.4577     H
C      0.02491  0.59227   0.3183     C
H       0.0331   0.7381   0.2427     H
O      0.04027  0.26551  0.32799     O
H       0.0407   0.7001   0.0246     H
H       0.0439   0.9829   0.3274     H
C      0.04655  0.06087   0.1022     C
H       0.0512   0.9078   0.8235     H
C      0.05265  0.18097   0.0268     C
H       0.0551   0.6083    0.151     H
H       0.0552   0.9352   0.0844     H
C      0.05656  0.68504   0.9679     C
C      0.06002   0.5202   0.6204     C
C      0.06027  0.97653   0.1323     C
C      0.06087  0.04655   0.6022     C
H       0.0648   0.9448   0.4156     H
H       0.0661   0.6253    0.549     H
C      0.06656  0.24074   0.2676     C
H       0.0669   0.7009    0.806     H
H       0.0705   0.2237   0.9881     H
C      0.07243  0.44265   0.5784     C
H       0.0758   0.2064   0.5226     H
C      0.08014   0.1564   0.4862     C
C      0.08543  0.76557   0.9222     C
H       0.0874   0.4382   0.4523     H
C      0.08942  0.10658   0.0379     C
C      0.08987  0.73513   0.2671     C
H       0.0922   0.9488   0.6765     H
H       0.0962   0.6494   0.6453     H
H       0.0971   0.7631   0.3234     H
C      0.09849  0.60939   0.5975     C
C      0.09861  0.64179   0.2729     C
H       0.1032   0.6528   0.9718     H
C      0.10614  0.60426   0.1858     C
C      0.10658  0.08942   0.5379     C
C      0.10755  0.98481   0.6314     C
S      0.11085  0.36123  0.85332     S
Mo     0.11115  0.20383  0.16214    Mo
H       0.1114   0.5442   0.1891     H
C      0.11343  0.74117   0.8358     C
H       0.1174   0.9832   0.1597     H
Mo     0.12225  0.44047  0.71837    Mo
H       0.1227   0.1731   0.4444     H
C      0.12291  0.43469   0.5032     C
H       0.1264   0.8206   0.5557     H
C      0.12656  0.32744   0.1639     C
H       0.1276   0.7926   0.8036     H
S      0.12912  0.19394  0.76371     S
P        0.132   0.4919  0.86705     P
H       0.1337   0.7641   0.2314     H
H       0.1339   0.0245   0.9577     H
O      0.13511  0.40117   0.1687     O
H        0.142   0.3796   0.5021     H
H       0.1441   0.8331   0.0291     H
C       0.1564  0.08014   0.9862     C
H       0.1568    0.636   0.1608     H
H       0.1581   0.6115   0.5834     H
C      0.16119  0.82021   0.9723     C
H       0.1638   0.7144   0.8422     H
H       0.1669   0.8559   0.4709     H
H       0.1729   0.4811   0.5055     H
H       0.1731   0.1227   0.9444     H
H       0.1758   0.6598   0.3842     H
H       0.1794   0.8736   0.9443     H
C      0.17979  0.83881   0.5277     C
C       0.1806   0.6362   0.3273     C
C      0.18097  0.05265   0.5268     C
C        0.181  0.98472    0.583     C
P      0.18566  0.31256  0.72282     P
H        0.187   0.5764   0.3297     H
S      0.19394  0.12912  0.26371     S
Mo     0.20383  0.11115  0.66214    Mo
H       0.2064   0.0758   0.0226     H
H       0.2074   0.8724   0.6964     H
H       0.2085   0.7889   0.9758     H
H       0.2111   0.7915   0.5242     H
H       0.2226   0.5206   0.0321     H
H       0.2237   0.0705   0.4881     H
H       0.2297   0.2903   0.4016     H
H       0.2307   0.6691   0.3021     H
C      0.23443  0.91457   0.5778     C
H       0.2359   0.8663   0.2686     H
H       0.2363   0.3289   0.3105     H
H       0.2369   0.9029   0.1766     H
H       0.2391   0.3911   0.3922     H
C      0.24074  0.06656   0.7676     C
S      0.24378    0.264  0.62197     S
P      0.24585  0.55903  0.73542     P
C      0.25583  0.33881   0.3697     C
Mo     0.25624  0.43372  0.81728    Mo
C      0.25883  0.88657   0.6642     C
H       0.2619   0.9669   0.2573     H
S        0.264  0.24378  0.12197     S
C      0.26487  0.91013   0.2329     C
O      0.26551  0.04027  0.82799     O
H       0.2675   0.6281   0.9279     H
S      0.26856   0.4552  0.66475     S
C      0.27965  0.53475     0.06     C
H       0.2813   0.5819   0.1019     H
H       0.2844    0.376    0.986     H
H       0.2856   0.8362   0.6578     H
H       0.2903   0.2297   0.9016     H
H       0.2926   0.4846   0.0879     H
H       0.2991   0.9331    0.694     H
H       0.2999   0.9593   0.4754     H
H       0.3117   0.6681   0.5058     H
P      0.31256  0.18566  0.22282     P
C      0.31496  0.94344   0.5321     C
H     0.31556667 0.01776667   0.1033     H
C        0.319  0.39908   0.9423     C
C      0.32608  0.64052   0.9525     C
C      0.32744  0.12656   0.6639     C
H       0.3289   0.2363   0.8105     H
H       0.3309   0.7693   0.1979     H
H       0.3319   0.6883   0.9942     H
H        0.333    0.408     0.22     H
C      0.33881  0.25583   0.8697     C
H       0.3402   0.8242   0.1158     H
H       0.3443   0.6339   0.5919     H
C      0.34595  0.56169   0.9948     C
H       0.3472   0.8968   0.5282     H
C       0.3482   0.3508    0.877     C
C      0.34972  0.48814  0.93228     C
H       0.3499   0.9929   0.5628     H
H       0.3506   0.9038   0.8547     H
C       0.3508   0.3482    0.377     C
C      0.35821  0.90139   0.2271     C
C      0.35948  0.67392   0.5475     C
S      0.36123  0.11085  0.35332     S
C       0.3638   0.8194   0.1727     C
H        0.364   0.8432   0.3392     H
H       0.3661   0.6557   0.9081     H
H       0.3679   0.4973   0.2702     H
H       0.3698    0.565   0.4171     H
H       0.3719   0.7325   0.5721     H
C      0.37457  0.02101   0.1177     C
H       0.3747   0.9339    0.951     H
H        0.376   0.2844    0.486     H
H       0.3796    0.142   0.0021     H
C      0.38273  0.44311   0.2503     C
H       0.3885   0.8419   0.9166     H
C      0.39061  0.90151   0.9025     C
H       0.3911   0.2391   0.8922     H
H       0.3917   0.9449    0.349     H
H       0.3943   0.5227   0.5018     H
C      0.39574  0.89386   0.3142     C
C       0.3967  0.49298    0.858     C
C      0.39671  0.40881   0.8238     C
C      0.39908    0.319   0.4423     C
O      0.40117  0.13511   0.6687     O
C      0.40773  0.97509   0.1817     C
H        0.408    0.333     0.72     H
C      0.40881  0.39671   0.3238     C
C      0.41486  0.56494   0.4608     C
H       0.4181   0.7187   0.3981     H
H       0.4236    0.813   0.1703     H
H       0.4239   0.5443   0.8348     H
H       0.4301   0.4545   0.2126     H
Mo     0.43372  0.25624  0.31728    Mo
C      0.43469  0.12291   0.0032     C
H        0.435   0.6302   0.0829     H
C      0.43506  0.58514   0.0392     C
H       0.4382   0.0874   0.9523     H
C      0.43831  0.65405   0.5052     C
Mo     0.44047  0.12225  0.21837    Mo
P      0.44097  0.75415  0.76458     P
C      0.44265  0.07243   0.0784     C
C      0.44311  0.38273   0.7503     C
H       0.4498   0.5346   0.0649     H
H       0.4545   0.4301   0.7126     H
S       0.4552  0.26856  0.16475     S
H       0.4557   0.5761   0.6652     H
H       0.4558   0.8886   0.3109     H
H       0.4619   0.0169   0.7783     H
C      0.46525  0.72035     0.44     C
H       0.4654   0.5502   0.4351     H
H       0.4773   0.6057   0.9982     H
H       0.4794   0.7774   0.4679     H
C       0.4798  0.93998   0.8796     C
H       0.4811   0.1729   0.0055     H
H       0.4846   0.2926   0.5879     H
C      0.48814  0.34972  0.43228     C
P       0.4919    0.132  0.36705     P
C      0.49298   0.3967    0.358     C
H       0.4973   0.3679   0.7702     H
C      0.49863  0.00165   0.1838     C
C      0.50137  0.99835   0.8162     C
H       0.5027   0.6321   0.2298     H
C      0.50702   0.6033    0.642     C
P       0.5081    0.868  0.63295     P
C      0.51186  0.65028  0.56772     C
H       0.5154   0.7074   0.4121     H
H       0.5189   0.8271   0.9945     H
C       0.5202  0.06002   0.1204     C
H       0.5206   0.2226   0.5321     H
H       0.5227   0.3943   0.0018     H
H       0.5346   0.4498   0.5649     H
C      0.53475  0.27965     0.56     C
H       0.5381   0.9831   0.2217     H
H       0.5442   0.1114   0.6891     H
H       0.5443   0.4239   0.3348     H
S       0.5448  0.73144  0.83525     S
H       0.5455   0.5699   0.2874     H
H       0.5502   0.4654   0.9351     H
C      0.55689  0.61727   0.2497     C
C      0.55735  0.92757   0.9216     C
P      0.55903  0.24585  0.23542     P
Mo     0.55953  0.87775  0.78163    Mo
C      0.56169  0.34595   0.4948     C
H       0.5618   0.9126   0.0477     H
C      0.56494  0.41486   0.9608     C
H        0.565   0.3698   0.9171     H
C      0.56531  0.87709   0.9968     C
Mo     0.56628  0.74376  0.68272    Mo
H       0.5699   0.5455   0.7874     H
H       0.5761   0.4557   0.1652     H
H       0.5764    0.187   0.8297     H
H       0.5819   0.2813   0.6019     H
C      0.58514  0.43506   0.5392     C
C      0.59119  0.60329   0.6762     C
H        0.592    0.667     0.28     H
C      0.59227  0.02491   0.8183     C
O      0.59883  0.86489   0.3313     O
C      0.60092    0.681   0.5577     C
C      0.60329  0.59119   0.1762     C
C       0.6033  0.50702    0.142     C
C      0.60426  0.10614   0.6858     C
H       0.6057   0.4773   0.4982     H
H       0.6083   0.0551    0.651     H
H       0.6089   0.7609   0.1078     H
C      0.60939  0.09849   0.0975     C
H       0.6115   0.1581   0.0834     H
C      0.61727  0.55689   0.7497     C
H       0.6204    0.858   0.9979     H
H        0.624   0.7156    0.514     H
H       0.6253   0.0661    0.049     H
C      0.62543  0.97899   0.8823     C
H       0.6281   0.2675   0.4279     H
H       0.6302    0.435   0.5829     H
H       0.6321   0.5027   0.7298     H
H       0.6339   0.3443   0.0919     H
H        0.636   0.1568   0.6608     H
C       0.6362   0.1806   0.8273     C
S      0.63877  0.88915  0.64668     S
C      0.64052  0.32608   0.4525     C
C      0.64179  0.09861   0.7729     C
C       0.6492   0.6518    0.623     C
H       0.6494   0.0962   0.1453     H
H       0.6501   0.0071   0.4372     H
C      0.65028  0.51186  0.06772     C
C       0.6518   0.6492    0.123     C
H       0.6528   0.1032   0.4718     H
C      0.65405  0.43831   0.0052     C
H       0.6557   0.3661   0.4081     H
H       0.6598   0.1758   0.8842     H
C      0.66119  0.74417   0.1303     C
H        0.667    0.592     0.78     H
H       0.6681   0.3117   0.0058     H
H       0.6691   0.2307   0.8021     H
H       0.6711   0.7637   0.1895     H
C      0.67256  0.87344   0.3361     C
C      0.67392  0.35948   0.0475     C
C        0.681  0.60092   0.0577     C
H     0.68443333 0.98223333   0.8967     H
C      0.68504  0.05656   0.4679     C
P      0.68744  0.81434  0.77718     P
H       0.6883   0.3319   0.4942     H
H       0.7001   0.0407   0.5246     H
H       0.7009   0.0669    0.306     H
H       0.7074   0.5154   0.9121     H
H       0.7097   0.7703   0.0984     H
H       0.7144   0.1638   0.3422     H
H       0.7156    0.624    0.014     H
H       0.7187   0.4181   0.8981     H
C      0.72035  0.46525     0.94     C
S      0.73144   0.5448  0.33525     S
H       0.7325   0.3719   0.0721     H
O      0.73449  0.95973  0.17201     O
C      0.73513  0.08987   0.7671     C
S        0.736  0.75622  0.87803     S
H       0.7381   0.0331   0.7427     H
C      0.74117  0.11343   0.3358     C
Mo     0.74376  0.56628  0.18272    Mo
C      0.74417  0.66119   0.6303     C
P      0.75415  0.44097  0.26458     P
S      0.75622    0.736  0.37803     S
C      0.75926  0.93344   0.2324     C
H       0.7609   0.6089   0.6078     H
H       0.7631   0.0971   0.8234     H
H       0.7637   0.6711   0.6895     H
H       0.7641   0.1337   0.7314     H
C      0.76557  0.08543   0.4222     C
H       0.7693   0.3309   0.6979     H
H       0.7703   0.7097   0.5984     H
H       0.7763   0.9295   0.5119     H
H       0.7774   0.4794   0.9679     H
H       0.7889   0.2085   0.4758     H
H       0.7915   0.2111   0.0242     H
H       0.7926   0.1276   0.3036     H
H       0.7936   0.9242   0.9774     H
Mo     0.79617  0.88885  0.33786    Mo
S      0.80606  0.87088  0.73629     S
H        0.813   0.4236   0.6703     H
P      0.81434  0.68744  0.27718     P
C        0.819  0.01528    0.417     C
C      0.81903  0.94735   0.4732     C
C       0.8194   0.3638   0.6727     C
C      0.82021  0.16119   0.4723     C
H       0.8206   0.1264   0.0557     H
H       0.8242   0.3402   0.6158     H
H       0.8269   0.8773   0.0556     H
H       0.8271   0.5189   0.4945     H
H       0.8331   0.1441   0.5291     H
H       0.8362   0.2856   0.1578     H
C      0.83881  0.17979   0.0277     C
H       0.8419   0.3885   0.4166     H
H       0.8432    0.364   0.8392     H
C       0.8436  0.91986   0.0138     C
H       0.8559   0.1669   0.9709     H
H        0.858   0.6204   0.4979     H
O      0.86489  0.59883   0.8313     O
H       0.8661   0.9755   0.0423     H
H       0.8663   0.2359   0.7686     H
P        0.868   0.5081  0.13295     P
S      0.87088  0.80606  0.23629     S
H       0.8724   0.2074   0.1964     H
C      0.87344  0.67256   0.8361     C
H       0.8736   0.1794   0.4443     H
C      0.87709  0.56531   0.4968     C
H       0.8773   0.8269   0.5556     H
Mo     0.87775  0.55953  0.28163    Mo
H       0.8826   0.0168   0.8403     H
C      0.88657  0.25883   0.1642     C
H       0.8886   0.4558   0.8109     H
Mo     0.88885  0.79617  0.83786    Mo
S      0.88915  0.63877  0.14668     S
C      0.89245  0.01519   0.3686     C
C      0.89342  0.91058   0.4621     C
C      0.89386  0.39574   0.8142     C
H       0.8968   0.3472   0.0282     H
C      0.90139  0.35821   0.7271     C
C      0.90151  0.39061   0.4025     C
H       0.9029   0.2369   0.6766     H
H       0.9038   0.3506   0.3547     H
H       0.9078   0.0512   0.3235     H
C      0.91013  0.26487   0.7329     C
C      0.91058  0.89342   0.9621     C
H       0.9126   0.5618   0.5477     H
C      0.91457  0.23443   0.0778     C
C      0.91986   0.8436   0.5138     C
H       0.9242   0.7936   0.4774     H
C      0.92757  0.55735   0.4216     C
H       0.9295   0.7763   0.0119     H
H       0.9331   0.2991    0.194     H
C      0.93344  0.75926   0.7324     C
H       0.9339   0.3747    0.451     H
H       0.9352   0.0552   0.5844     H
C      0.93913  0.95345   0.3978     C
C      0.93973  0.02347   0.8677     C
C      0.93998   0.4798   0.3796     C
C      0.94344  0.31496   0.0321     C
H       0.9448   0.0648   0.9156     H
H       0.9449   0.3917    0.849     H
C      0.94735  0.81903   0.9732     C
H       0.9488   0.0922   0.1765     H
C      0.95345  0.93913   0.8978     C
H       0.9561   0.0171   0.6726     H
H       0.9593   0.2999   0.9754     H
O      0.95973  0.73449  0.67201     O
H       0.9669   0.2619   0.7573     H
C      0.97509  0.40773   0.6817     C
H       0.9755   0.8661   0.5423     H
C      0.97653  0.06027   0.6323     C
C      0.97899  0.62543   0.3823     C
H     0.98223333 0.68443333   0.3967     H
H       0.9829   0.0439   0.8274     H
H       0.9831   0.5381   0.7217     H
H       0.9832   0.1174   0.6597     H
C      0.98472    0.181    0.083     C
C      0.98481  0.10755   0.1314     C
H       0.9929   0.3499   0.0628     H
C      0.99835  0.50137   0.3162     C
