data_I
_chemical_name_common  '/Users/gianmarcoterrones/Research/MOFs/MOF_structures/water_stability_work_extra_structs/cleaned_from_CCDC/OTAREH'
_cell_length_a 14.25300
_cell_length_b 18.34000
_cell_length_c 29.96500
_cell_angle_alpha 90.00000
_cell_angle_beta  90.00000
_cell_angle_gamma 112.87000
_space_group_name_H-M_alt      'P 1'


loop_
_space_group_symop_operation_xyz
  'x, y, z' 

loop_
_atom_site_label
_atom_site_fract_x
_atom_site_fract_y
_atom_site_fract_z
_atom_site_type_symbol
C       0.0032  0.10869  0.07157     C
C       0.0032  0.60869  0.42843     C
H       0.0044   0.3902   0.0207     H
H       0.0044   0.8902   0.4793     H
H       0.0052   0.2797   0.8913     H
H       0.0052   0.7797   0.6087     H
C       0.0088    0.328  0.55076     C
C       0.0088    0.828  0.94924     C
H       0.0101   0.1302    0.752     H
H       0.0101   0.6302    0.748     H
H       0.0119   0.0636   0.7844     H
H       0.0119   0.5636   0.7156     H
H        0.017   0.2336   0.4792     H
H        0.017   0.7336   0.0208     H
O      0.01834  0.34847  0.68749     O
O      0.01834  0.84847  0.81251     O
C       0.0196   0.2502  0.86727     C
C       0.0196   0.7502  0.63273     C
C       0.0204   0.1726  0.88601     C
C       0.0204   0.6726  0.61399     C
H       0.0304   0.2228   0.0607     H
H       0.0304   0.7228   0.4393     H
H       0.0308   0.2759   0.7764     H
H       0.0308   0.7759   0.7236     H
H       0.0311   0.3963   0.8306     H
H       0.0311   0.8963   0.6694     H
C        0.032   0.4693   0.3908     C
C        0.032   0.9693   0.1092     C
C       0.0343  0.24259  0.28863     C
C       0.0343  0.74259  0.21137     C
H       0.0348   0.4403   0.7519     H
H       0.0348   0.9403   0.7481     H
C       0.0374   0.4463  0.82116     C
C       0.0374   0.9463  0.67884     C
C       0.0391   0.4701  0.77751     C
C       0.0391   0.9701  0.72249     C
C       0.0411   0.4029  0.37312     C
C       0.0411   0.9029  0.12688     C
C       0.0417  0.03708  0.92246     C
C       0.0417  0.53708  0.57754     C
O      0.04626  0.24084  0.68132     O
O      0.04626  0.74084  0.81868     O
N       0.0466  0.00906  0.65133     N
N       0.0466  0.50906  0.84867     N
C       0.0474   0.0977   0.7599     C
C       0.0474   0.5977   0.7401     C
N       0.0484  0.04646  0.71992     N
N       0.0484  0.54646  0.78008     N
H       0.0495   0.1178   0.0949     H
H       0.0495   0.6178   0.4051     H
C       0.0543  0.46923  0.55759     C
C       0.0543  0.96923  0.94241     C
C       0.0545  0.06802  0.67688     C
C       0.0545  0.56802  0.82312     C
Zn     0.05527  0.00097 0.584473    Zn
Zn     0.05527  0.50097 0.915527    Zn
N       0.0555  0.26176  0.33163     N
N       0.0555  0.76176  0.16837     N
C       0.0594  0.13941  0.53269     C
C       0.0594  0.63941  0.96731     C
H       0.0631   0.1182   0.6668     H
H       0.0631   0.6182   0.8332     H
C       0.0733   0.3111   0.6775     C
C       0.0733   0.8111   0.8225     C
C       0.0752  0.33605  0.51636     C
C       0.0752  0.83605  0.98364     C
H       0.0759   0.0192   0.1187     H
H       0.0759   0.5192   0.3813     H
O      0.08214  0.03159  0.43967     O
O      0.08214  0.53159  0.06033     O
C       0.0826   0.2655  0.49212     C
C       0.0826   0.7655  0.00788     C
H       0.0868   0.2819   0.8558     H
H       0.0868   0.7819   0.6442     H
H       0.0909   0.4094   0.3517     H
H       0.0909   0.9094   0.1483     H
C       0.0954   0.1806  0.91718     C
C       0.0954   0.6806  0.58282     C
C       0.1049   0.1171  0.93421     C
C       0.1049   0.6171  0.56579     C
O      0.10866    0.151  0.41347     O
O      0.10866    0.651  0.08653     O
N       0.1098  0.11215  0.56122     N
N       0.1098  0.61215  0.93878     N
N       0.1145   0.2161  0.52381     N
N       0.1145   0.7161  0.97619     N
N       0.1177  0.25336  0.26584     N
N       0.1177  0.75336  0.23416     N
Zn     0.12149  0.22297 0.200668    Zn
Zn     0.12149  0.72297 0.299332    Zn
O      0.12251  0.43856  0.94448     O
O      0.12251  0.93856  0.55552     O
C       0.1248    0.474  0.52353     C
C       0.1248    0.974  0.97647     C
C       0.1312     0.41  0.50222     C
C       0.1312     0.91  0.99778     C
H       0.1318   0.2841   0.4681     H
H       0.1318   0.7841   0.0319     H
C       0.1379  0.10443  0.43337     C
C       0.1379  0.60443  0.06663     C
H       0.1394   0.2308   0.9262     H
H       0.1394   0.7308   0.5738     H
C        0.152   0.1499  0.77485     C
C        0.152   0.6499  0.72515     C
H        0.156   0.1249   0.9552     H
H        0.156   0.6249   0.5448     H
H       0.1577   0.2351   0.7321     H
H       0.1577   0.7351   0.7679     H
C       0.1595   0.2873  0.33729     C
C       0.1595   0.7873  0.16271     C
H       0.1615   0.0944   0.8304     H
H       0.1615   0.5944   0.6696     H
H       0.1698   0.4673   0.6682     H
H       0.1698   0.9673   0.8318     H
H         0.17   0.0241   0.9851     H
H         0.17   0.5241   0.5149     H
H       0.1745   0.4177   0.4779     H
H       0.1745   0.9177   0.0221     H
H        0.177   0.4048    0.219     H
H        0.177   0.9048    0.281     H
C       0.1813    0.361  0.66373     C
C       0.1813    0.861  0.83627     C
N       0.1815  0.32939  0.17124     N
N       0.1815  0.82939  0.32876     N
C       0.1885   0.3981    0.189     C
C       0.1885   0.8981    0.311     C
H       0.1937   0.3803   0.0063     H
H       0.1937   0.8803   0.4937     H
C       0.1939   0.2213  0.75402     C
C       0.1939   0.7213  0.74598     C
O      0.19498  0.16934  0.16275     O
O      0.19498  0.66934  0.33725     O
H       0.1959   0.3038   0.3637     H
H       0.1959   0.8038   0.1363     H
C        0.196   0.1378  0.81235     C
C        0.196   0.6378  0.68765     C
H       0.1961    0.043   0.3072     H
H       0.1961    0.543   0.1928     H
C       0.1979   0.2832  0.29581     C
C       0.1979   0.7832  0.20419     C
C       0.2001   0.1742  0.56933     C
C       0.2001   0.6742  0.93067     C
O       0.2034  0.12229  0.22623     O
O       0.2034  0.62229  0.27377     O
H       0.2045   0.0576   0.3588     H
H       0.2045   0.5576   0.1412     H
C       0.2057   0.2368  0.54635     C
C       0.2057   0.7368  0.95365     C
C       0.2076   0.3435  0.12725     C
C       0.2076   0.8435  0.37275     C
C       0.2086    0.453   0.9267     C
C       0.2086    0.953   0.5733     C
N       0.2138  0.45575  0.15881     N
N       0.2138  0.95575  0.34119     N
H        0.214   0.3075   0.1069     H
H        0.214   0.8075   0.3931     H
C       0.2142   0.4429  0.66115     C
C       0.2142   0.9429  0.83885     C
C       0.2225   0.4201  0.11879     C
C       0.2225   0.9201  0.38121     C
H       0.2257   0.2698   0.6549     H
H       0.2257   0.7698   0.8451     H
C       0.2274   0.1346  0.18766     C
C       0.2274   0.6346  0.31234     C
C       0.2318   0.0385  0.33387     C
C       0.2318   0.5385  0.16613     C
H       0.2343   0.0286   0.4788     H
H       0.2343   0.5286   0.0212     H
H       0.2362   0.4446    0.091     H
H       0.2362   0.9446    0.409     H
C       0.2439  0.13161  0.45141     C
C       0.2439  0.63161  0.04859     C
O      0.24394  0.00088  0.60235     O
O      0.24394  0.50088  0.89765     O
C       0.2477   0.3246  0.65317     C
C       0.2477   0.8246  0.84683     C
C       0.2489  0.37837  0.99056     C
C       0.2489  0.87837  0.50944     C
H       0.2506   0.1723   0.5884     H
H       0.2506   0.6723   0.9116     H
H       0.2604   0.2855   0.5455     H
H       0.2604   0.7855   0.9545     H
H       0.2634   0.1022   0.1066     H
H       0.2634   0.6022   0.3934     H
H       0.2665   0.2981   0.2889     H
H       0.2665   0.7981   0.2111     H
C       0.2712  0.41163  0.94817     C
C       0.2712  0.91163  0.55183     C
C       0.2785  0.08083   0.4741     C
C       0.2785  0.58083   0.0259     C
H        0.287   0.2457   0.4323     H
H        0.287   0.7457   0.0677     H
C       0.2908    0.273  0.76585     C
C       0.2908    0.773  0.73415     C
F      0.29149   0.1805  0.01269     F
F      0.29149   0.6805  0.48731     F
C       0.2915   0.1895   0.8237     C
C       0.2915   0.6895   0.6763     C
H       0.2943    0.322   0.0379     H
H       0.2943    0.822   0.4621     H
C       0.2973  0.09837  0.17012     C
C       0.2973  0.59837  0.32988     C
C       0.3043   0.0874  0.12576     C
C       0.3043   0.5874  0.37424     C
C       0.3085   0.3426  0.00922     C
C       0.3085   0.8426  0.49078     C
C       0.3094  0.21023  0.44638     C
C       0.3094  0.71023  0.05362     C
C       0.3134   0.4883  0.64802     C
C       0.3134   0.9883  0.85198     C
H       0.3188   0.1795   0.8501     H
H       0.3188   0.6795   0.6499     H
H       0.3198   0.3216   0.7515     H
H       0.3198   0.8216   0.7485     H
H       0.3263    0.194    0.332     H
H       0.3263    0.694    0.168     H
H       0.3353    0.043   0.8537     H
H       0.3353    0.543   0.6463     H
C       0.3468     0.37  0.64004     C
C       0.3468     0.87  0.85996     C
C       0.3476   0.0914   0.3287     C
C       0.3476   0.5914   0.1713     C
C       0.3487   0.2524   0.8007     C
C       0.3487   0.7524   0.6993     C
C       0.3558  0.41017  0.92535     C
C       0.3558  0.91017  0.57465     C
H        0.356   0.0805   0.2279     H
H        0.356   0.5805   0.2721     H
C        0.361   0.0762  0.19718     C
C        0.361   0.5762  0.30282     C
H       0.3699   0.0452   0.0766     H
H       0.3699   0.5452   0.4234     H
C       0.3701   0.0547  0.10705     C
C       0.3701   0.5547  0.39295     C
F      0.37263  0.38056  0.38113     F
F      0.37263  0.88056  0.11887     F
F      0.37277  0.18885  0.95147     F
F      0.37277  0.68885  0.54853     F
H       0.3735   0.4349   0.8977     H
H       0.3735   0.9349   0.6023     H
C       0.3752   0.1728  0.32739     C
C       0.3752   0.6728  0.17261     C
C       0.3762  0.10583  0.48964     C
C       0.3762  0.60583  0.01036     C
C       0.3797  0.45183  0.63746     C
C       0.3797  0.95183  0.86254     C
F      0.38097  0.26133  0.07986     F
F      0.38097  0.76133  0.42014     F
C       0.3843   0.2021  0.99591     C
C       0.3843   0.7021  0.50409     C
C       0.3885  0.33673  0.98615     C
C       0.3885  0.83673  0.51385     C
H       0.3912   0.3456    0.633     H
H       0.3912   0.8456    0.867     H
H       0.3982   0.0698   0.5034     H
H       0.3982   0.5698   0.9966     H
F      0.40135    0.013  0.94682     F
F      0.40135    0.513  0.55318     F
H       0.4022   0.0052   0.3227     H
H       0.4022   0.5052   0.1773     H
C       0.4065  0.23535  0.46201     C
C       0.4065  0.73535  0.03799     C
C       0.4139   0.3716  0.94395     C
C       0.4139   0.8716  0.55605     C
C       0.4206   0.0597  0.32182     C
C       0.4206   0.5597  0.17818     C
F      0.42397   0.1527  0.01225     F
F      0.42397   0.6527  0.48775     F
H       0.4299   0.4117    0.809     H
H       0.4299   0.9117    0.691     H
C       0.4304   0.0485  0.18113     C
C       0.4304   0.5485  0.31887     C
C       0.4355   0.0373  0.13569     C
C       0.4355   0.5373  0.36431     C
F      0.44224  0.46155  0.45398     F
F      0.44224  0.96155  0.04602     F
C       0.4428  0.18395   0.4852     C
C       0.4428  0.68395   0.0148     C
C         0.45  0.28971  0.00528     C
C         0.45  0.78971  0.49472     C
H       0.4504   0.2877   0.4574     H
H       0.4504   0.7877   0.0426     H
C       0.4512    0.309  0.81231     C
C       0.4512    0.809  0.68769     C
F      0.45351  0.41816    0.553     F
F      0.45351  0.91816    0.947     F
F      0.46582  0.22914  0.57086     F
F      0.46582  0.72914  0.92914     F
C       0.4672   0.3005  0.05636     C
C       0.4672   0.8005  0.44364     C
H       0.4691   0.3692   0.9284     H
H       0.4691   0.8692   0.5716     H
C       0.4698   0.4166  0.36952     C
C       0.4698   0.9166  0.13048     C
C       0.4735   0.4911  0.56781     C
C       0.4735   0.9911  0.93219     C
F      0.47381  0.40605  0.32552     F
F      0.47381  0.90605  0.17448     F
H       0.4739   0.0373   0.2005     H
H       0.4739   0.5373   0.2995     H
C       0.4758   0.2226   0.3192     C
C       0.4758   0.7226   0.1808     C
C       0.4788   0.3905  0.81362     C
C       0.4788   0.8905  0.68638     C
F      0.48081  0.12591   0.8892     F
F      0.48081  0.62591   0.6108     F
C        0.488  0.49634  0.61808     C
C        0.488  0.99634  0.88192     C
H       0.4942   0.2772   0.3183     H
H       0.4942   0.7772   0.1817     H
F      0.49757  0.37456  0.06874     F
F      0.49757  0.87456  0.43126     F
F      0.50243  0.12544  0.56874     F
F      0.50243  0.62544  0.93126     F
H       0.5058   0.2228   0.8183     H
H       0.5058   0.7228   0.6817     H
C        0.512  0.00366  0.11808     C
C        0.512  0.50366  0.38192     C
F      0.51919  0.37409   0.3892     F
F      0.51919  0.87409   0.1108     F
C       0.5212   0.1095  0.31362     C
C       0.5212   0.6095  0.18638     C
C       0.5242   0.2774   0.8192     C
C       0.5242   0.7774   0.6808     C
H       0.5261   0.4627   0.7005     H
H       0.5261   0.9627   0.7995     H
F      0.52619  0.09395  0.82552     F
F      0.52619  0.59395  0.67448     F
C       0.5265   0.0089  0.06781     C
C       0.5265   0.5089  0.43219     C
C       0.5302   0.0834  0.86952     C
C       0.5302   0.5834  0.63048     C
H       0.5309   0.1308   0.4284     H
H       0.5309   0.6308   0.0716     H
C       0.5328   0.1995  0.55636     C
C       0.5328   0.6995  0.94364     C
F      0.53418  0.27086  0.07086     F
F      0.53418  0.77086  0.42914     F
F      0.54649  0.08184    0.053     F
F      0.54649  0.58184    0.447     F
C       0.5488    0.191  0.31231     C
C       0.5488    0.691  0.18769     C
H       0.5496   0.2123   0.9574     H
H       0.5496   0.7123   0.5426     H
C         0.55  0.21029  0.50528     C
C         0.55  0.71029  0.99472     C
C       0.5572  0.31605   0.9852     C
C       0.5572  0.81605   0.5148     C
F      0.55776  0.03845  0.95398     F
F      0.55776  0.53845  0.54602     F
C       0.5645   0.4627  0.63569     C
C       0.5645   0.9627  0.86431     C
C       0.5696   0.4515  0.68113     C
C       0.5696   0.9515  0.81887     C
H       0.5701   0.0883    0.309     H
H       0.5701   0.5883    0.191     H
F      0.57603   0.3473  0.51225     F
F      0.57603   0.8473  0.98775     F
C       0.5794   0.4403  0.82182     C
C       0.5794   0.9403  0.67818     C
C       0.5861   0.1284  0.44395     C
C       0.5861   0.6284  0.05605     C
C       0.5935  0.26465  0.96201     C
C       0.5935  0.76465  0.53799     C
H       0.5978   0.4948   0.8227     H
H       0.5978   0.9948   0.6773     H
F      0.59865    0.487  0.44682     F
F      0.59865    0.987  0.05318     F
H       0.6018   0.4302   0.0034     H
H       0.6018   0.9302   0.4966     H
H       0.6088   0.1544    0.133     H
H       0.6088   0.6544    0.367     H
C       0.6115  0.16327  0.48615     C
C       0.6115  0.66327  0.01385     C
C       0.6157   0.2979  0.49591     C
C       0.6157   0.7979  0.00409     C
F      0.61903  0.23867  0.57986     F
F      0.61903  0.73867  0.92014     F
C       0.6203  0.04817  0.13746     C
C       0.6203  0.54817  0.36254     C
C       0.6238  0.39417  0.98964     C
C       0.6238  0.89417  0.51036     C
C       0.6248   0.3272  0.82739     C
C       0.6248   0.8272  0.67261     C
H       0.6265   0.0651   0.3977     H
H       0.6265   0.5651   0.1023     H
F      0.62723  0.31115  0.45147     F
F      0.62723  0.81115  0.04853     F
F      0.62737  0.11944  0.88113     F
F      0.62737  0.61944  0.61887     F
C       0.6299   0.4453  0.60705     C
C       0.6299   0.9453  0.89295     C
H       0.6301   0.4548   0.5766     H
H       0.6301   0.9548   0.9234     H
C        0.639   0.4238  0.69718     C
C        0.639   0.9238  0.80282     C
H        0.644   0.4195   0.7279     H
H        0.644   0.9195   0.7721     H
C       0.6442  0.08983  0.42535     C
C       0.6442  0.58983  0.07465     C
C       0.6513   0.2476   0.3007     C
C       0.6513   0.7476   0.1993     C
C       0.6524   0.4086   0.8287     C
C       0.6524   0.9086   0.6713     C
C       0.6532     0.13  0.14004     C
C       0.6532     0.63  0.35996     C
H       0.6647    0.457   0.3537     H
H       0.6647    0.957   0.1463     H
H       0.6737    0.306    0.832     H
H       0.6737    0.806    0.668     H
H       0.6802   0.1784   0.2515     H
H       0.6802   0.6784   0.2485     H
H       0.6812   0.3205   0.3501     H
H       0.6812   0.8205   0.1499     H
C       0.6866   0.0117  0.14802     C
C       0.6866   0.5117  0.35198     C
C       0.6906  0.28977  0.94638     C
C       0.6906  0.78977  0.55362     C
C       0.6915   0.1574  0.50922     C
C       0.6915   0.6574  0.99078     C
C       0.6957   0.4126  0.62576     C
C       0.6957   0.9126  0.87424     C
C       0.7027  0.40163  0.67012     C
C       0.7027  0.90163  0.82988     C
H       0.7057    0.178   0.5379     H
H       0.7057    0.678   0.9621     H
C       0.7085   0.3105   0.3237     C
C       0.7085   0.8105   0.1763     C
F      0.70851   0.3195  0.51269     F
F      0.70851   0.8195  0.98731     F
C       0.7092    0.227  0.26585     C
C       0.7092    0.727  0.23415     C
H        0.713   0.2543   0.9323     H
H        0.713   0.7543   0.5677     H
C       0.7215  0.41917   0.9741     C
C       0.7215  0.91917   0.5259     C
C       0.7288  0.08837  0.44817     C
C       0.7288  0.58837  0.05183     C
H       0.7335   0.2019   0.7889     H
H       0.7335   0.7019   0.7111     H
H       0.7366   0.3978   0.6066     H
H       0.7366   0.8978   0.8934     H
H       0.7396   0.2145   0.0455     H
H       0.7396   0.7145   0.4545     H
H       0.7494   0.3277   0.0884     H
H       0.7494   0.8277   0.4116     H
C       0.7511  0.12163  0.49056     C
C       0.7511  0.62163  0.00944     C
C       0.7523   0.1754  0.15317     C
C       0.7523   0.6754  0.34683     C
O      0.75606  0.49912  0.10235     O
O      0.75606  0.99912  0.39765     O
C       0.7561  0.36839  0.95141     C
C       0.7561  0.86839  0.54859     C
H       0.7638   0.0554    0.591     H
H       0.7638   0.5554    0.909     H
H       0.7657   0.4714   0.9788     H
H       0.7657   0.9714   0.5212     H
C       0.7682   0.4615  0.83387     C
C       0.7682   0.9615  0.66613     C
C       0.7726   0.3654  0.68766     C
C       0.7726   0.8654  0.81234     C
H       0.7743   0.2302   0.1549     H
H       0.7743   0.7302   0.3451     H
C       0.7775   0.0799  0.61879     C
C       0.7775   0.5799  0.88121     C
C       0.7858   0.0571  0.16115     C
C       0.7858   0.5571  0.33885     C
H        0.786   0.1925   0.6069     H
H        0.786   0.6925   0.8931     H
N       0.7862  0.04425  0.65881     N
N       0.7862  0.54425  0.84119     N
C       0.7914    0.047   0.4267     C
C       0.7914    0.547   0.0733     C
C       0.7924   0.1565  0.62725     C
C       0.7924   0.6565  0.87275     C
C       0.7943   0.2632  0.04635     C
C       0.7943   0.7632  0.45365     C
H       0.7955   0.4424   0.8588     H
H       0.7955   0.9424   0.6412     H
O       0.7966  0.37771  0.72623     O
O       0.7966  0.87771  0.77377     O
C       0.7999   0.3258  0.06933     C
C       0.7999   0.8258  0.43067     C
C       0.8021   0.2168  0.79581     C
C       0.8021   0.7168  0.70419     C
H       0.8039    0.457   0.8072     H
H       0.8039    0.957   0.6928     H
C        0.804   0.3622  0.31235     C
C        0.804   0.8622  0.18765     C
H       0.8041   0.1962   0.8637     H
H       0.8041   0.6962   0.6363     H
O      0.80502  0.33066  0.66275     O
O      0.80502  0.83066  0.83725     O
C       0.8061   0.2787  0.25402     C
C       0.8061   0.7787  0.24598     C
H       0.8063   0.1197   0.5063     H
H       0.8063   0.6197   0.9937     H
C       0.8115   0.1019    0.689     C
C       0.8115   0.6019    0.811     C
N       0.8185  0.17061  0.67124     N
N       0.8185  0.67061  0.82876     N
C       0.8187    0.139  0.16373     C
C       0.8187    0.639  0.33627     C
H        0.823   0.0952    0.719     H
H        0.823   0.5952    0.781     H
H       0.8255   0.0823   0.9779     H
H       0.8255   0.5823   0.5221     H
H         0.83   0.4759   0.4851     H
H         0.83   0.9759   0.0149     H
H       0.8302   0.0327   0.1682     H
H       0.8302   0.5327   0.3318     H
H       0.8385   0.4056   0.3304     H
H       0.8385   0.9056   0.1696     H
C       0.8405   0.2127  0.83729     C
C       0.8405   0.7127  0.66271     C
H       0.8423   0.2649   0.2321     H
H       0.8423   0.7649   0.2679     H
H        0.844   0.3751   0.4552     H
H        0.844   0.8751   0.0448     H
C        0.848   0.3501  0.27485     C
C        0.848   0.8501  0.22515     C
H       0.8606   0.2692   0.4262     H
H       0.8606   0.7692   0.0738     H
C       0.8621  0.39557  0.93337     C
C       0.8621  0.89557  0.56663     C
H       0.8682   0.2159   0.9681     H
H       0.8682   0.7159   0.5319     H
C       0.8688     0.09  0.00222     C
C       0.8688     0.59  0.49778     C
C       0.8752    0.026  0.02353     C
C       0.8752    0.526  0.47647     C
O      0.87749  0.06144  0.44448     O
O      0.87749  0.56144  0.05552     O
Zn     0.87851  0.27703 0.700668    Zn
Zn     0.87851  0.77703 0.799332    Zn
N       0.8823  0.24664  0.76584     N
N       0.8823  0.74664  0.73416     N
N       0.8855   0.2839  0.02381     N
N       0.8855   0.7839  0.47619     N
N       0.8902  0.38785  0.06122     N
N       0.8902  0.88785  0.43878     N
O      0.89134    0.349  0.91347     O
O      0.89134    0.849  0.58653     O
C       0.8951   0.3829  0.43421     C
C       0.8951   0.8829  0.06579     C
C       0.9046   0.3194  0.41718     C
C       0.9046   0.8194  0.08282     C
H       0.9091   0.0906   0.8517     H
H       0.9091   0.5906   0.6483     H
H       0.9132   0.2181   0.3558     H
H       0.9132   0.7181   0.1442     H
C       0.9174   0.2345  0.99212     C
C       0.9174   0.7345  0.50788     C
O      0.91786  0.46841  0.93967     O
O      0.91786  0.96841  0.56033     O
H       0.9241   0.4808   0.6187     H
H       0.9241   0.9808   0.8813     H
C       0.9248  0.16395  0.01636     C
C       0.9248  0.66395  0.48364     C
C       0.9267   0.1889   0.1775     C
C       0.9267   0.6889   0.3225     C
H       0.9369   0.3818   0.1668     H
H       0.9369   0.8818   0.3332     H
C       0.9406  0.36059  0.03269     C
C       0.9406  0.86059  0.46731     C
N       0.9445  0.23824  0.83163     N
N       0.9445  0.73824  0.66837     N
Zn     0.94473  0.49903 0.084473    Zn
Zn     0.94473  0.99903 0.415527    Zn
C       0.9455  0.43198  0.17688     C
C       0.9455  0.93198  0.32312     C
C       0.9457  0.03077  0.05759     C
C       0.9457  0.53077  0.44241     C
H       0.9505   0.3822   0.5949     H
H       0.9505   0.8822   0.9051     H
N       0.9516  0.45354  0.21992     N
N       0.9516  0.95354  0.28008     N
C       0.9526   0.4023   0.2599     C
C       0.9526   0.9023   0.2401     C
N       0.9534  0.49094  0.15133     N
N       0.9534  0.99094  0.34867     N
O      0.95374  0.25916  0.18132     O
O      0.95374  0.75916  0.31868     O
C       0.9583  0.46292  0.42246     C
C       0.9583  0.96292  0.07754     C
C       0.9589   0.0971  0.87312     C
C       0.9589   0.5971  0.62688     C
C       0.9609   0.0299  0.27751     C
C       0.9609   0.5299  0.22249     C
C       0.9626   0.0537  0.32116     C
C       0.9626   0.5537  0.17884     C
H       0.9652   0.0597   0.2519     H
H       0.9652   0.5597   0.2481     H
C       0.9657  0.25741  0.78863     C
C       0.9657  0.75741  0.71137     C
C        0.968   0.0307   0.8908     C
C        0.968   0.5307   0.6092     C
H       0.9689   0.1037   0.3306     H
H       0.9689   0.6037   0.1694     H
H       0.9692   0.2241   0.2764     H
H       0.9692   0.7241   0.2236     H
H       0.9696   0.2772   0.5607     H
H       0.9696   0.7772   0.9393     H
C       0.9796   0.3274  0.38601     C
C       0.9796   0.8274  0.11399     C
C       0.9804   0.2498  0.36727     C
C       0.9804   0.7498  0.13273     C
O      0.98166  0.15153  0.18749     O
O      0.98166  0.65153  0.31251     O
H        0.983   0.2664   0.9792     H
H        0.983   0.7664   0.5208     H
H       0.9881   0.4364   0.2844     H
H       0.9881   0.9364   0.2156     H
H       0.9899   0.3698    0.252     H
H       0.9899   0.8698    0.248     H
C       0.9912    0.172  0.05076     C
C       0.9912    0.672  0.44924     C
H       0.9948   0.2203   0.3913     H
H       0.9948   0.7203   0.1087     H
H       0.9956   0.1098   0.5207     H
H       0.9956   0.6098   0.9793     H
C       0.9968  0.39131  0.57157     C
C       0.9968  0.89131  0.92843     C
