data_I
_chemical_name_common  '/Users/gianmarcoterrones/Research/MOFs/MOF_structures/water_stability_work_extra_structs/cleaned_from_CCDC/OTAROR'
_cell_length_a 13.92750
_cell_length_b 16.41160
_cell_length_c 17.70290
_cell_angle_alpha 110.47200
_cell_angle_beta  96.53100
_cell_angle_gamma 109.87200
_space_group_name_H-M_alt      'P 1'


loop_
_space_group_symop_operation_xyz
  'x, y, z' 

loop_
_atom_site_label
_atom_site_fract_x
_atom_site_fract_y
_atom_site_fract_z
_atom_site_type_symbol
C       0.0003   0.7207   0.8086     C
H       0.0005   0.3761   0.4648     H
C       0.0011   0.7147   0.2006     C
C       0.0016   0.9543   0.6623     C
H       0.0058    0.268   0.5364     H
C       0.0118   0.8727   0.6137     C
H       0.0143   0.1811   0.3754     H
H       0.0143   0.2111   0.0777     H
H       0.0191   0.3437   0.3136     H
C       0.0218   0.6297   0.1511     C
C       0.0255   0.1228   0.6996     C
C       0.0278   0.0672   0.9324     C
H       0.0299   0.9166   0.0693     H
O       0.0314    0.564   0.3077     O
H       0.0317   0.0457   0.2951     H
C       0.0387    0.015   0.9775     C
C       0.0403   0.0368   0.6486     C
H        0.044   0.3568   0.0117     H
C       0.0476   0.2386   0.1345     C
C       0.0512   0.3177   0.2741     C
H       0.0551   0.6117     0.19     H
C       0.0593   0.8693   0.5502     C
C       0.0649   0.8835   0.2744     C
C       0.0653   0.7793   0.4948     C
N       0.0714   0.4542   0.9079     N
C       0.0716   0.6627   0.5556     C
H       0.0718   0.6487   0.1202     H
C       0.0776   0.8043   0.2244     C
O        0.083   0.5197  0.40236     O
C       0.0894    0.293   0.7721     C
C       0.0898   0.0327   0.5864     C
H       0.0913   0.1312   0.8613     H
Cd     0.09778  0.54362  0.65827    Cd
C       0.0986   0.4173   0.0336     C
C       0.0988   0.9504   0.5374     C
C       0.1005   0.0954     0.89     C
C       0.1019   0.5668   0.3599     C
C       0.1034   0.2138   0.7235     C
C       0.1034   0.7144    0.837     C
H        0.104   0.7917    0.455     H
H       0.1048   0.5404   0.8478     H
N       0.1173   0.7406   0.5416     N
H       0.1185   0.0869   0.5764     H
H       0.1193   0.9433   0.2912     H
C       0.1197   0.4707   0.9875     C
C       0.1228   0.5335   0.8967     C
C       0.1259   0.9934   0.9765     C
H       0.1325   0.9502   0.4949     H
H       0.1367   0.9594   0.0066     H
N       0.1383   0.6464   0.6007     N
O       0.1383   0.6677  0.78313     O
H       0.1391   0.8117   0.2066     H
H       0.1421   0.3531   0.7869     H
C       0.1453   0.2381   0.1609     C
O       0.1478   0.7549    0.913     O
C        0.149   0.3195   0.3015     C
O       0.1493   0.4264   0.5863     O
H       0.1504   0.4241   0.1463     H
C       0.1625   0.4579   0.1132     C
H       0.1654   0.2212   0.7066     H
H       0.1753   0.2087   0.1214     H
H       0.1818   0.3471   0.3584     H
C       0.1864   0.0717    0.889     C
H       0.1868   0.2833   0.5291     H
H       0.1877   0.7121   0.3189     H
C       0.1975   0.0197   0.9334     C
C       0.1982   0.2802   0.2442     C
C       0.1999   0.5612   0.0201     C
N       0.1999   0.5994   0.9612     N
H       0.2025   0.1153   0.2536     H
H        0.215   0.9733   0.1888     H
C       0.2164   0.6277   0.3695     C
C       0.2201   0.4469   0.6495     C
C       0.2239   0.7791   0.5811     C
C       0.2362   0.7188   0.6168     C
H       0.2381   0.1246   0.8052     H
O       0.2409   0.5153   0.7169     O
C       0.2414   0.6994   0.3419     C
C       0.2442   0.5475   0.1459     C
C       0.2469   0.3013   0.5704     C
C       0.2521   0.1122   0.2229     C
H       0.2544   0.0022   0.9341     H
H       0.2547   0.2888    0.929     H
C       0.2582   0.0265   0.1824     C
C       0.2637   0.6001      0.1     C
C       0.2659    0.101   0.8417     C
H       0.2761   0.0456    0.807     H
H       0.2761   0.1859   0.5124     H
F       0.2762   0.2518  0.38447     F
O       0.2762   0.8528  0.09861     O
C       0.2796   0.3848   0.6403     C
H       0.2829   0.5679   0.4278     H
H        0.285    0.674   0.8137     H
H       0.2866   0.5722      0.2     H
C       0.2976   0.6131   0.4056     C
Cd     0.29897   0.7484  0.97695    Cd
H       0.2991   0.8996   0.5647     H
C        0.301    0.243   0.5598     C
C       0.3082   0.8593   0.5882     C
C       0.3116   0.2874   0.2689     C
H       0.3185   0.6606    0.122     H
C        0.319   0.1936   0.2185     C
F      0.31915  0.05874  0.51315     F
C       0.3252   0.3165   0.9594     C
C        0.326   0.0171   0.1329     C
C       0.3266   0.9215   0.0832     C
H     0.33333333   0.4455   0.0266     H
C       0.3355   0.7369   0.6593     C
F      0.34164   0.1364  0.68074     F
O       0.3422    0.714  0.85098     O
C       0.3449   0.7522   0.3479     C
H       0.3455   0.6962   0.6819     H
C       0.3475   0.3095   0.3618     C
H       0.3592    0.765   0.8436     H
H       0.3605   0.8011   0.3301     H
F       0.3643   0.3519   0.1723     F
F       0.3651   0.3984   0.4131     F
C       0.3678   0.4092   0.7009     C
N       0.3679   0.1745   0.8977     N
F        0.369  0.44959   0.2908     F
O       0.3711   0.9135   0.0257     O
C       0.3732   0.4093   0.0177     C
C       0.3832   0.3699   0.2519     C
H       0.3882   0.5711   0.9181     H
C       0.3889   0.1851   0.1704     C
C       0.3894    0.267    0.949     C
H       0.3898   0.4642   0.7499     H
C         0.39   0.0975   0.1273     C
C       0.3917   0.2691   0.6194     C
C        0.401   0.6645   0.4095     C
C       0.4052   0.8757    0.632     C
F      0.41434  0.15003  0.46343     F
C       0.4174   0.1234   0.5261     C
C       0.4196   0.8165   0.6675     C
C       0.4244   0.3527     0.69     C
C       0.4258   0.7334   0.3799     C
H       0.4358   0.2389   0.1669     H
H        0.436   0.0931   0.0933     H
F       0.4377   0.3004  0.37877     F
C       0.4433   0.1699   0.6789     C
H       0.4548   0.6519   0.4326     H
C       0.4569   0.2085   0.6115     C
C       0.4586   0.1632   0.9131     C
C        0.459   0.5989    0.948     C
N       0.4619   0.7597   0.0311     N
H       0.4637   0.9287   0.6381     H
H       0.4644   0.1058   0.8864     H
F       0.4733  0.09925   0.6691     F
C       0.4784   0.4522   0.0643     C
F       0.4797  0.07648  0.51627     F
H       0.4853   0.3715   0.7309     H
F       0.4855   0.3909   0.2805     F
H        0.487   0.8307   0.6972     H
H       0.4934   0.4849   0.8963     H
C       0.4946   0.3076   0.9939     C
F       0.4976   0.2369   0.7547     F
F       0.5024   0.7631   0.2453     F
C       0.5054   0.6924   0.0061     C
H       0.5066   0.5151   0.1037     H
H        0.513   0.1693   0.3028     H
F       0.5145   0.6091   0.7195     F
H       0.5147   0.6285   0.2691     H
F       0.5203  0.92352  0.48373     F
C       0.5216   0.5478   0.9357     C
F       0.5267  0.90075   0.3309     F
H       0.5356   0.8942   0.1136     H
H       0.5363   0.0713   0.3619     H
N       0.5381   0.2403   0.9689     N
C        0.541   0.4011    0.052     C
C       0.5414   0.8368   0.0869     C
C       0.5431   0.7915   0.3885     C
H       0.5452   0.3481   0.5674     H
C       0.5567   0.8301   0.3211     C
F       0.5623   0.6996  0.62123     F
H        0.564   0.9069   0.9067     H
H       0.5642   0.7611   0.8331     H
C       0.5742   0.2666   0.6201     C
C       0.5756   0.6473     0.31     C
C       0.5804   0.1835   0.3325     C
C       0.5826   0.8766   0.4739     C
F      0.58566  0.84997  0.53657     F
C       0.5948   0.1243    0.368     C
C        0.599   0.3355   0.5905     C
C       0.6083   0.7309   0.3806     C
C         0.61   0.9025   0.8727     C
H       0.6102   0.5358   0.2501     H
C       0.6106    0.733    0.051     C
C       0.6111   0.8149   0.8296     C
H       0.6118   0.4289   0.0819     H
C       0.6168   0.6301   0.7481     C
C       0.6268   0.5907   0.9823     C
O       0.6289   0.0865   0.9743     O
F        0.631  0.55041   0.7092     F
N       0.6321   0.8255   0.1023     N
C       0.6322   0.5908   0.2991     C
F       0.6349   0.6016   0.5869     F
F       0.6357   0.6481   0.8277     F
H       0.6395   0.1989   0.6699     H
H       0.6408    0.235   0.1564     H
C       0.6525   0.6905   0.6382     C
H       0.6545   0.3038   0.3181     H
C       0.6551   0.2478   0.6521     C
O       0.6578    0.286  0.14902     O
F      0.65836   0.8636  0.31926     F
C       0.6645   0.2631   0.3407     C
H     0.66666667   0.5545   0.9734     H
C       0.6734   0.0785   0.9168     C
C        0.674   0.9829   0.8671     C
C       0.6748   0.6835   0.0406     C
F      0.68085  0.94126  0.48685     F
C        0.681   0.8064   0.7815     C
H       0.6815   0.3394    0.878     H
C       0.6884   0.7126   0.7311     C
C       0.6918   0.1407   0.4118     C
C        0.699    0.757   0.4402     C
H       0.7009   0.1004   0.4353     H
Cd     0.70103   0.2516  0.02305    Cd
C       0.7024   0.3869   0.5944     C
H       0.7134   0.4278      0.8     H
H        0.715    0.326   0.1863     H
H       0.7171   0.4321   0.5722     H
C       0.7204   0.6152   0.3597     C
O       0.7238   0.1472  0.90139     O
F       0.7238   0.7482  0.61553     F
H       0.7239   0.8141   0.4876     H
H       0.7239   0.9544    0.193     H
C       0.7341    0.899   0.1583     C
C       0.7363   0.3999      0.9     C
C       0.7418   0.9735   0.8176     C
H       0.7453   0.7112    0.071     H
H       0.7456   0.9978   0.0659     H
C       0.7479   0.8878   0.7771     C
C       0.7531   0.6987   0.4296     C
C       0.7558   0.4525   0.8541     C
C       0.7586   0.3006   0.6581     C
O       0.7591   0.4847   0.2831     O
H       0.7619   0.8754   0.1948     H
C       0.7638   0.2812   0.3832     C
C       0.7761   0.2209   0.4189     C
C       0.7799   0.5531   0.3505     C
C       0.7836   0.3723   0.6305     C
H        0.785   0.0267   0.8112     H
H       0.7975   0.8847   0.7464     H
N       0.8001   0.4006   0.0388     N
C       0.8001   0.4388   0.9799     C
C       0.8018   0.7198   0.7558     C
C       0.8025   0.9803   0.0666     C
H       0.8123   0.2879   0.6811     H
H       0.8132   0.7167   0.4709     H
C       0.8136   0.9283    0.111     C
H       0.8182   0.6529   0.6416     H
H       0.8247   0.7913   0.8786     H
H       0.8346   0.7788   0.2934     H
C       0.8375   0.5421   0.8868     C
H       0.8496   0.5759   0.8537     H
O       0.8507   0.5736   0.4137     O
C        0.851   0.6805   0.6985     C
O       0.8522   0.2451    0.087     O
C       0.8547   0.7619   0.8391     C
H       0.8579   0.6469   0.2131     H
H       0.8609   0.1883   0.7934     H
O       0.8617   0.3323  0.21687     O
N       0.8617   0.3536   0.3993     N
H       0.8633   0.0406   0.9934     H
H       0.8675   0.0498   0.5051     H
C       0.8741   0.0066   0.0235     C
C       0.8772   0.4665   0.1033     C
C       0.8803   0.5293   0.0125     C
H       0.8807   0.0567   0.7088     H
H       0.8815   0.9131   0.4236     H
N       0.8827   0.2594   0.4584     N
H       0.8952   0.4596   0.1522     H
H        0.896   0.2083    0.545     H
C       0.8966   0.2856    0.163     C
C       0.8966   0.7862   0.2765     C
C       0.8981   0.4332   0.6401     C
C       0.8995   0.9046     0.11     C
C       0.9012   0.0496   0.4626     C
C       0.9014   0.5827   0.9664     C
Cd     0.90222  0.45638  0.34173    Cd
H       0.9087   0.8688   0.1387     H
C       0.9102   0.9673   0.4136     C
C       0.9106    0.707   0.2279     C
O        0.917   0.4803  0.59764     O
C       0.9224   0.1957   0.7756     C
H       0.9282   0.3513   0.8798     H
C       0.9284   0.3373   0.4444     C
N       0.9286   0.5458   0.0921     N
C       0.9347   0.2207   0.5052     C
C       0.9351   0.1165   0.7256     C
C       0.9407   0.1307   0.4498     C
H       0.9449   0.3883     0.81     H
C       0.9488   0.6823   0.7259     C
C       0.9524   0.7614   0.8655     C
H        0.956   0.6432   0.9883     H
C       0.9597   0.9632   0.3514     C
C       0.9613    0.985   0.0225     C
H       0.9683   0.9543   0.7049     H
O       0.9686    0.436   0.6923     O
H       0.9701   0.0834   0.9307     H
C       0.9722   0.9328   0.0676     C
C       0.9745   0.8772   0.3004     C
C       0.9782   0.3703   0.8489     C
H       0.9809   0.6563   0.6864     H
H       0.9857   0.7889   0.9223     H
H       0.9857   0.8189   0.6246     H
C       0.9882   0.1273   0.3863     C
H       0.9942    0.732   0.4636     H
C       0.9984   0.0457   0.3377     C
C       0.9989   0.2853   0.7994     C
H       0.9995   0.6239   0.5352     H
C       0.9997   0.2793   0.1914     C
