data_I
_chemical_name_common  '/Users/gianmarcoterrones/Research/MOFs/MOF_structures/water_stability_work_extra_structs/cleaned_from_CCDC/OTEPEJ'
_cell_length_a  8.88190
_cell_length_b 11.01820
_cell_length_c 12.57800
_cell_angle_alpha 90.00000
_cell_angle_beta  90.00000
_cell_angle_gamma 108.33400
_space_group_name_H-M_alt      'P 1'


loop_
_space_group_symop_operation_xyz
  'x, y, z' 

loop_
_atom_site_label
_atom_site_fract_x
_atom_site_fract_y
_atom_site_fract_z
_atom_site_type_symbol
O      0.02367  0.13939    0.214     O
N      0.02963    0.197  0.71632     N
O      0.03713  0.00742  0.44431     O
N      0.05149  0.37524  0.41157     N
O       0.0563  0.51316  0.78491     O
O      0.05737  0.76141  0.14057     O
N      0.07458  0.26137  0.40782     N
O      0.07736  0.55496  0.25593     O
C      0.08647   0.3163  0.74486     C
H       0.0966   0.5054    0.302     H
O      0.12162   0.9138  0.26372     O
C       0.1306  0.86781  0.17318     C
N      0.15761  0.15266  0.71747     N
H       0.1664   0.5926   0.2274     H
H       0.2179    0.795   0.7244     H
Dy    0.234209  0.12887 0.319769    Dy
O      0.23764  0.67877  0.94111     O
N      0.24345  0.35337  0.76314     N
C      0.24354  0.95953  0.10008     C
H       0.2526   0.6365   0.9944     H
H         0.27   0.7558   0.9626     H
N      0.28112  0.24557  0.74591     N
H       0.2873   0.6126   0.5625     H
N        0.297  0.93526  0.00595     N
O      0.30504  0.77883  0.72057     O
N      0.30642  0.08179  0.12667     N
O      0.32375  0.56977   0.6056     O
H       0.3331    0.486   0.9954     H
O      0.33957  0.34666  0.24989     O
Dy    0.344072 0.595018 0.794563    Dy
O      0.35559    0.002  0.42942     O
H       0.3691   0.8449   0.6921     H
N      0.38469  0.25408  0.47681     N
H       0.3882   0.5442   0.5688     H
N       0.3984  0.04677  0.97629     N
N       0.4002  0.13579  0.04752     N
O      0.40985  0.50408  0.95171     O
N      0.43737  0.37211  0.51944     N
C      0.45204  0.05626  0.49998     C
H       0.4622   0.1815   0.7686     H
H       0.4656   0.0761    0.821     H
C         0.47  0.19057  0.52299     C
H       0.4826   0.4829   0.9828     H
C      0.48617  0.39888   0.2393     C
O      0.52367  0.13939    0.786     O
N      0.52963    0.197  0.28368     N
O      0.53713  0.00742  0.55569     O
N      0.55149  0.37524  0.58843     N
O       0.5563  0.51316  0.21509     O
O      0.55737  0.76141  0.85943     O
N      0.57458  0.26137  0.59218     N
O      0.57736  0.55496  0.74407     O
C      0.58647   0.3163  0.25514     C
H       0.5966   0.5054    0.698     H
O      0.62162   0.9138  0.73628     O
C       0.6306  0.86781  0.82682     C
N      0.65761  0.15266  0.28253     N
H       0.6664   0.5926   0.7726     H
H       0.7179    0.795   0.2756     H
Dy    0.734209  0.12887 0.680231    Dy
O      0.73764  0.67877  0.05889     O
N      0.74345  0.35337  0.23686     N
C      0.74354  0.95953  0.89992     C
H       0.7526   0.6365   0.0056     H
H         0.77   0.7558   0.0374     H
N      0.78112  0.24557  0.25409     N
H       0.7873   0.6126   0.4375     H
N        0.797  0.93526  0.99405     N
O      0.80504  0.77883  0.27943     O
N      0.80642  0.08179  0.87333     N
O      0.82375  0.56977   0.3944     O
H       0.8331    0.486   0.0046     H
O      0.83957  0.34666  0.75011     O
Dy    0.844072 0.595018 0.205437    Dy
O      0.85559    0.002  0.57058     O
H       0.8691   0.8449   0.3079     H
N      0.88469  0.25408  0.52319     N
H       0.8882   0.5442   0.4312     H
N       0.8984  0.04677  0.02371     N
N       0.9002  0.13579  0.95248     N
O      0.90985  0.50408  0.04829     O
N      0.93737  0.37211  0.48056     N
C      0.95204  0.05626  0.50002     C
H       0.9622   0.1815   0.2314     H
H       0.9656   0.0761    0.179     H
C         0.97  0.19057  0.47701     C
H       0.9826   0.4829   0.0172     H
C      0.98617  0.39888   0.7607     C
