data_I
_chemical_name_common  '/Users/gianmarcoterrones/Research/MOFs/MOF_structures/water_stability_work_extra_structs/cleaned_from_CoRE/OWUHEV_clean'
_cell_length_a 13.31390
_cell_length_b 13.89700
_cell_length_c 17.73000
_cell_angle_alpha 81.53000
_cell_angle_beta  79.14400
_cell_angle_gamma 84.14400
_space_group_name_H-M_alt      'P 1'


loop_
_space_group_symop_operation_xyz
  'x, y, z' 

loop_
_atom_site_label
_atom_site_fract_x
_atom_site_fract_y
_atom_site_fract_z
_atom_site_type_symbol
C       0.0039   0.6514   0.0491     C
C       0.0099   0.6589   0.1238     C
C       0.0119   0.1024   0.7774     C
H       0.0217   0.1441   0.6282     H
O        0.024   0.8521  0.51018     O
O       0.0255    0.727  0.59919     O
H       0.0287   0.1069    0.827     H
C       0.0369   0.1998   0.6459     C
C        0.037   0.1954   0.7233     C
O       0.0495   0.6159  0.87337     O
O       0.0503   0.2057   0.2397     O
H       0.0512   0.0477   0.7561     H
H       0.0531    0.611   0.0217     H
C       0.0566   0.8108   0.5686     C
N       0.0568   0.2778    0.594     N
H       0.0599   0.9061   0.2168     H
C       0.0603   0.2791   0.7504     C
O       0.0603   0.6031  0.74742     O
H       0.0637   0.6256   0.1459     H
C       0.0642   0.2837   0.8327     C
Co      0.0675  0.32589  0.29084    Co
N       0.0692   0.3008   0.9863     N
Co     0.07227   0.2778  0.47647    Co
C       0.0751   0.3583   0.6211     C
C       0.0752   0.3617   0.6977     C
H       0.0758   0.0688   0.3372     H
H       0.0852   0.4199   0.7142     H
Co     0.08662  0.31972  0.09651    Co
H       0.0885   0.4143   0.5862     H
O       0.0894   0.4514  0.33081     O
C       0.0933   0.5882   0.8104     C
O       0.1143   0.4128   0.4525     O
H       0.1177   0.9912   0.5425     H
C       0.1198   0.1588   0.1988     C
C       0.1205   0.4691   0.3885     C
C       0.1326   0.8556    0.602     C
C       0.1354   0.0379    0.312     C
C       0.1431   0.2485    0.944     C
C       0.1458   0.2371   0.8673     C
O       0.1481   0.1847   0.1267     O
O       0.1516   0.3826   0.1869     O
C       0.1522   0.9532   0.5788     C
H       0.1561   0.9381   0.4011     H
C       0.1669   0.5642   0.3829     C
H       0.1704   0.6025   0.2686     H
O       0.1737    0.444   0.0691     O
C       0.1747   0.0711    0.236     C
H       0.1754   0.7347   0.6709     H
H       0.1763    0.557   0.4971     H
C       0.1838   0.9602     0.35     C
H       0.1858   0.5054   0.9261     H
C       0.1865   0.8003   0.6559     C
C       0.1881   0.6215   0.3123     C
C       0.1923   0.5938   0.4488     C
C       0.1937   0.5288   0.8106     C
H       0.1965   0.2176   0.9679     H
O       0.1985    0.193   0.4493     O
O       0.2012   0.2574   0.3261     O
C       0.2102    0.424   0.1304     C
H       0.2139   0.1192   0.8178     H
C       0.2239   0.9931   0.6107     C
C       0.2254   0.4916   0.8793     C
C       0.2346    0.181   0.8246     C
C       0.2354    0.707   0.3059     C
H        0.236   0.5347   0.6946     H
H       0.2372   0.0581   0.5948     H
C       0.2405   0.2046   0.3782     C
C       0.2416   0.6789   0.4404     C
H        0.247    0.746   0.2583     H
C       0.2554   0.8418   0.6868     C
C       0.2556   0.5082   0.7414     C
H       0.2574   0.2171   0.7749     H
H       0.2594   0.6991   0.4836     H
C         0.26   0.0239   0.1992     C
C       0.2652   0.7351   0.3677     C
C       0.2724   0.9131   0.3153     C
C       0.2754   0.9393   0.6648     C
H       0.2849   0.0437   0.1472     H
H       0.2895   0.1707   0.8538     H
H       0.2897   0.8041   0.7233     H
C       0.2902   0.4822   0.1443     C
H       0.3003   0.5747    0.047     H
H       0.3065   0.4074   0.2497     H
C       0.3102    0.946   0.2393     C
C       0.3182   0.4325   0.8786     C
C       0.3246    0.826   0.3587     C
C       0.3256   0.5588   0.0931     C
H       0.3297    0.841   0.4095     H
C       0.3303   0.4587    0.213     C
H       0.3305   0.9788   0.7553     H
H       0.3392   0.4071   0.9251     H
C       0.3447   0.1539   0.3565     C
C       0.3457   0.4487   0.7412     C
H       0.3485   0.0723   0.4596     H
H       0.3517   0.0538     0.68     H
C       0.3517   0.9849   0.6995     C
H       0.3694   0.2143   0.2475     H
H       0.3702   0.9156   0.2143     H
C       0.3771   0.4123   0.8105     C
H       0.3849   0.4334   0.6947     H
C       0.3861   0.0868   0.4101     C
H       0.3935    0.813   0.3309     H
C        0.398   0.1718   0.2848     C
C        0.398   0.6131    0.108     C
C       0.4062   0.5134   0.2251     C
H       0.4189 0.66666667   0.0726     H
H       0.4346   0.4969   0.2698     H
C         0.44   0.5907   0.1731     C
C       0.4594   0.9374   0.6805     C
H       0.4659   0.8601   0.7844     H
H       0.4689    0.294   0.8494     H
C       0.4784   0.3506   0.8104     C
C       0.4816   0.0415   0.3914     C
H       0.4928   0.0046    0.572     H
C       0.4974   0.1264   0.2656     C
H       0.4992   0.6722   0.2397     H
H       0.5008   0.3278   0.7603     H
C       0.5026   0.8736   0.7344     C
H       0.5072   0.9954    0.428     H
C       0.5184   0.9585   0.6086     C
C       0.5216   0.6494   0.1896     C
H       0.5311    0.706   0.1506     H
H       0.5341   0.1399   0.2156     H
C       0.5406   0.0626   0.3195     C
C         0.56   0.4093   0.8269     C
H       0.5654   0.5031   0.7302     H
H       0.5811 0.33333333   0.9274     H
C       0.5938   0.4866   0.7749     C
C        0.602   0.3869    0.892     C
C        0.602   0.8282   0.7152     C
H       0.6065    0.187   0.6691     H
C       0.6139   0.9132   0.5899     C
H       0.6151   0.5666   0.3053     H
C       0.6229   0.5877   0.1895     C
H       0.6298   0.0844   0.7857     H
H       0.6306   0.7857   0.7525     H
C       0.6483   0.0151   0.3005     C
H       0.6483   0.9462     0.32     H
H       0.6515   0.9277   0.5404     H
C       0.6543   0.5513   0.2588     C
C       0.6553   0.8461   0.6435     C
H       0.6608   0.5929   0.0749     H
H       0.6695   0.0212   0.2447     H
C       0.6697   0.5413    0.787     C
H       0.6703    0.159   0.5905     H
C       0.6744   0.4412   0.9069     C
C       0.6754    0.174   0.6413     C
C       0.6818   0.5675   0.1214     C
C       0.6898    0.054   0.7607     C
H       0.6935   0.5926   0.7503     H
H       0.6997   0.4253    0.953     H
C       0.7098   0.5178   0.8557     C
H       0.7103   0.1959   0.2767     H
H       0.7105   0.8293   0.1462     H
H       0.7151   0.9563   0.8528     H
C       0.7246   0.0607   0.3352     C
C       0.7276   0.0869   0.6847     C
C       0.7348   0.2649   0.6323     C
C         0.74   0.9761   0.8008     C
H       0.7406   0.3009   0.5164     H
H       0.7426   0.7829   0.2251     H
C       0.7444   0.4918   0.2586     C
C       0.7446   0.1582   0.3132     C
H        0.753    0.254   0.7417     H
C       0.7584   0.3211   0.5596     C
C       0.7595   0.7954   0.6218     C
H       0.7628   0.9419   0.4052     H
H        0.764   0.4653   0.3054     H
C       0.7646    0.293   0.6941     C
C       0.7654    0.819   0.1754     C
C       0.7746   0.5084   0.1207     C
C       0.7761   0.0069   0.3893     C
H       0.7861   0.8808   0.1822     H
C       0.7898    0.576   0.8696     C
O       0.7981   0.5859   0.9372     O
O       0.7988   0.7426   0.6739     O
O       0.8015    0.807   0.5507     O
H       0.8035   0.7824   0.0321     H
C       0.8063   0.4712   0.1894     C
C       0.8077   0.4062   0.5512     C
C       0.8119   0.3785   0.6877     C
C       0.8135   0.1997   0.3441     C
H       0.8142   0.4946   0.0739     H
C       0.8162   0.0398     0.65     C
H       0.8237    0.443   0.5029     H
H       0.8246   0.2653   0.3291     H
C       0.8253   0.9289    0.764     C
H       0.8296   0.3975   0.7314     H
O       0.8317   0.6364   0.8172     O
C       0.8331   0.4358   0.6171     C
H       0.8439   0.0619   0.5989     H
C       0.8478   0.0468   0.4212     C
O       0.8519   0.8153   0.8733     O
C       0.8542   0.7629   0.1327     C
C       0.8569   0.7515    0.056     C
C       0.8646   0.9621    0.688     C
C       0.8674   0.1444    0.398     C
C       0.8795   0.5309   0.6115     C
C       0.8802   0.8412   0.8012     C
H       0.8823   0.0088   0.4575     H
O       0.8857   0.5872   0.5475     O
C       0.9067   0.4118   0.1896     C
O       0.9106   0.5486  0.66919     O
H       0.9115   0.5857   0.4138     H
Co     0.91338  0.68028  0.90349    Co
H       0.9148   0.5801   0.2858     H
H       0.9242   0.9312   0.6628     H
C       0.9248   0.6383   0.3023     C
C       0.9249   0.6417   0.3789     C
Co     0.92773   0.7222  0.52353    Co
N       0.9308   0.6992   0.0137     N
Co      0.9325  0.67411  0.70916    Co
C       0.9358   0.7163   0.1673     C
H       0.9363   0.3744   0.8541     H
O       0.9397   0.3969  0.25258     O
C       0.9397   0.7209   0.2496     C
H       0.9401   0.0939   0.7832     H
N       0.9432   0.7222    0.406     N
C       0.9434   0.1892   0.4314     C
H       0.9469    0.389   0.9783     H
H       0.9488   0.9523   0.2439     H
O       0.9497   0.7943   0.7603     O
O       0.9505   0.3841  0.12663     O
C        0.963   0.8046   0.2767     C
C       0.9631   0.8002   0.3541     C
H       0.9713   0.8931    0.173     H
O       0.9745    0.273  0.40081     O
O        0.976   0.1479  0.48982     O
H       0.9783   0.8559   0.3718     H
C       0.9881   0.8976   0.2226     C
C       0.9901   0.3411   0.8762     C
C       0.9961   0.3486   0.9509     C
