data_I
_chemical_name_common  '/Users/gianmarcoterrones/Research/MOFs/MOF_structures/water_stability_work_extra_structs/cleaned_from_CoRE/PAFXUS_clean'
_cell_length_a 16.88510
_cell_length_b 19.36730
_cell_length_c 29.58150
_cell_angle_alpha 90.00000
_cell_angle_beta  90.00000
_cell_angle_gamma 90.00000
_space_group_name_H-M_alt      'P 1'


loop_
_space_group_symop_operation_xyz
  'x, y, z' 

loop_
_atom_site_label
_atom_site_fract_x
_atom_site_fract_y
_atom_site_fract_z
_atom_site_type_symbol
H       0.0074   0.1233   0.9805     H
H       0.0074   0.3767   0.4805     H
H       0.0086   0.6768   0.9366     H
H       0.0086   0.8232   0.4366     H
C       0.0102   0.0041   0.9297     C
C       0.0102   0.4959   0.4297     C
O       0.0138   0.6367    0.085     O
O       0.0138   0.8633    0.585     O
C       0.0144   0.5721   0.0823     C
C       0.0144   0.9279   0.5823     C
N       0.0151   0.0531  0.09076     N
N       0.0151   0.4469  0.59076     N
H       0.0205   0.6373   0.3788     H
H       0.0205   0.8627   0.8788     H
O       0.0338   0.7204   0.4648     O
O       0.0338   0.7796   0.9648     O
C       0.0382   0.5972   0.3929     C
C       0.0382   0.9028   0.8929     C
H        0.042   0.6308   0.9768     H
H        0.042   0.8692   0.4768     H
C       0.0431   0.6097   0.5283     C
C       0.0431   0.8903   0.0283     C
O       0.0436   0.7369    0.992     O
O       0.0436   0.7631    0.492     O
O      0.04565  0.03603  0.41836     O
O      0.04565  0.46397  0.91836     O
C       0.0465   0.7076   0.9472     C
C       0.0465   0.7924   0.4472     C
C       0.0533   0.5513  0.55374     C
C       0.0533   0.9487  0.05374     C
H       0.0568   0.0504   0.6121     H
H       0.0568   0.4496   0.1121     H
C       0.0644   0.6744   0.9739     C
C       0.0644   0.8256   0.4739     C
C       0.0907   0.0182  0.93409     C
C       0.0907   0.4818  0.43409     C
C       0.0939    0.537   0.0836     C
C       0.0939    0.963   0.5836     C
C       0.0999   0.7115   0.4915     C
C       0.0999   0.7885   0.9915     C
C       0.1015   0.0265  0.60242     C
C       0.1015   0.4735  0.10242     C
H       0.1082   0.0573   0.9493     H
H       0.1082   0.4427   0.4493     H
C       0.1095    0.649   0.5156     C
C       0.1095    0.851   0.0156     C
C       0.1188   0.5859   0.3959     C
C       0.1188   0.9141   0.8959     C
H       0.1252   0.5683    0.758     H
H       0.1252   0.9317    0.258     H
N      0.12646  0.53036  0.56633     N
N      0.12646  0.96964  0.06633     N
H       0.1273   0.5463   0.8344     H
H       0.1273   0.9537   0.3344     H
C       0.1285   0.6971   0.9506     C
C       0.1285   0.8029   0.4506     C
C       0.1291   0.5232   0.7686     C
C       0.1291   0.9768   0.2686     C
C       0.1308   0.5096   0.8143     C
C       0.1308   0.9904   0.3143     C
C       0.1335    0.032  0.23864     C
C       0.1335    0.468  0.73864     C
H       0.1351   0.0286   0.7185     H
H       0.1351   0.4714   0.2185     H
C        0.136   0.0209   0.1878     C
C        0.136   0.4791   0.6878     C
O       0.1371   0.5385  0.67304     O
O       0.1371   0.9615  0.17304     O
N       0.1372   0.0544   0.3307     N
N       0.1372   0.4456   0.8307     N
C       0.1389   0.0519   0.7459     C
C       0.1389   0.4481   0.2459     C
H       0.1394   0.2367   0.2669     H
H       0.1394   0.2633   0.7669     H
H       0.1396   0.1561    0.729     H
H       0.1396   0.3439    0.229     H
C       0.1398   0.0977  0.25544     C
C       0.1398   0.4023  0.75544     C
C       0.1401   0.1075  0.30234     C
C       0.1401   0.3925  0.80234     C
O       0.1404   0.0745  0.16482     O
O       0.1404   0.4255  0.66482     O
C       0.1407   0.1231   0.7518     C
C       0.1407   0.3769   0.2518     C
Zn     0.14089  0.06209  0.09905    Zn
Zn     0.14089  0.43791  0.59905    Zn
C       0.1424   0.2378  0.29827     C
C       0.1424   0.2622  0.79827     C
C       0.1435   0.0232   0.7866     C
C       0.1435   0.4768   0.2866     C
H       0.1437   0.5238   0.2928     H
C       0.1437   0.5276  0.41521     C
C       0.1437   0.9724  0.91521     C
H       0.1437   0.9762   0.7928     H
Zn     0.14374  0.08406  0.40238    Zn
Zn     0.14374  0.41594  0.90238    Zn
C       0.1439   0.1771  0.32261     C
C       0.1439   0.3229  0.82261     C
H        0.144   0.1352    0.236     H
H        0.144   0.3648    0.736     H
C       0.1445   0.1353    0.796     C
C       0.1445   0.3647    0.296     C
C       0.1455   0.1994   0.8208     C
C       0.1455   0.3006   0.3208     C
O       0.1458   0.1061   0.0264     O
O       0.1458   0.3939   0.5264     O
N      0.14755  0.17689   0.3677     N
N      0.14755  0.32311   0.8677     N
O       0.1478   0.0755   0.8181     O
O       0.1478   0.4245   0.3181     O
C       0.1494   0.2001  0.86798     C
C       0.1494   0.2999  0.36798     C
C       0.1498   0.2371  0.38978     C
C       0.1498   0.2629  0.88978     C
N       0.1507   0.1629  0.45492     N
N       0.1507   0.3371  0.95492     N
C       0.1511   0.1611   0.0448     C
C       0.1511   0.3389   0.5448     C
H       0.1517   0.1591   0.8843     H
H       0.1517   0.3409   0.3843     H
C       0.1522    0.229  0.43968     C
C       0.1522    0.271  0.93968     C
C       0.1523   0.1523   0.4988     C
C       0.1523   0.3477   0.9988     C
H        0.153   0.1072   0.5095     H
H        0.153   0.3928   0.0095     H
C       0.1531   0.2067   0.5299     C
C       0.1531   0.2933   0.0299     C
H       0.1532   0.1977   0.5608     H
H       0.1532   0.3023   0.0608     H
O       0.1536   0.1709  0.08528     O
O       0.1536   0.3291  0.58528     O
C       0.1539   0.2261   0.0144     C
C       0.1539   0.2739   0.5144     C
C       0.1542   0.2157  0.96848     C
C       0.1542   0.2843  0.46848     C
H       0.1547   0.6181   0.3848     H
H       0.1547   0.8819   0.8848     H
H       0.1557   0.1711   0.9569     H
H       0.1557   0.3289   0.4569     H
C       0.1582   0.7424   0.9813     C
C       0.1582   0.7576   0.4813     C
H       0.1583   0.6659    0.932     H
H       0.1583   0.8341    0.432     H
H       0.1585   0.6117   0.0523     H
H       0.1585   0.8883   0.5523     H
H        0.159   0.6534   0.9403     H
H        0.159   0.8466   0.4403     H
C        0.162    0.569   0.0665     C
C        0.162    0.931   0.5665     C
C       0.1754   0.0553  0.60721     C
C       0.1754   0.4447  0.10721     C
H       0.1803   0.0976   0.6219     H
H       0.1803   0.4024   0.1219     H
C       0.1842   0.6262  0.52908     C
C       0.1842   0.8738  0.02908     C
C         0.19   0.5664  0.55427     C
C         0.19   0.9336  0.05427     C
H       0.2091    0.742   0.9932     H
H       0.2091    0.758   0.4932     H
O       0.2206   0.5578  0.90573     O
O       0.2206   0.9422  0.40573     O
H       0.2294   0.6509   0.5212     H
H       0.2294   0.8491   0.0212     H
C       0.2325   0.5115   0.4145     C
C       0.2325   0.9885   0.9145     C
C       0.2336   0.5366  0.07083     C
C       0.2336   0.9634  0.57083     C
N       0.2408   0.0243  0.59136     N
N       0.2408   0.4757  0.09136     N
O      0.24994  0.05172  0.91916     O
O      0.24994  0.44828  0.41916     O
O      0.25006  0.05172  0.41916     O
O      0.25006  0.44828  0.91916     O
N       0.2592   0.0243  0.09136     N
N       0.2592   0.4757  0.59136     N
C       0.2664   0.5366  0.57083     C
C       0.2664   0.9634  0.07083     C
C       0.2675   0.5115   0.9145     C
C       0.2675   0.9885   0.4145     C
H       0.2706   0.6509   0.0212     H
H       0.2706   0.8491   0.5212     H
O       0.2794   0.5578  0.40573     O
O       0.2794   0.9422  0.90573     O
H       0.2909    0.742   0.4932     H
H       0.2909    0.758   0.9932     H
H       0.2944   0.7157   0.9544     H
H       0.2944   0.7843   0.4544     H
C         0.31   0.5664  0.05427     C
C         0.31   0.9336  0.55427     C
C       0.3158   0.6262  0.02908     C
C       0.3158   0.8738  0.52908     C
H       0.3197   0.0976   0.1219     H
H       0.3197   0.4024   0.6219     H
C       0.3246   0.0553  0.10721     C
C       0.3246   0.4447  0.60721     C
C        0.338    0.569   0.5665     C
C        0.338    0.931   0.0665     C
H        0.341   0.6534   0.4403     H
H        0.341   0.8466   0.9403     H
H       0.3415   0.6117   0.5523     H
C       0.3415   0.7367   0.9632     C
C       0.3415   0.7633   0.4632     C
H       0.3415   0.8883   0.0523     H
H       0.3417   0.6659    0.432     H
H       0.3417   0.8341    0.932     H
H       0.3443   0.1711   0.4569     H
H       0.3443   0.3289   0.9569     H
H       0.3453   0.6181   0.8848     H
H       0.3453   0.8819   0.3848     H
C       0.3458   0.2157  0.46848     C
C       0.3458   0.2843  0.96848     C
C       0.3461   0.2261   0.5144     C
C       0.3461   0.2739   0.0144     C
O       0.3464   0.1709  0.58528     O
O       0.3464   0.3291  0.08528     O
H       0.3468   0.1977   0.0608     H
H       0.3468   0.3023   0.5608     H
C       0.3469   0.2067   0.0299     C
C       0.3469   0.2933   0.5299     C
H        0.347   0.1072   0.0095     H
H        0.347   0.3928   0.5095     H
C       0.3477   0.1523   0.9988     C
C       0.3477   0.3477   0.4988     C
C       0.3478    0.229  0.93968     C
C       0.3478    0.271  0.43968     C
H       0.3483   0.1591   0.3843     H
H       0.3483   0.3409   0.8843     H
C       0.3489   0.1611   0.5448     C
C       0.3489   0.3389   0.0448     C
N       0.3493   0.1629  0.95492     N
N       0.3493   0.3371  0.45492     N
C       0.3502   0.2371  0.88978     C
C       0.3502   0.2629  0.38978     C
C       0.3506   0.2001  0.36798     C
C       0.3506   0.2999  0.86798     C
O       0.3522   0.0755   0.3181     O
O       0.3522   0.4245   0.8181     O
N      0.35245  0.17689   0.8677     N
N      0.35245  0.32311   0.3677     N
O       0.3542   0.1061   0.5264     O
O       0.3542   0.3939   0.0264     O
C       0.3545   0.1994   0.3208     C
C       0.3545   0.3006   0.8208     C
C       0.3555   0.1353    0.296     C
C       0.3555   0.3647    0.796     C
H        0.356   0.1352    0.736     H
H        0.356   0.3648    0.236     H
C       0.3561   0.1771  0.82261     C
C       0.3561   0.3229  0.32261     C
Zn     0.35626  0.08406  0.90238    Zn
Zn     0.35626  0.41594  0.40238    Zn
H       0.3563   0.5238   0.7928     H
C       0.3563   0.5276  0.91521     C
C       0.3563   0.9724  0.41521     C
H       0.3563   0.9762   0.2928     H
C       0.3565   0.0232   0.2866     C
C       0.3565   0.4768   0.7866     C
C       0.3576   0.2378  0.79827     C
C       0.3576   0.2622  0.29827     C
Zn     0.35911  0.06209  0.59905    Zn
Zn     0.35911  0.43791  0.09905    Zn
C       0.3593   0.1231   0.2518     C
C       0.3593   0.3769   0.7518     C
O       0.3596   0.0745  0.66482     O
O       0.3596   0.4255  0.16482     O
C       0.3599   0.1075  0.80234     C
C       0.3599   0.3925  0.30234     C
C       0.3602   0.0977  0.75544     C
C       0.3602   0.4023  0.25544     C
H       0.3604   0.1561    0.229     H
H       0.3604   0.3439    0.729     H
H       0.3606   0.2367   0.7669     H
H       0.3606   0.2633   0.2669     H
C       0.3611   0.0519   0.2459     C
C       0.3611   0.4481   0.7459     C
N       0.3628   0.0544   0.8307     N
N       0.3628   0.4456   0.3307     N
O       0.3629   0.5385  0.17304     O
O       0.3629   0.9615  0.67304     O
C        0.364   0.0209   0.6878     C
C        0.364   0.4791   0.1878     C
H       0.3649   0.0286   0.2185     H
H       0.3649   0.4714   0.7185     H
C       0.3665    0.032  0.73864     C
C       0.3665    0.468  0.23864     C
C       0.3692   0.5096   0.3143     C
C       0.3692   0.9904   0.8143     C
C       0.3709   0.5232   0.2686     C
C       0.3709   0.9768   0.7686     C
C       0.3715   0.6971   0.4506     C
C       0.3715   0.8029   0.9506     C
H       0.3727   0.5463   0.3344     H
H       0.3727   0.9537   0.8344     H
N      0.37354  0.53036  0.06633     N
N      0.37354  0.96964  0.56633     N
H       0.3748   0.5683    0.258     H
H       0.3748   0.9317    0.758     H
C       0.3812   0.5859   0.8959     C
C       0.3812   0.9141   0.3959     C
C       0.3905    0.649   0.0156     C
C       0.3905    0.851   0.5156     C
H       0.3918   0.0573   0.4493     H
H       0.3918   0.4427   0.9493     H
C       0.3985   0.0265  0.10242     C
C       0.3985   0.4735  0.60242     C
C       0.4001   0.7115   0.9915     C
C       0.4001   0.7885   0.4915     C
C       0.4061    0.537   0.5836     C
C       0.4061    0.963   0.0836     C
C       0.4093   0.0182  0.43409     C
C       0.4093   0.4818  0.93409     C
C       0.4356   0.6744   0.4739     C
C       0.4356   0.8256   0.9739     C
H       0.4432   0.0504   0.1121     H
H       0.4432   0.4496   0.6121     H
C       0.4467   0.5513  0.05374     C
C       0.4467   0.9487  0.55374     C
C       0.4535   0.7076   0.4472     C
C       0.4535   0.7924   0.9472     C
O      0.45435  0.03603  0.91836     O
O      0.45435  0.46397  0.41836     O
O       0.4564   0.7369    0.492     O
O       0.4564   0.7631    0.992     O
C       0.4569   0.6097   0.0283     C
C       0.4569   0.8903   0.5283     C
H        0.458   0.6308   0.4768     H
H        0.458   0.8692   0.9768     H
C       0.4618   0.5972   0.8929     C
C       0.4618   0.9028   0.3929     C
O       0.4662   0.7204   0.9648     O
O       0.4662   0.7796   0.4648     O
H       0.4795   0.6373   0.8788     H
H       0.4795   0.8627   0.3788     H
N       0.4849   0.0531  0.59076     N
N       0.4849   0.4469  0.09076     N
C       0.4856   0.5721   0.5823     C
C       0.4856   0.9279   0.0823     C
O       0.4862   0.6367    0.585     O
O       0.4862   0.8633    0.085     O
C       0.4898   0.0041   0.4297     C
C       0.4898   0.4959   0.9297     C
H       0.4914   0.6768   0.4366     H
H       0.4914   0.8232   0.9366     H
H       0.4926   0.1233   0.4805     H
H       0.4926   0.3767   0.9805     H
H       0.5074   0.6233   0.0195     H
H       0.5074   0.8767   0.5195     H
H       0.5086   0.1768   0.0634     H
H       0.5086   0.3232   0.5634     H
C       0.5102   0.5041   0.0703     C
C       0.5102   0.9959   0.5703     C
O       0.5138   0.1367    0.915     O
O       0.5138   0.3633    0.415     O
C       0.5144   0.0721   0.9177     C
C       0.5144   0.4279   0.4177     C
N       0.5151   0.5531  0.90924     N
N       0.5151   0.9469  0.40924     N
H       0.5205   0.1373   0.6212     H
H       0.5205   0.3627   0.1212     H
O       0.5338   0.2204   0.5352     O
O       0.5338   0.2796   0.0352     O
C       0.5382   0.0972   0.6071     C
C       0.5382   0.4028   0.1071     C
H        0.542   0.1308   0.0232     H
H        0.542   0.3692   0.5232     H
C       0.5431   0.1097   0.4717     C
C       0.5431   0.3903   0.9717     C
O       0.5436   0.2369    0.008     O
O       0.5436   0.2631    0.508     O
O      0.54565  0.53603  0.58164     O
O      0.54565  0.96397  0.08164     O
C       0.5465   0.2076   0.0528     C
C       0.5465   0.2924   0.5528     C
C       0.5533   0.0513  0.44626     C
C       0.5533   0.4487  0.94626     C
H       0.5568   0.5504   0.3879     H
H       0.5568   0.9496   0.8879     H
C       0.5644   0.1744   0.0261     C
C       0.5644   0.3256   0.5261     C
C       0.5907   0.5182  0.06591     C
C       0.5907   0.9818  0.56591     C
C       0.5939    0.037   0.9164     C
C       0.5939    0.463   0.4164     C
C       0.5999   0.2115   0.5085     C
C       0.5999   0.2885   0.0085     C
C       0.6015   0.5265  0.39758     C
C       0.6015   0.9735  0.89758     C
H       0.6082   0.5573   0.0507     H
H       0.6082   0.9427   0.5507     H
C       0.6095    0.149   0.4844     C
C       0.6095    0.351   0.9844     C
C       0.6188   0.0859   0.6041     C
C       0.6188   0.4141   0.1041     C
H       0.6252   0.0683    0.242     H
H       0.6252   0.4317    0.742     H
N      0.62646  0.03036  0.43367     N
N      0.62646  0.46964  0.93367     N
H       0.6273   0.0463   0.1656     H
H       0.6273   0.4537   0.6656     H
C       0.6285   0.1971   0.0494     C
C       0.6285   0.3029   0.5494     C
C       0.6291   0.0232   0.2314     C
C       0.6291   0.4768   0.7314     C
C       0.6308   0.0096   0.1857     C
C       0.6308   0.4904   0.6857     C
C       0.6335    0.532  0.76136     C
C       0.6335    0.968  0.26136     C
H       0.6351   0.5286   0.2815     H
H       0.6351   0.9714   0.7815     H
C        0.636   0.5209   0.8122     C
C        0.636   0.9791   0.3122     C
O       0.6371   0.0385  0.32696     O
O       0.6371   0.4615  0.82696     O
N       0.6372   0.5544   0.6693     N
N       0.6372   0.9456   0.1693     N
C       0.6389   0.5519   0.2541     C
C       0.6389   0.9481   0.7541     C
H       0.6394   0.7367   0.7331     H
H       0.6394   0.7633   0.2331     H
H       0.6396   0.6561    0.271     H
H       0.6396   0.8439    0.771     H
C       0.6398   0.5977  0.74456     C
C       0.6398   0.9023  0.24456     C
C       0.6401   0.6075  0.69766     C
C       0.6401   0.8925  0.19766     C
O       0.6404   0.5745  0.83518     O
O       0.6404   0.9255  0.33518     O
C       0.6407   0.6231   0.2482     C
C       0.6407   0.8769   0.7482     C
Zn     0.64089  0.56209  0.90095    Zn
Zn     0.64089  0.93791  0.40095    Zn
C       0.6424   0.7378  0.70173     C
C       0.6424   0.7622  0.20173     C
C       0.6435   0.5232   0.2134     C
C       0.6435   0.9768   0.7134     C
H       0.6437   0.0238   0.7072     H
C       0.6437   0.0276  0.58479     C
C       0.6437   0.4724  0.08479     C
H       0.6437   0.4762   0.2072     H
Zn     0.64374  0.58406  0.59762    Zn
Zn     0.64374  0.91594  0.09762    Zn
C       0.6439   0.6771  0.67739     C
C       0.6439   0.8229  0.17739     C
H        0.644   0.6352    0.764     H
H        0.644   0.8648    0.264     H
C       0.6445   0.6353    0.204     C
C       0.6445   0.8647    0.704     C
C       0.6455   0.6994   0.1792     C
C       0.6455   0.8006   0.6792     C
O       0.6458   0.6061   0.9736     O
O       0.6458   0.8939   0.4736     O
N      0.64755  0.67689   0.6323     N
N      0.64755  0.82311   0.1323     N
O       0.6478   0.5755   0.1819     O
O       0.6478   0.9245   0.6819     O
C       0.6494   0.7001  0.13202     C
C       0.6494   0.7999  0.63202     C
C       0.6498   0.7371  0.61022     C
C       0.6498   0.7629  0.11022     C
N       0.6507   0.6629  0.54508     N
N       0.6507   0.8371  0.04508     N
C       0.6511   0.6611   0.9552     C
C       0.6511   0.8389   0.4552     C
H       0.6517   0.6591   0.1157     H
H       0.6517   0.8409   0.6157     H
C       0.6522    0.729  0.56032     C
C       0.6522    0.771  0.06032     C
C       0.6523   0.6523   0.5012     C
C       0.6523   0.8477   0.0012     C
H        0.653   0.6072   0.4905     H
H        0.653   0.8928   0.9905     H
C       0.6531   0.7067   0.4701     C
C       0.6531   0.7933   0.9701     C
H       0.6532   0.6977   0.4392     H
H       0.6532   0.8023   0.9392     H
O       0.6536   0.6709  0.91472     O
O       0.6536   0.8291  0.41472     O
C       0.6539   0.7261   0.9856     C
C       0.6539   0.7739   0.4856     C
C       0.6542   0.7157  0.03152     C
C       0.6542   0.7843  0.53152     C
H       0.6547   0.1181   0.6152     H
H       0.6547   0.3819   0.1152     H
H       0.6557   0.6711   0.0431     H
H       0.6557   0.8289   0.5431     H
C       0.6582   0.2424   0.0187     C
C       0.6582   0.2576   0.5187     C
H       0.6583   0.1659    0.068     H
H       0.6583   0.3341    0.568     H
H       0.6585   0.1117   0.9477     H
H       0.6585   0.3883   0.4477     H
H        0.659   0.1534   0.0597     H
H        0.659   0.3466   0.5597     H
C        0.662    0.069   0.9335     C
C        0.662    0.431   0.4335     C
C       0.6754   0.5553  0.39279     C
C       0.6754   0.9447  0.89279     C
H       0.6803   0.5976   0.3781     H
H       0.6803   0.9024   0.8781     H
C       0.6842   0.1262  0.47092     C
C       0.6842   0.3738  0.97092     C
C         0.69   0.0664  0.44573     C
C         0.69   0.4336  0.94573     C
H       0.7091    0.242   0.0068     H
H       0.7091    0.258   0.5068     H
O       0.7206   0.0578  0.09427     O
O       0.7206   0.4422  0.59427     O
H       0.7294   0.1509   0.4788     H
H       0.7294   0.3491   0.9788     H
C       0.7325   0.0115   0.5855     C
C       0.7325   0.4885   0.0855     C
C       0.7336   0.0366  0.92917     C
C       0.7336   0.4634  0.42917     C
N       0.7408   0.5243  0.40864     N
N       0.7408   0.9757  0.90864     N
O      0.74994  0.55172  0.08084     O
O      0.74994  0.94828  0.58084     O
O      0.75006  0.55172  0.58084     O
O      0.75006  0.94828  0.08084     O
N       0.7592   0.5243  0.90864     N
N       0.7592   0.9757  0.40864     N
C       0.7664   0.0366  0.42917     C
C       0.7664   0.4634  0.92917     C
C       0.7675   0.0115   0.0855     C
C       0.7675   0.4885   0.5855     C
H       0.7706   0.1509   0.9788     H
H       0.7706   0.3491   0.4788     H
O       0.7794   0.0578  0.59427     O
O       0.7794   0.4422  0.09427     O
H       0.7909    0.242   0.5068     H
H       0.7909    0.258   0.0068     H
H       0.7944   0.2157   0.0456     H
H       0.7944   0.2843   0.5456     H
C         0.81   0.0664  0.94573     C
C         0.81   0.4336  0.44573     C
C       0.8158   0.1262  0.97092     C
C       0.8158   0.3738  0.47092     C
H       0.8197   0.5976   0.8781     H
H       0.8197   0.9024   0.3781     H
C       0.8246   0.5553  0.89279     C
C       0.8246   0.9447  0.39279     C
C        0.838    0.069   0.4335     C
C        0.838    0.431   0.9335     C
H        0.841   0.1534   0.5597     H
H        0.841   0.3466   0.0597     H
H       0.8415   0.1117   0.4477     H
C       0.8415   0.2367   0.0368     C
C       0.8415   0.2633   0.5368     C
H       0.8415   0.3883   0.9477     H
H       0.8417   0.1659    0.568     H
H       0.8417   0.3341    0.068     H
H       0.8443   0.6711   0.5431     H
H       0.8443   0.8289   0.0431     H
H       0.8453   0.1181   0.1152     H
H       0.8453   0.3819   0.6152     H
C       0.8458   0.7157  0.53152     C
C       0.8458   0.7843  0.03152     C
C       0.8461   0.7261   0.4856     C
C       0.8461   0.7739   0.9856     C
O       0.8464   0.6709  0.41472     O
O       0.8464   0.8291  0.91472     O
H       0.8468   0.6977   0.9392     H
H       0.8468   0.8023   0.4392     H
C       0.8469   0.7067   0.9701     C
C       0.8469   0.7933   0.4701     C
H        0.847   0.6072   0.9905     H
H        0.847   0.8928   0.4905     H
C       0.8477   0.6523   0.0012     C
C       0.8477   0.8477   0.5012     C
C       0.8478    0.729  0.06032     C
C       0.8478    0.771  0.56032     C
H       0.8483   0.6591   0.6157     H
H       0.8483   0.8409   0.1157     H
C       0.8489   0.6611   0.4552     C
C       0.8489   0.8389   0.9552     C
N       0.8493   0.6629  0.04508     N
N       0.8493   0.8371  0.54508     N
C       0.8502   0.7371  0.11022     C
C       0.8502   0.7629  0.61022     C
C       0.8506   0.7001  0.63202     C
C       0.8506   0.7999  0.13202     C
O       0.8522   0.5755   0.6819     O
O       0.8522   0.9245   0.1819     O
N      0.85245  0.67689   0.1323     N
N      0.85245  0.82311   0.6323     N
O       0.8542   0.6061   0.4736     O
O       0.8542   0.8939   0.9736     O
C       0.8545   0.6994   0.6792     C
C       0.8545   0.8006   0.1792     C
C       0.8555   0.6353    0.704     C
C       0.8555   0.8647    0.204     C
H        0.856   0.6352    0.264     H
H        0.856   0.8648    0.764     H
C       0.8561   0.6771  0.17739     C
C       0.8561   0.8229  0.67739     C
Zn     0.85626  0.58406  0.09762    Zn
Zn     0.85626  0.91594  0.59762    Zn
H       0.8563   0.0238   0.2072     H
C       0.8563   0.0276  0.08479     C
C       0.8563   0.4724  0.58479     C
H       0.8563   0.4762   0.7072     H
C       0.8565   0.5232   0.7134     C
C       0.8565   0.9768   0.2134     C
C       0.8576   0.7378  0.20173     C
C       0.8576   0.7622  0.70173     C
Zn     0.85911  0.56209  0.40095    Zn
Zn     0.85911  0.93791  0.90095    Zn
C       0.8593   0.6231   0.7482     C
C       0.8593   0.8769   0.2482     C
O       0.8596   0.5745  0.33518     O
O       0.8596   0.9255  0.83518     O
C       0.8599   0.6075  0.19766     C
C       0.8599   0.8925  0.69766     C
C       0.8602   0.5977  0.24456     C
C       0.8602   0.9023  0.74456     C
H       0.8604   0.6561    0.771     H
H       0.8604   0.8439    0.271     H
H       0.8606   0.7367   0.2331     H
H       0.8606   0.7633   0.7331     H
C       0.8611   0.5519   0.7541     C
C       0.8611   0.9481   0.2541     C
N       0.8628   0.5544   0.1693     N
N       0.8628   0.9456   0.6693     N
O       0.8629   0.0385  0.82696     O
O       0.8629   0.4615  0.32696     O
C        0.864   0.5209   0.3122     C
C        0.864   0.9791   0.8122     C
H       0.8649   0.5286   0.7815     H
H       0.8649   0.9714   0.2815     H
C       0.8665    0.532  0.26136     C
C       0.8665    0.968  0.76136     C
C       0.8692   0.0096   0.6857     C
C       0.8692   0.4904   0.1857     C
C       0.8709   0.0232   0.7314     C
C       0.8709   0.4768   0.2314     C
C       0.8715   0.1971   0.5494     C
C       0.8715   0.3029   0.0494     C
H       0.8727   0.0463   0.6656     H
H       0.8727   0.4537   0.1656     H
N      0.87354  0.03036  0.93367     N
N      0.87354  0.46964  0.43367     N
H       0.8748   0.0683    0.742     H
H       0.8748   0.4317    0.242     H
C       0.8812   0.0859   0.1041     C
C       0.8812   0.4141   0.6041     C
C       0.8905    0.149   0.9844     C
C       0.8905    0.351   0.4844     C
H       0.8918   0.5573   0.5507     H
H       0.8918   0.9427   0.0507     H
C       0.8985   0.5265  0.89758     C
C       0.8985   0.9735  0.39758     C
C       0.9001   0.2115   0.0085     C
C       0.9001   0.2885   0.5085     C
C       0.9061    0.037   0.4164     C
C       0.9061    0.463   0.9164     C
C       0.9093   0.5182  0.56591     C
C       0.9093   0.9818  0.06591     C
C       0.9356   0.1744   0.5261     C
C       0.9356   0.3256   0.0261     C
H       0.9432   0.5504   0.8879     H
H       0.9432   0.9496   0.3879     H
C       0.9467   0.0513  0.94626     C
C       0.9467   0.4487  0.44626     C
C       0.9535   0.2076   0.5528     C
C       0.9535   0.2924   0.0528     C
O      0.95435  0.53603  0.08164     O
O      0.95435  0.96397  0.58164     O
O       0.9564   0.2369    0.508     O
O       0.9564   0.2631    0.008     O
C       0.9569   0.1097   0.9717     C
C       0.9569   0.3903   0.4717     C
H        0.958   0.1308   0.5232     H
H        0.958   0.3692   0.0232     H
C       0.9618   0.0972   0.1071     C
C       0.9618   0.4028   0.6071     C
O       0.9662   0.2204   0.0352     O
O       0.9662   0.2796   0.5352     O
H       0.9795   0.1373   0.1212     H
H       0.9795   0.3627   0.6212     H
N       0.9849   0.5531  0.40924     N
N       0.9849   0.9469  0.90924     N
C       0.9856   0.0721   0.4177     C
C       0.9856   0.4279   0.9177     C
O       0.9862   0.1367    0.415     O
O       0.9862   0.3633    0.915     O
C       0.9898   0.5041   0.5703     C
C       0.9898   0.9959   0.0703     C
H       0.9914   0.1768   0.5634     H
H       0.9914   0.3232   0.0634     H
H       0.9926   0.6233   0.5195     H
H       0.9926   0.8767   0.0195     H
