data_I
_chemical_name_common  '/Users/gianmarcoterrones/Downloads/Pb2(p-PDA)(PTPTP)2'
_cell_length_a  8.72442
_cell_length_b  8.85272
_cell_length_c 15.04530
_cell_angle_alpha 75.67300
_cell_angle_beta  86.86300
_cell_angle_gamma 83.90300
_space_group_name_H-M_alt      'P 1'


loop_
_space_group_symop_operation_xyz
  'x, y, z' 

loop_
_atom_site_label
_atom_site_fract_x
_atom_site_fract_y
_atom_site_fract_z
_atom_site_type_symbol
C       0.0092   0.5022  0.41001     C
H       0.0142   0.5073   0.3474     H
H       0.0196   0.2036   0.1006     H
H       0.0243   0.3836   0.1906     H
H       0.0743   0.7932   0.5946     H
C     0.076216 0.605115  0.53408     C
C     0.077314 0.289113  0.08258     C
C     0.080914 0.396514  0.13558     C
C     0.088518 0.605317  0.44341     C
N     0.095913 0.090511  0.93667     N
N     0.125713 0.042313  0.85667     N
H       0.1496   0.6738   0.4036     H
C       0.1532 0.727914  0.56971     C
H       0.1552   0.9969   0.3787     H
C     0.167313 0.316614  0.99838     C
C     0.167913 0.522815  0.10708     C
C     0.168513 0.218713  0.93157     C
H       0.1701   0.5957   0.1419     H
H       0.1849   0.9685   0.6906     H
H       0.2063   0.7947   0.5192     H
C     0.217013 0.145113  0.80688     C
C       0.2202   0.0263 0.327513     C
O      0.22151 0.610411  0.72727     O
N     0.234618   0.9372 0.270513     N
N     0.247811 0.255511  0.85137     N
C       0.2512 0.044717  0.66441     C
N      0.25341 0.437111  0.96907     N
C     0.253613 0.537614  0.02308     C
C     0.269116 0.645413  0.64518     C
H       0.2735    0.222   0.3634     H
C     0.286114 0.148213  0.71438     C
C       0.2932   0.1643 0.319411     C
N       0.3092 0.051816  0.57829     N
C     0.332817 0.987716 0.197411     C
C     0.349113 0.667213  0.98468     C
H       0.3492   0.9307    0.153     H
N     0.372513 0.781411  0.02827     N
N     0.380013 0.259113  0.68147     N
N     0.389016 0.211216  0.24948     N
C     0.405918 0.164217  0.54601     C
C     0.409115 0.122416  0.18769     C
O     0.409311 0.619311  0.62227     O
N     0.418211 0.687411  0.89997     N
Pb    0.428275 0.470445 0.806103    Pb
C     0.435318 0.269315  0.59649     C
H       0.4539   0.1713   0.4886     H
N     0.464713 0.874911  0.96697     N
C     0.489813 0.817414  0.89098     C
H       0.4959   0.3498   0.5697     H
H       0.5041   0.6502   0.4303     H
C     0.510213 0.182614  0.10918     C
N     0.535313 0.125111  0.03317     N
H       0.5461   0.8287   0.5114     H
C     0.564718 0.730715  0.40369     C
Pb    0.571735 0.529565 0.193903    Pb
N     0.581811 0.312611  0.10017     N
O     0.590711 0.380711  0.37787     O
C     0.590915 0.877616  0.81249     C
C     0.594118 0.835817  0.45401     C
N     0.611016 0.788816  0.75068     N
N     0.620013 0.740913  0.31867     N
N     0.627513 0.218611  0.97187     N
H       0.6508   0.0693    0.847     H
C     0.650913 0.332813  0.01548     C
C     0.667217 0.012316 0.802611     C
N       0.6912 0.948216  0.42189     N
C       0.7072   0.8363 0.680611     C
C     0.713914 0.851813  0.28578     C
H       0.7265    0.778   0.6366     H
C     0.730916 0.354613  0.35498     C
C     0.746413 0.462414  0.97708     C
N      0.74661 0.562911  0.03107     N
C       0.7492 0.955317  0.33561     C
N     0.752211 0.744511  0.14877     N
N     0.765418   0.0632 0.729513     N
O      0.77851 0.389611  0.27287     O
C       0.7802   0.9743 0.672513     C
C     0.783013 0.854913  0.19328     C
H       0.7937   0.2053   0.4808     H
H       0.8151   0.0315   0.3094     H
H       0.8299   0.4043   0.8581     H
C     0.831513 0.781313  0.06857     C
C     0.832113 0.477215  0.89308     C
C     0.832713 0.683414  0.00178     C
H       0.8448   0.0031   0.6213     H
C       0.8472 0.272114  0.43031     C
H       0.8504   0.3262   0.5964     H
N     0.874313 0.957713  0.14347     N
N     0.904113 0.909511  0.06347     N
C     0.911518 0.394717  0.55661     C
C     0.919114 0.603514  0.86458     C
C     0.922714 0.710913  0.91758     C
C     0.923816 0.394915  0.46608     C
H       0.9257   0.2068   0.4054     H
H       0.9757   0.6164   0.8094     H
H       0.9804   0.7964   0.8994     H
H       0.9858   0.4927   0.6526     H
C       0.9912   0.4982  0.59001     C
