data_I
_chemical_name_common  '/Users/gianmarcoterrones/Downloads/Pb4(o-PDA)2(PTPTP)2'
_cell_length_a 12.54930
_cell_length_b 25.72750
_cell_length_c  9.05152
_cell_angle_alpha 90.00000
_cell_angle_beta  105.60300
_cell_angle_gamma 90.00000
_space_group_name_H-M_alt      'P 1'


loop_
_space_group_symop_operation_xyz
  'x, y, z' 

loop_
_atom_site_label
_atom_site_fract_x
_atom_site_fract_y
_atom_site_fract_z
_atom_site_type_symbol
H       0.0241     0.63   0.7891     H
H       0.0241     0.87   0.2891     H
H       0.0326   0.1355   0.2745     H
H       0.0326   0.3645   0.7745     H
H       0.0329   0.5396   0.8156     H
H       0.0329   0.9604   0.3156     H
H       0.0423   0.5421   0.3148     H
H       0.0423   0.9579   0.8148     H
N     0.054615  0.21067   0.2712     N
N     0.054615  0.28947   0.7712     N
C     0.073713  0.61475 0.873018     C
C     0.073713  0.88535 0.373018     C
C     0.074516  0.16287   0.3282     C
C     0.074516  0.33727   0.8282     C
C     0.079713  0.56085 0.887916     C
C     0.079713  0.93925 0.387916     C
H       0.0932   0.2178   0.8207     H
H       0.0932   0.2822   0.3207     H
H       0.0947   0.0404   0.9076     H
H       0.0947   0.4596   0.4076     H
C     0.097013  0.53787 0.406418     C
C     0.097013  0.96227 0.906418     C
C       0.1092  0.24797   0.3513     C
C       0.1092  0.25217   0.8513     C
H       0.1252   0.6138   0.4536     H
H       0.1252   0.8862   0.9536     H
N      0.12609  0.05574 0.440014     N
N      0.12609  0.44434 0.940014     N
C     0.129311  0.01167 0.961615     C
C     0.129311  0.48847 0.461615     C
H       0.1402   0.6817   0.9805     H
H       0.1402   0.8183   0.4805     H
C     0.143214  0.64565 0.985716     C
C     0.143214  0.85445 0.485716     C
C     0.146913  0.58057   0.4892     C
C     0.146913  0.91957   0.9892     C
C     0.153513  0.15185 0.460517     C
C     0.153513  0.34825 0.960517     C
C     0.155911  0.53965 0.010915     C
C     0.155911  0.96045 0.510915     C
C     0.173511  0.01655 0.534314     C
C     0.173511  0.48355 0.034314     C
C     0.175713  0.09755 0.515216     C
C     0.175713  0.40255 0.015216     C
H       0.1805   0.0944   0.1431     H
H       0.1805   0.4056   0.6431     H
C     0.192417  0.23637   0.4842     C
C     0.192417  0.26377   0.9842     C
C     0.213111  0.01865 0.097315     C
C     0.213111  0.48145 0.597315     C
C     0.215613  0.62064 0.103715     C
C     0.215613  0.87944 0.603715     C
N     0.215913  0.18815 0.539617     N
N     0.215913  0.31195 0.039617     N
N      0.22379  0.56944 0.121113     N
N      0.22379  0.93064 0.621113     N
C     0.230113  0.57407 0.626517     C
C     0.230113  0.92607 0.126517     C
H       0.2343   0.2363   0.0365     H
H       0.2343   0.2637   0.5365     H
C     0.246313  0.07455 0.143717     C
C     0.246313  0.42555 0.643717     C
N      0.24931  0.03374 0.662313     N
N      0.24931  0.46634 0.162313     N
N      0.25099  0.08624 0.651013     N
N      0.25099  0.41384 0.151013     N
H       0.2626   0.6032   0.6812     H
H       0.2626   0.8968   0.1812     H
C     0.265511  0.52375 0.683616     C
C     0.265511  0.97635 0.183616     C
O      0.28561  0.14654 0.994414     O
O      0.28561  0.35354 0.494414     O
H        0.294   0.0748   0.2477     H
H        0.294   0.4252   0.7477     H
C     0.296613  0.65035 0.225916     C
C     0.296613  0.84975 0.725916     C
N      0.30341  0.70344 0.246215     N
N      0.30341  0.79664 0.746215     N
C     0.305611  0.10074 0.039615     C
C     0.305611  0.39934 0.539615     C
H       0.3333   0.6975   0.7864     H
H       0.3333   0.8025   0.2864     H
H       0.3464   0.0092    0.385     H
H       0.3464   0.4908    0.885     H
C     0.358411  0.51997 0.823416     C
C     0.358411  0.98017 0.323416     C
H       0.3622   0.5513   0.8838     H
H       0.3622   0.9487   0.3838     H
Pb    0.362344 0.52614217 0.353276    Pb
Pb    0.362344 0.97385817 0.853276    Pb
N      0.37191  0.62514 0.333314     N
N      0.37191  0.87494 0.833314     N
O      0.38088  0.07514 0.997211     O
O      0.38088  0.42494 0.497211     O
C     0.387813  0.70685 0.371415     C
C     0.387813  0.79325 0.871415     C
C     0.389214  0.69715 0.877818     C
C     0.389214  0.80295 0.377818     C
H       0.3899   0.1986   0.2757     H
H       0.3899   0.3014   0.7757     H
Pb    0.414175 0.13902219 0.823496    Pb
Pb    0.414175 0.36097819 0.323496    Pb
N     0.426813  0.65074 0.943316     N
N     0.426813  0.84934 0.443316     N
C     0.432613  0.74405 0.944316     C
C     0.432613  0.75605 0.444316     C
N      0.43281  0.66084 0.429113     N
N      0.43281  0.83924 0.929113     N
C     0.447216  0.19957   0.3662     C
C     0.447216  0.30057   0.8662     C
C     0.463311  0.51275 0.783016     C
C     0.463311  0.98735 0.283016     C
H       0.4663   0.1217   0.3833     H
H       0.4663   0.3783   0.8833     H
O      0.48148  0.52784 0.184811     O
O      0.48148  0.97224 0.684811     O
N     0.482711  0.24544 0.428114     N
N     0.482711  0.25464 0.928114     N
O      0.49328  0.54784 0.698913     O
O      0.49328  0.95224 0.198913     O
C     0.493715  0.15275   0.4322     C
C     0.493715  0.34735   0.9322     C
C     0.506315  0.65275   0.0682     C
C     0.506315  0.84735   0.5682     C
O      0.50688  0.04784 0.801113     O
O      0.50688  0.45224 0.301113     O
N     0.517311  0.74544 0.071914     N
N     0.517311  0.75464 0.571914     N
O      0.51868  0.02784 0.315211     O
O      0.51868  0.47224 0.815211     O
H       0.5337   0.6217   0.1167     H
H       0.5337   0.8783   0.6167     H
C     0.536711  0.01275 0.717016     C
C     0.536711  0.48735 0.217016     C
C     0.552816  0.69957   0.1342     C
C     0.552816  0.80057   0.6342     C
N      0.56721  0.16084 0.070913     N
N      0.56721  0.33924 0.570913     N
C     0.567413  0.24405 0.555716     C
C     0.567413  0.25605 0.055716     C
N     0.573213  0.15074 0.556716     N
N     0.573213  0.34934 0.056716     N
Pb    0.585835 0.63902219 0.676516    Pb
Pb    0.585835 0.86097819 0.176516    Pb
H       0.6101   0.6986   0.2243     H
H       0.6101   0.8014   0.7243     H
C     0.610814  0.19715 0.622218     C
C     0.610814  0.30295 0.122218     C
C     0.612213  0.20685 0.128615     C
C     0.612213  0.29325 0.628615     C
O      0.61928  0.57514 0.502811     O
O      0.61928  0.92494 0.002811     O
N      0.62811  0.12514 0.166714     N
N      0.62811  0.37494 0.666714     N
Pb    0.637664 0.02614217 0.146736    Pb
Pb    0.637664 0.47385817 0.646736    Pb
H       0.6378   0.0513   0.6162     H
H       0.6378   0.4487   0.1162     H
C     0.641611  0.01997 0.676616     C
C     0.641611  0.48017 0.176616     C
H       0.6536   0.5092    0.115     H
H       0.6536   0.9908    0.615     H
H       0.6667   0.1975   0.7136     H
H       0.6667   0.3025   0.2136     H
C     0.694411  0.60074 0.460415     C
C     0.694411  0.89934 0.960415     C
N      0.69661  0.20344 0.253815     N
N      0.69661  0.29664 0.753815     N
C     0.703413  0.15035 0.274116     C
C     0.703413  0.34975 0.774116     C
H        0.706   0.5748   0.2523     H
H        0.706   0.9252   0.7523     H
O      0.71441  0.64654 0.505614     O
O      0.71441  0.85354 0.005614     O
C     0.734511  0.02375 0.816416     C
C     0.734511  0.47635 0.316416     C
H       0.7374   0.1032   0.8188     H
H       0.7374   0.3968   0.3188     H
N      0.74919  0.58624 0.849013     N
N      0.74919  0.91384 0.349013     N
N      0.75071  0.53374 0.837713     N
N      0.75071  0.96634 0.337713     N
C     0.753713  0.57455 0.356317     C
C     0.753713  0.92555 0.856317     C
H       0.7657   0.7363   0.4635     H
H       0.7657   0.7637   0.9635     H
C     0.769913  0.07407 0.873517     C
C     0.769913  0.42607 0.373517     C
N      0.77639  0.06944 0.378913     N
N      0.77639  0.43064 0.878913     N
N     0.784113  0.68815 0.960417     N
N     0.784113  0.81195 0.460417     N
C     0.784413  0.12064 0.396315     C
C     0.784413  0.37944 0.896315     C
C     0.786911  0.51865 0.402715     C
C     0.786911  0.98145 0.902715     C
C     0.807617  0.73637   0.0162     C
C     0.807617  0.76377   0.5162     C
H       0.8195   0.5944   0.3569     H
H       0.8195   0.9056   0.8569     H
C     0.824313  0.59755 0.984816     C
C     0.824313  0.90255 0.484816     C
C     0.826511  0.51655 0.965714     C
C     0.826511  0.98355 0.465714     C
C     0.844111  0.03965 0.489115     C
C     0.844111  0.46045 0.989115     C
C     0.846513  0.65185 0.039517     C
C     0.846513  0.84825 0.539517     C
C     0.853113  0.08057   0.0112     C
C     0.853113  0.41957   0.5112     C
C     0.856814  0.14565 0.514316     C
C     0.856814  0.35445 0.014316     C
H       0.8598   0.1817   0.5195     H
H       0.8598   0.3183   0.0195     H
C     0.870711  0.51167 0.538415     C
C     0.870711  0.98847 0.038415     C
N      0.87409  0.55574 0.060014     N
N      0.87409  0.94434 0.560014     N
H       0.8748   0.1138   0.0464     H
H       0.8748   0.3862   0.5464     H
C       0.8912  0.74797   0.1493     C
C       0.8912  0.75217   0.6493     C
C     0.903013  0.03787 0.093618     C
C     0.903013  0.46227 0.593618     C
H       0.9053   0.5404   0.5924     H
H       0.9053   0.9596   0.0924     H
H       0.9068   0.7178   0.6793     H
H       0.9068   0.7822   0.1793     H
C     0.920313  0.06085 0.612116     C
C     0.920313  0.43925 0.112116     C
C     0.925516  0.66287   0.1722     C
C     0.925516  0.83727   0.6722     C
C     0.926313  0.11475 0.627018     C
C     0.926313  0.38535 0.127018     C
N     0.945415  0.71067   0.2292     N
N     0.945415  0.78947   0.7292     N
H       0.9577   0.0421   0.1852     H
H       0.9577   0.4579   0.6852     H
H       0.9671   0.0396   0.6844     H
H       0.9671   0.4604   0.1844     H
H       0.9674   0.6355   0.2255     H
H       0.9674   0.8645   0.7255     H
H       0.9759     0.13   0.7109     H
H       0.9759     0.37   0.2109     H
