data_I
_chemical_name_common  '/Users/gianmarcoterrones/Downloads/PCN-222(Fe)'
_cell_length_a 41.96870
_cell_length_b 41.96870
_cell_length_c 17.14320
_cell_angle_alpha 90.00000
_cell_angle_beta  90.00000
_cell_angle_gamma 120.00000
_space_group_name_H-M_alt      'P 1'


loop_
_space_group_symop_operation_xyz
  'x, y, z' 

loop_
_atom_site_label
_atom_site_fract_x
_atom_site_fract_y
_atom_site_fract_z
_atom_site_type_symbol
O          0.0 0.4054111  0.09184     O
O          0.0 0.4054111  0.90824     O
Zr         0.0 0.45797513 0.102663    Zr
Zr         0.0 0.45797513 0.897343    Zr
O          0.0 0.4614812  0.23094     O
O          0.0 0.4614812  0.76914     O
O          0.0 0.5385212  0.23094     O
O          0.0 0.5385212  0.76914     O
Zr         0.0 0.54202513 0.102663    Zr
Zr         0.0 0.54202513 0.897343    Zr
O          0.0 0.5945911  0.09184     O
O          0.0 0.5945911  0.90824     O
O     0.0328911 0.5164413  0.10314     O
O     0.0328911 0.5164413  0.89694     O
O     0.0338511 0.4740412      0.0     O
O     0.0338511 0.5598117      0.0     O
O     0.055328 0.469059 0.1434818     O
O     0.055328 0.469059 0.8565218     O
O     0.055328 0.5862713 0.1434818     O
O     0.055328 0.5862713 0.8565218     O
Zr    0.06764318 0.533823      0.0    Zr
H       0.0842   0.4455   0.2363     H
H       0.0842   0.4455   0.7637     H
H       0.0842   0.6387   0.2363     H
H       0.0842   0.6387   0.7637     H
C     0.0876812 0.4936014  0.13144     C
C     0.0876812 0.4936014  0.86864     C
C     0.0876812 0.5940819  0.13144     C
C     0.0876812 0.5940819  0.86864     C
O     0.098737 0.517608 0.0789216     O
O     0.098737 0.517608 0.9210816     O
O     0.098737 0.5811311 0.0789216     O
O     0.098737 0.5811311 0.9210816     O
C     0.1077914 0.4670116  0.23814     C
C     0.1077914 0.4670116  0.76194     C
C     0.1077914  0.64083  0.23814     C
C     0.1077914  0.64083  0.76194     C
C     0.1166212 0.4959214  0.18762     C
C     0.1166212 0.4959214  0.81242     C
C     0.1166212 0.6207019  0.18762     C
C     0.1166212 0.6207019  0.81242     C
H       0.1283   0.4496   0.3245     H
H       0.1283   0.4496   0.6755     H
H       0.1283   0.6787   0.3245     H
H       0.1283   0.6787   0.6755     H
H       0.1332   0.5031    0.428     H
H       0.1332   0.5031    0.572     H
H       0.1332   0.6301    0.428     H
H       0.1332   0.6301    0.572     H
C     0.1339616 0.4699118  0.29134     C
C     0.1339616 0.4699118  0.70874     C
C     0.1339616  0.66403  0.29134     C
C     0.1339616  0.66403  0.70874     C
C     0.1501912 0.5266514  0.19192     C
C     0.1501912 0.5266514  0.80812     C
C     0.1501912 0.6235419  0.19192     C
C     0.1501912 0.6235419  0.80812     C
C     0.1514114  0.50302  0.46074     C
C     0.1514114  0.50302  0.53934     C
C     0.1514114  0.64843  0.46074     C
C     0.1514114  0.64843  0.53934     C
H       0.1564   0.5468   0.1577     H
H       0.1564   0.5468   0.8423     H
H       0.1564   0.6096   0.1577     H
H       0.1564   0.6096   0.8423     H
C     0.1670113 0.5004817  0.29754     C
C     0.1670113 0.5004817  0.70254     C
C     0.1670113  0.66653  0.29754     C
C     0.1670113  0.66653  0.70254     C
C     0.1756913 0.5284816  0.24724     C
C     0.1756913 0.5284816  0.75284     C
C     0.1756913  0.64723  0.24724     C
C     0.1756913  0.64723  0.75284     C
C     0.1839213 0.5028717  0.43542     C
C     0.1839213 0.5028717  0.56462     C
C     0.1839213  0.68103  0.43542     C
C     0.1839213  0.68103  0.56462     C
C     0.1934813 0.5022617  0.35812     C
C     0.1934813 0.5022617  0.64192     C
C     0.1934813  0.69123  0.35812     C
C     0.1934813  0.69123  0.64192     C
H       0.1995   0.5497   0.2494     H
H       0.1995   0.5497   0.7506     H
H       0.1995   0.6498   0.2494     H
H       0.1995   0.6498   0.7506     H
N     0.2043214  0.50292      0.5     N
N     0.2043214  0.70143      0.5     N
H       0.2201   0.4981   0.2089     H
H       0.2201   0.4981   0.7911     H
H       0.2201    0.722   0.2089     H
H       0.2201    0.722   0.7911     H
C     0.2248713 0.5025818  0.33332     C
C     0.2248713 0.5025818  0.66672     C
C     0.2248713  0.72233  0.33332     C
C     0.2248713  0.72233  0.66672     C
C     0.2341513 0.4996917  0.25362     C
C     0.2341513 0.4996917  0.74642     C
C     0.2341513  0.73453  0.25362     C
C     0.2341513  0.73453  0.74642     C
N     0.252029  0.74803  0.38244     N
N     0.252029  0.74803  0.61764     N
N      0.25203  0.50412  0.38244     N
N      0.25203  0.50412  0.61764     N
Fe    0.256003 0.744008      0.5    Fe
Fe    0.256008 0.512007      0.5    Fe
C      0.26553 0.4996917  0.25362     C
C      0.26553 0.4996917  0.74642     C
C      0.26553 0.7658513  0.25362     C
C      0.26553 0.7658513  0.74642     C
C      0.27773 0.5025818  0.33332     C
C      0.27773 0.5025818  0.66672     C
C      0.27773 0.7751313  0.33332     C
C      0.27773 0.7751313  0.66672     C
H        0.278   0.4981   0.2089     H
H        0.278   0.4981   0.7911     H
H        0.278   0.7799   0.2089     H
H        0.278   0.7799   0.7911     H
Cl    0.2885216 0.5770414      0.5    Cl
Cl    0.288527 0.7114816      0.5    Cl
N      0.29863  0.50292      0.5     N
N      0.29863 0.7956814      0.5     N
C      0.30883 0.5022617  0.35812     C
C      0.30883 0.5022617  0.64192     C
C      0.30883 0.8065213  0.35812     C
C      0.30883 0.8065213  0.64192     C
C      0.31903 0.5028717  0.43542     C
C      0.31903 0.5028717  0.56462     C
C      0.31903 0.8160813  0.43542     C
C      0.31903 0.8160813  0.56462     C
H       0.3213   0.4496   0.3245     H
H       0.3213   0.4496   0.6755     H
H       0.3213   0.8717   0.3245     H
H       0.3213   0.8717   0.6755     H
C      0.33353 0.5004817  0.29754     C
C      0.33353 0.5004817  0.70254     C
C      0.33353 0.8329913  0.29754     C
C      0.33353 0.8329913  0.70254     C
C      0.33603 0.4699118  0.29134     C
C      0.33603 0.4699118  0.70874     C
C      0.33603 0.8660416  0.29134     C
C      0.33603 0.8660416  0.70874     C
H       0.3502   0.5497   0.2494     H
H       0.3502   0.5497   0.7506     H
H       0.3502   0.8005   0.2494     H
H       0.3502   0.8005   0.7506     H
C      0.35163  0.50302  0.46074     C
C      0.35163  0.50302  0.53934     C
C      0.35163 0.8485914  0.46074     C
C      0.35163 0.8485914  0.53934     C
C      0.35283 0.5284816  0.24724     C
C      0.35283 0.5284816  0.75284     C
C      0.35283 0.8243113  0.24724     C
C      0.35283 0.8243113  0.75284     C
C      0.35923 0.4670116  0.23814     C
C      0.35923 0.4670116  0.76194     C
C      0.35923 0.8922114  0.23814     C
C      0.35923 0.8922114  0.76194     C
H       0.3613   0.4455   0.2363     H
H       0.3613   0.4455   0.7637     H
H       0.3613   0.9158   0.2363     H
H       0.3613   0.9158   0.7637     H
H       0.3699   0.5031    0.428     H
H       0.3699   0.5031    0.572     H
H       0.3699   0.8668    0.428     H
H       0.3699   0.8668    0.572     H
C     0.3764619 0.5266514  0.19192     C
C     0.3764619 0.5266514  0.80812     C
C     0.3764619 0.8498112  0.19192     C
C     0.3764619 0.8498112  0.80812     C
C     0.3793019 0.4959214  0.18762     C
C     0.3793019 0.4959214  0.81242     C
C     0.3793019 0.8833812  0.18762     C
C     0.3793019 0.8833812  0.81242     C
H       0.3904   0.5468   0.1577     H
H       0.3904   0.5468   0.8423     H
H       0.3904   0.8436   0.1577     H
H       0.3904   0.8436   0.8423     H
O     0.4054111      0.0  0.09184     O
O     0.4054111      0.0  0.90824     O
O     0.4054111 0.4054111  0.09184     O
O     0.4054111 0.4054111  0.90824     O
C     0.4059219 0.4936014  0.13144     C
C     0.4059219 0.4936014  0.86864     C
C     0.4059219 0.9123212  0.13144     C
C     0.4059219 0.9123212  0.86864     C
O     0.4137313 0.469059 0.1434818     O
O     0.4137313 0.469059 0.8565218     O
O     0.4137313 0.944688 0.1434818     O
O     0.4137313 0.944688 0.8565218     O
O     0.4188711 0.517608 0.0789216     O
O     0.4188711 0.517608 0.9210816     O
O     0.4188711 0.901277 0.0789216     O
O     0.4188711 0.901277 0.9210816     O
Cl    0.4229614 0.711487      0.5    Cl
O     0.4401917 0.4740412      0.0     O
O     0.4401917 0.9661511      0.0     O
H       0.4455   0.0842   0.2363     H
H       0.4455   0.0842   0.7637     H
H       0.4455   0.3613   0.2363     H
H       0.4455   0.3613   0.7637     H
H       0.4496   0.1283   0.3245     H
H       0.4496   0.1283   0.6755     H
H       0.4496   0.3213   0.3245     H
H       0.4496   0.3213   0.6755     H
H       0.4503   0.6498   0.2494     H
H       0.4503   0.6498   0.7506     H
H       0.4503   0.8005   0.2494     H
H       0.4503   0.8005   0.7506     H
H       0.4532   0.6096   0.1577     H
H       0.4532   0.6096   0.8423     H
H       0.4532   0.8436   0.1577     H
H       0.4532   0.8436   0.8423     H
Zr    0.45797513      0.0 0.102663    Zr
Zr    0.45797513      0.0 0.897343    Zr
Zr    0.45797513 0.45797513 0.102663    Zr
Zr    0.45797513 0.45797513 0.897343    Zr
O     0.4614812      0.0  0.23094     O
O     0.4614812      0.0  0.76914     O
O     0.4614812 0.4614812  0.23094     O
O     0.4614812 0.4614812  0.76914     O
Zr    0.4661799 0.93235718      0.0    Zr
Zr    0.466183 0.5338219      0.0    Zr
C     0.4670116 0.1077914  0.23814     C
C     0.4670116 0.1077914  0.76194     C
C     0.4670116  0.35923  0.23814     C
C     0.4670116  0.35923  0.76194     C
O     0.469059 0.055328 0.1434818     O
O     0.469059 0.055328 0.8565218     O
O     0.469059 0.4137313 0.1434818     O
O     0.469059 0.4137313 0.8565218     O
C     0.4699118 0.1339616  0.29134     C
C     0.4699118 0.1339616  0.70874     C
C     0.4699118  0.33603  0.29134     C
C     0.4699118  0.33603  0.70874     C
C     0.4715216  0.64723  0.24724     C
C     0.4715216  0.64723  0.75284     C
C     0.4715216 0.8243113  0.24724     C
C     0.4715216 0.8243113  0.75284     C
C     0.4733514 0.6235419  0.19192     C
C     0.4733514 0.6235419  0.80812     C
C     0.4733514 0.8498112  0.19192     C
C     0.4733514 0.8498112  0.80812     C
O     0.4740412 0.0338511      0.0     O
O     0.4740412 0.4401917      0.0     O
O     0.482408 0.5811311 0.0789216     O
O     0.482408 0.5811311 0.9210816     O
O     0.482408 0.901277 0.0789216     O
O     0.482408 0.901277 0.9210816     O
O     0.483556 0.9671111  0.10314     O
O     0.483556 0.9671111  0.89694     O
O     0.4835613 0.516456  0.10314     O
O     0.4835613 0.516456  0.89694     O
Fe    0.488007 0.744003      0.5    Fe
C     0.4936014 0.0876812  0.13144     C
C     0.4936014 0.0876812  0.86864     C
C     0.4936014 0.4059219  0.13144     C
C     0.4936014 0.4059219  0.86864     C
N      0.49592 0.747989  0.38244     N
N      0.49592 0.747989  0.61764     N
C     0.4959214 0.1166212  0.18762     C
C     0.4959214 0.1166212  0.81242     C
C     0.4959214 0.3793019  0.18762     C
C     0.4959214 0.3793019  0.81242     C
H       0.4969   0.6301    0.428     H
H       0.4969   0.6301    0.572     H
H       0.4969   0.8668    0.428     H
H       0.4969   0.8668    0.572     H
C      0.49702  0.64843  0.46074     C
C      0.49702  0.64843  0.53934     C
C      0.49702 0.8485914  0.46074     C
C      0.49702 0.8485914  0.53934     C
N      0.49712  0.70143      0.5     N
N      0.49712 0.7956814      0.5     N
C     0.4971317  0.68103  0.43542     C
C     0.4971317  0.68103  0.56462     C
C     0.4971317 0.8160813  0.43542     C
C     0.4971317 0.8160813  0.56462     C
C     0.4974218  0.72233  0.33332     C
C     0.4974218  0.72233  0.66672     C
C     0.4974218 0.7751313  0.33332     C
C     0.4974218 0.7751313  0.66672     C
C     0.4977417  0.69123  0.35812     C
C     0.4977417  0.69123  0.64192     C
C     0.4977417 0.8065213  0.35812     C
C     0.4977417 0.8065213  0.64192     C
H       0.4981   0.2201   0.2089     H
H       0.4981   0.2201   0.7911     H
H       0.4981    0.278   0.2089     H
H       0.4981    0.278   0.7911     H
C     0.4995217  0.66653  0.29754     C
C     0.4995217  0.66653  0.70254     C
C     0.4995217 0.8329913  0.29754     C
C     0.4995217 0.8329913  0.70254     C
C     0.4996917 0.2341513  0.25362     C
C     0.4996917 0.2341513  0.74642     C
C     0.4996917  0.26553  0.25362     C
C     0.4996917  0.26553  0.74642     C
C     0.5003117  0.73453  0.25362     C
C     0.5003117  0.73453  0.74642     C
C     0.5003117 0.7658513  0.25362     C
C     0.5003117 0.7658513  0.74642     C
C     0.5004817 0.1670113  0.29754     C
C     0.5004817 0.1670113  0.70254     C
C     0.5004817  0.33353  0.29754     C
C     0.5004817  0.33353  0.70254     C
H       0.5019    0.722   0.2089     H
H       0.5019    0.722   0.7911     H
H       0.5019   0.7799   0.2089     H
H       0.5019   0.7799   0.7911     H
C     0.5022617 0.1934813  0.35812     C
C     0.5022617 0.1934813  0.64192     C
C     0.5022617  0.30883  0.35812     C
C     0.5022617  0.30883  0.64192     C
C     0.5025818 0.2248713  0.33332     C
C     0.5025818 0.2248713  0.66672     C
C     0.5025818  0.27773  0.33332     C
C     0.5025818  0.27773  0.66672     C
C     0.5028717 0.1839213  0.43542     C
C     0.5028717 0.1839213  0.56462     C
C     0.5028717  0.31903  0.43542     C
C     0.5028717  0.31903  0.56462     C
N      0.50292 0.2043214      0.5     N
N      0.50292  0.29863      0.5     N
C      0.50302 0.1514114  0.46074     C
C      0.50302 0.1514114  0.53934     C
C      0.50302  0.35163  0.46074     C
C      0.50302  0.35163  0.53934     C
H       0.5031   0.1332    0.428     H
H       0.5031   0.1332    0.572     H
H       0.5031   0.3699    0.428     H
H       0.5031   0.3699    0.572     H
C     0.5040814 0.6207019  0.18762     C
C     0.5040814 0.6207019  0.81242     C
C     0.5040814 0.8833812  0.18762     C
C     0.5040814 0.8833812  0.81242     C
N      0.50412 0.252029  0.38244     N
N      0.50412 0.252029  0.61764     N
C     0.5064014 0.5940819  0.13144     C
C     0.5064014 0.5940819  0.86864     C
C     0.5064014 0.9123212  0.13144     C
C     0.5064014 0.9123212  0.86864     C
Fe    0.512007 0.256003      0.5    Fe
O     0.5164413 0.483556  0.10314     O
O     0.5164413 0.483556  0.89694     O
O     0.516456 0.0328911  0.10314     O
O     0.516456 0.0328911  0.89694     O
O     0.517608 0.098737 0.0789216     O
O     0.517608 0.098737 0.9210816     O
O     0.517608 0.4188711 0.0789216     O
O     0.517608 0.4188711 0.9210816     O
O     0.5259612 0.5598117      0.0     O
O     0.5259612 0.9661511      0.0     O
C     0.5266514 0.1501912  0.19192     C
C     0.5266514 0.1501912  0.80812     C
C     0.5266514 0.3764619  0.19192     C
C     0.5266514 0.3764619  0.80812     C
C     0.5284816 0.1756913  0.24724     C
C     0.5284816 0.1756913  0.75284     C
C     0.5284816  0.35283  0.24724     C
C     0.5284816  0.35283  0.75284     C
C     0.5300918  0.66403  0.29134     C
C     0.5300918  0.66403  0.70874     C
C     0.5300918 0.8660416  0.29134     C
C     0.5300918 0.8660416  0.70874     C
O     0.530959 0.5862713 0.1434818     O
O     0.530959 0.5862713 0.8565218     O
O     0.530959 0.944688 0.1434818     O
O     0.530959 0.944688 0.8565218     O
C     0.5329916  0.64083  0.23814     C
C     0.5329916  0.64083  0.76194     C
C     0.5329916 0.8922114  0.23814     C
C     0.5329916 0.8922114  0.76194     C
Zr    0.5338219 0.06764318      0.0    Zr
Zr    0.533823 0.4661799      0.0    Zr
O     0.5385212      0.0  0.23094     O
O     0.5385212      0.0  0.76914     O
O     0.5385212 0.5385212  0.23094     O
O     0.5385212 0.5385212  0.76914     O
Zr    0.54202513      0.0 0.102663    Zr
Zr    0.54202513      0.0 0.897343    Zr
Zr    0.54202513 0.54202513 0.102663    Zr
Zr    0.54202513 0.54202513 0.897343    Zr
H       0.5468   0.1564   0.1577     H
H       0.5468   0.1564   0.8423     H
H       0.5468   0.3904   0.1577     H
H       0.5468   0.3904   0.8423     H
H       0.5497   0.1995   0.2494     H
H       0.5497   0.1995   0.7506     H
H       0.5497   0.3502   0.2494     H
H       0.5497   0.3502   0.7506     H
H       0.5504   0.6787   0.3245     H
H       0.5504   0.6787   0.6755     H
H       0.5504   0.8717   0.3245     H
H       0.5504   0.8717   0.6755     H
H       0.5545   0.6387   0.2363     H
H       0.5545   0.6387   0.7637     H
H       0.5545   0.9158   0.2363     H
H       0.5545   0.9158   0.7637     H
O     0.5598117 0.0338511      0.0     O
O     0.5598117 0.5259612      0.0     O
Cl    0.5770414 0.288527      0.5    Cl
O     0.5811311 0.098737 0.0789216     O
O     0.5811311 0.098737 0.9210816     O
O     0.5811311 0.482408 0.0789216     O
O     0.5811311 0.482408 0.9210816     O
O     0.5862713 0.055328 0.1434818     O
O     0.5862713 0.055328 0.8565218     O
O     0.5862713 0.530959 0.1434818     O
O     0.5862713 0.530959 0.8565218     O
C     0.5940819 0.0876812  0.13144     C
C     0.5940819 0.0876812  0.86864     C
C     0.5940819 0.5064014  0.13144     C
C     0.5940819 0.5064014  0.86864     C
O     0.5945911      0.0  0.09184     O
O     0.5945911      0.0  0.90824     O
O     0.5945911 0.5945911  0.09184     O
O     0.5945911 0.5945911  0.90824     O
H       0.6096   0.1564   0.1577     H
H       0.6096   0.1564   0.8423     H
H       0.6096   0.4532   0.1577     H
H       0.6096   0.4532   0.8423     H
C     0.6207019 0.1166212  0.18762     C
C     0.6207019 0.1166212  0.81242     C
C     0.6207019 0.5040814  0.18762     C
C     0.6207019 0.5040814  0.81242     C
C     0.6235419 0.1501912  0.19192     C
C     0.6235419 0.1501912  0.80812     C
C     0.6235419 0.4733514  0.19192     C
C     0.6235419 0.4733514  0.80812     C
H       0.6301   0.1332    0.428     H
H       0.6301   0.1332    0.572     H
H       0.6301   0.4969    0.428     H
H       0.6301   0.4969    0.572     H
H       0.6387   0.0842   0.2363     H
H       0.6387   0.0842   0.7637     H
H       0.6387   0.5545   0.2363     H
H       0.6387   0.5545   0.7637     H
C      0.64083 0.1077914  0.23814     C
C      0.64083 0.1077914  0.76194     C
C      0.64083 0.5329916  0.23814     C
C      0.64083 0.5329916  0.76194     C
C      0.64723 0.1756913  0.24724     C
C      0.64723 0.1756913  0.75284     C
C      0.64723 0.4715216  0.24724     C
C      0.64723 0.4715216  0.75284     C
C      0.64843 0.1514114  0.46074     C
C      0.64843 0.1514114  0.53934     C
C      0.64843  0.49702  0.46074     C
C      0.64843  0.49702  0.53934     C
H       0.6498   0.1995   0.2494     H
H       0.6498   0.1995   0.7506     H
H       0.6498   0.4503   0.2494     H
H       0.6498   0.4503   0.7506     H
C      0.66403 0.1339616  0.29134     C
C      0.66403 0.1339616  0.70874     C
C      0.66403 0.5300918  0.29134     C
C      0.66403 0.5300918  0.70874     C
C      0.66653 0.1670113  0.29754     C
C      0.66653 0.1670113  0.70254     C
C      0.66653 0.4995217  0.29754     C
C      0.66653 0.4995217  0.70254     C
H       0.6787   0.1283   0.3245     H
H       0.6787   0.1283   0.6755     H
H       0.6787   0.5504   0.3245     H
H       0.6787   0.5504   0.6755     H
C      0.68103 0.1839213  0.43542     C
C      0.68103 0.1839213  0.56462     C
C      0.68103 0.4971317  0.43542     C
C      0.68103 0.4971317  0.56462     C
C      0.69123 0.1934813  0.35812     C
C      0.69123 0.1934813  0.64192     C
C      0.69123 0.4977417  0.35812     C
C      0.69123 0.4977417  0.64192     C
N      0.70143 0.2043214      0.5     N
N      0.70143  0.49712      0.5     N
Cl    0.7114816 0.4229614      0.5    Cl
Cl    0.711487 0.2885216      0.5    Cl
H        0.722   0.2201   0.2089     H
H        0.722   0.2201   0.7911     H
H        0.722   0.5019   0.2089     H
H        0.722   0.5019   0.7911     H
C      0.72233 0.2248713  0.33332     C
C      0.72233 0.2248713  0.66672     C
C      0.72233 0.4974218  0.33332     C
C      0.72233 0.4974218  0.66672     C
C      0.73453 0.2341513  0.25362     C
C      0.73453 0.2341513  0.74642     C
C      0.73453 0.5003117  0.25362     C
C      0.73453 0.5003117  0.74642     C
Fe    0.744003 0.256008      0.5    Fe
Fe    0.744008 0.488007      0.5    Fe
N     0.747989  0.25203  0.38244     N
N     0.747989  0.25203  0.61764     N
N      0.74803  0.49592  0.38244     N
N      0.74803  0.49592  0.61764     N
C     0.7658513  0.26553  0.25362     C
C     0.7658513  0.26553  0.74642     C
C     0.7658513 0.5003117  0.25362     C
C     0.7658513 0.5003117  0.74642     C
C     0.7751313  0.27773  0.33332     C
C     0.7751313  0.27773  0.66672     C
C     0.7751313 0.4974218  0.33332     C
C     0.7751313 0.4974218  0.66672     C
H       0.7799    0.278   0.2089     H
H       0.7799    0.278   0.7911     H
H       0.7799   0.5019   0.2089     H
H       0.7799   0.5019   0.7911     H
N     0.7956814  0.29863      0.5     N
N     0.7956814  0.49712      0.5     N
H       0.8005   0.3502   0.2494     H
H       0.8005   0.3502   0.7506     H
H       0.8005   0.4503   0.2494     H
H       0.8005   0.4503   0.7506     H
C     0.8065213  0.30883  0.35812     C
C     0.8065213  0.30883  0.64192     C
C     0.8065213 0.4977417  0.35812     C
C     0.8065213 0.4977417  0.64192     C
C     0.8160813  0.31903  0.43542     C
C     0.8160813  0.31903  0.56462     C
C     0.8160813 0.4971317  0.43542     C
C     0.8160813 0.4971317  0.56462     C
C     0.8243113  0.35283  0.24724     C
C     0.8243113  0.35283  0.75284     C
C     0.8243113 0.4715216  0.24724     C
C     0.8243113 0.4715216  0.75284     C
C     0.8329913  0.33353  0.29754     C
C     0.8329913  0.33353  0.70254     C
C     0.8329913 0.4995217  0.29754     C
C     0.8329913 0.4995217  0.70254     C
H       0.8436   0.3904   0.1577     H
H       0.8436   0.3904   0.8423     H
H       0.8436   0.4532   0.1577     H
H       0.8436   0.4532   0.8423     H
C     0.8485914  0.35163  0.46074     C
C     0.8485914  0.35163  0.53934     C
C     0.8485914  0.49702  0.46074     C
C     0.8485914  0.49702  0.53934     C
C     0.8498112 0.3764619  0.19192     C
C     0.8498112 0.3764619  0.80812     C
C     0.8498112 0.4733514  0.19192     C
C     0.8498112 0.4733514  0.80812     C
C     0.8660416  0.33603  0.29134     C
C     0.8660416  0.33603  0.70874     C
C     0.8660416 0.5300918  0.29134     C
C     0.8660416 0.5300918  0.70874     C
H       0.8668   0.3699    0.428     H
H       0.8668   0.3699    0.572     H
H       0.8668   0.4969    0.428     H
H       0.8668   0.4969    0.572     H
H       0.8717   0.3213   0.3245     H
H       0.8717   0.3213   0.6755     H
H       0.8717   0.5504   0.3245     H
H       0.8717   0.5504   0.6755     H
C     0.8833812 0.3793019  0.18762     C
C     0.8833812 0.3793019  0.81242     C
C     0.8833812 0.5040814  0.18762     C
C     0.8833812 0.5040814  0.81242     C
C     0.8922114  0.35923  0.23814     C
C     0.8922114  0.35923  0.76194     C
C     0.8922114 0.5329916  0.23814     C
C     0.8922114 0.5329916  0.76194     C
O     0.901277 0.4188711 0.0789216     O
O     0.901277 0.4188711 0.9210816     O
O     0.901277 0.482408 0.0789216     O
O     0.901277 0.482408 0.9210816     O
C     0.9123212 0.4059219  0.13144     C
C     0.9123212 0.4059219  0.86864     C
C     0.9123212 0.5064014  0.13144     C
C     0.9123212 0.5064014  0.86864     C
H       0.9158   0.3613   0.2363     H
H       0.9158   0.3613   0.7637     H
H       0.9158   0.5545   0.2363     H
H       0.9158   0.5545   0.7637     H
Zr    0.93235718 0.466183      0.0    Zr
O     0.944688 0.4137313 0.1434818     O
O     0.944688 0.4137313 0.8565218     O
O     0.944688 0.530959 0.1434818     O
O     0.944688 0.530959 0.8565218     O
O     0.9661511 0.4401917      0.0     O
O     0.9661511 0.5259612      0.0     O
O     0.9671111 0.4835613  0.10314     O
O     0.9671111 0.4835613  0.89694     O
