data_I
_chemical_name_common  '/Users/gianmarcoterrones/Research/MOFs/MOF_structures/water_stability_work_extra_structs/cleaned_from_CoRE/PETWUI_clean'
_cell_length_a 17.37227
_cell_length_b 17.37227
_cell_length_c 17.37227
_cell_angle_alpha 60.00000
_cell_angle_beta  60.00000
_cell_angle_gamma 60.00000
_space_group_name_H-M_alt      'P 1'


loop_
_space_group_symop_operation_xyz
  'x, y, z' 

loop_
_atom_site_label
_atom_site_fract_x
_atom_site_fract_y
_atom_site_fract_z
_atom_site_type_symbol
C       0.0083   0.0103   0.2633     C
C       0.0083   0.2633   0.7181     C
C       0.0083   0.7181   0.0103     C
C       0.0103   0.0083   0.7181     C
C       0.0103   0.2633   0.0083     C
C       0.0103   0.7181   0.2633     C
C       0.0268   0.3468   0.9916     C
C       0.0268   0.6348   0.3468     C
C       0.0268   0.9916   0.6348     C
C       0.0278   0.4142   0.6132     C
C       0.0278   0.6132   0.9448     C
C       0.0278   0.9448   0.4142     C
C       0.0316   0.4944   0.5222     C
C       0.0316   0.5222   0.9518     C
C       0.0316   0.9518   0.4944     C
C       0.0326    0.344    0.633     C
C       0.0326    0.633   0.9904     C
C       0.0326   0.9904    0.344     C
O       0.0426   0.0426   0.0426     O
O       0.0426   0.0426   0.8722     O
O       0.0426   0.8722   0.0426     O
C       0.0593   0.3873   0.9705     C
C       0.0593   0.5829   0.3873     C
C       0.0593   0.9705   0.5829     C
O       0.0637   0.2397   0.9355     O
O       0.0637   0.7611   0.2397     O
O       0.0637   0.9355   0.7611     O
O       0.0682   0.2358   0.7566     O
O       0.0682   0.7566   0.9394     O
O       0.0682   0.9394   0.2358     O
C       0.1077   0.3703   0.9281     C
C       0.1077   0.5939   0.3703     C
C       0.1077   0.9281   0.5939     C
C       0.1085   0.3737   0.5975     C
C       0.1085   0.5975   0.9203     C
C       0.1085   0.9203   0.3737     C
U      0.11022  0.11022  0.88978     U
U      0.11022  0.88978  0.11022     U
U      0.11022  0.88978  0.88978     U
C       0.1127   0.4573   0.5227     C
C       0.1127   0.5227   0.9073     C
C       0.1127   0.9073   0.4573     C
C       0.1136   0.4534   0.9142     C
C       0.1136   0.5188   0.4534     C
C       0.1136   0.9142   0.5188     C
O       0.1743   0.9419   0.9419     O
O       0.2358   0.0682   0.9394     O
O       0.2358   0.7566   0.0682     O
O       0.2358   0.9394   0.7566     O
O       0.2397   0.0637   0.7611     O
O       0.2397   0.7611   0.9355     O
O       0.2397   0.9355   0.0637     O
C       0.2633   0.0083   0.0103     C
C       0.2633   0.0103   0.7181     C
C       0.2633   0.7181   0.0083     C
C        0.344   0.0326   0.9904     C
C        0.344    0.633   0.0326     C
C        0.344   0.9904    0.633     C
C       0.3703   0.1077   0.5939     C
C       0.3703   0.5939   0.9281     C
C       0.3703   0.9281   0.1077     C
C       0.3737   0.1085   0.9203     C
C       0.3737   0.5975   0.1085     C
C       0.3737   0.9203   0.5975     C
C       0.3873   0.0593   0.5829     C
C       0.3873   0.5829   0.9705     C
C       0.3873   0.9705   0.0593     C
C       0.4142   0.0278   0.9448     C
C       0.4142   0.6132   0.0278     C
C       0.4142   0.9448   0.6132     C
C       0.4534   0.1136   0.5188     C
C       0.4534   0.5188   0.9142     C
C       0.4534   0.9142   0.1136     C
C       0.4573   0.1127   0.9073     C
C       0.4573   0.5227   0.1127     C
C       0.4573   0.9073   0.5227     C
C       0.4715   0.0493   0.5035     C
C       0.4715   0.5035   0.9757     C
C       0.4715   0.9757   0.0493     C
C       0.4944   0.0316   0.9518     C
C       0.4944   0.5222   0.0316     C
C       0.4944   0.9518   0.5222     C
C       0.5188   0.1136   0.9142     C
C       0.5188   0.4534   0.1136     C
C       0.5188   0.9142   0.4534     C
C       0.5227   0.1127   0.4573     C
C       0.5227   0.4573   0.9073     C
C       0.5227   0.9073   0.1127     C
C       0.5829   0.0593   0.9705     C
C       0.5829   0.3873   0.0593     C
C       0.5829   0.9705   0.3873     C
C       0.5939   0.1077   0.9281     C
C       0.5939   0.3703   0.1077     C
C       0.5939   0.9281   0.3703     C
C       0.5975   0.1085   0.3737     C
C       0.5975   0.3737   0.9203     C
C       0.5975   0.9203   0.1085     C
C       0.6132   0.0278   0.4142     C
C       0.6132   0.4142   0.9448     C
C       0.6132   0.9448   0.0278     C
C        0.633   0.0326    0.344     C
C        0.633    0.344   0.9904     C
C        0.633   0.9904   0.0326     C
C       0.7181   0.0083   0.2633     C
C       0.7181   0.0103   0.0083     C
C       0.7181   0.2633   0.0103     C
O       0.7566   0.0682   0.2358     O
O       0.7566   0.2358   0.9394     O
O       0.7566   0.9394   0.0682     O
O       0.7611   0.0637   0.9355     O
O       0.7611   0.2397   0.0637     O
O       0.7611   0.9355   0.2397     O
O       0.8722   0.0426   0.0426     O
U      0.88978  0.11022  0.11022     U
U      0.88978  0.11022  0.88978     U
U      0.88978  0.88978  0.11022     U
C       0.9073   0.1127   0.5227     C
C       0.9073   0.4573   0.1127     C
C       0.9073   0.5227   0.4573     C
C       0.9142   0.1136   0.4534     C
C       0.9142   0.4534   0.5188     C
C       0.9142   0.5188   0.1136     C
C       0.9203   0.1085   0.5975     C
C       0.9203   0.3737   0.1085     C
C       0.9203   0.5975   0.3737     C
C       0.9281   0.1077   0.3703     C
C       0.9281   0.3703   0.5939     C
C       0.9281   0.5939   0.1077     C
O       0.9355   0.0637   0.2397     O
O       0.9355   0.2397   0.7611     O
O       0.9355   0.7611   0.0637     O
O       0.9394   0.0682   0.7566     O
O       0.9394   0.2358   0.0682     O
O       0.9394   0.7566   0.2358     O
O       0.9419   0.1743   0.9419     O
O       0.9419   0.9419   0.1743     O
O       0.9419   0.9419   0.9419     O
C       0.9448   0.0278   0.6132     C
C       0.9448   0.4142   0.0278     C
C       0.9448   0.6132   0.4142     C
C       0.9518   0.0316   0.5222     C
C       0.9518   0.4944   0.0316     C
C       0.9518   0.5222   0.4944     C
C       0.9705   0.0593   0.3873     C
C       0.9705   0.3873   0.5829     C
C       0.9705   0.5829   0.0593     C
