data_I
_chemical_name_common  '/Users/gianmarcoterrones/Research/MOFs/MOF_structures/water_stability_work_extra_structs/cleaned_from_CCDC/PEWLIO'
_cell_length_a  6.64860
_cell_length_b 12.80540
_cell_length_c 14.88330
_cell_angle_alpha 103.05200
_cell_angle_beta  90.00000
_cell_angle_gamma 90.00000
_space_group_name_H-M_alt      'P 1'


loop_
_space_group_symop_operation_xyz
  'x, y, z' 

loop_
_atom_site_label
_atom_site_fract_x
_atom_site_fract_y
_atom_site_fract_z
_atom_site_type_symbol
H          0.0    0.407    0.149     H
H          0.0    0.593    0.851     H
C       0.0042   0.5248   0.8522     C
H        0.011     0.11    0.277     H
C       0.0227   0.3104   0.8565     C
H        0.024    0.338     0.29     H
H        0.035    0.238    0.857     H
N       0.0417   0.0603   0.2865     N
C       0.0524   0.9933   0.6556     C
O       0.0626    0.713   0.7113     O
Sr     0.06396  0.67533  0.52537    Sr
O       0.0666   0.1482  0.53087     O
C       0.0706   0.8456   0.4106     C
C       0.0723   0.9222   0.3481     C
C       0.1274   0.6536   0.1935     C
Br     0.12968  0.83011  0.96873    Br
C       0.1374   0.5463    0.197     C
O       0.1441   0.4991  0.56999     O
C       0.1537   0.4889    0.902     C
H        0.156    0.694    0.735     H
C       0.1625   0.3819   0.9022     C
C       0.2151   0.0089    0.256     C
O       0.2154  0.77996  0.40415     O
H        0.219    0.703     0.22     H
O       0.2268  0.34891  0.60961     O
N       0.2374   0.9242   0.2913     N
H        0.238    0.536    0.935     H
C        0.241   0.9454   0.6085     C
C        0.259   0.4454   0.6085     C
H        0.262    0.036    0.935     H
N       0.2626   0.4242   0.2913     N
O       0.2732  0.84891  0.60961     O
H        0.281    0.203     0.22     H
O       0.2846  0.27996  0.40415     O
C       0.2849   0.5089    0.256     C
C       0.3375   0.8819   0.9022     C
H        0.344    0.194    0.735     H
C       0.3463   0.9889    0.902     C
O       0.3559   0.9991  0.56999     O
C       0.3626   0.0463    0.197     C
Br     0.37032  0.33011  0.96873    Br
C       0.3726   0.1536   0.1935     C
C       0.4277   0.4222   0.3481     C
C       0.4294   0.3456   0.4106     C
O       0.4334   0.6482  0.53087     O
Sr     0.43604  0.17533  0.52537    Sr
O       0.4374    0.213   0.7113     O
C       0.4476   0.4933   0.6556     C
N       0.4583   0.5603   0.2865     N
H        0.465    0.738    0.857     H
H        0.476    0.838     0.29     H
C       0.4773   0.8104   0.8565     C
H        0.489     0.61    0.277     H
C       0.4958   0.0248   0.8522     C
H          0.5    0.093    0.851     H
H          0.5    0.907    0.149     H
C       0.5042   0.9752   0.1478     C
H        0.511     0.39    0.723     H
C       0.5227   0.1896   0.1435     C
H        0.524    0.162     0.71     H
H        0.535    0.262    0.143     H
N       0.5417   0.4397   0.7135     N
C       0.5524   0.5067   0.3444     C
O       0.5626    0.787   0.2887     O
Sr     0.56396  0.82467  0.47463    Sr
O       0.5666   0.3518  0.46913     O
C       0.5706   0.6544   0.5894     C
C       0.5723   0.5778   0.6519     C
C       0.6274   0.8464   0.8065     C
Br     0.62968  0.66989  0.03127    Br
C       0.6374   0.9537    0.803     C
O       0.6441   0.0009  0.43001     O
C       0.6537   0.0111    0.098     C
H        0.656    0.806    0.265     H
C       0.6625   0.1181   0.0978     C
C       0.7151   0.4911    0.744     C
O       0.7154  0.72004  0.59585     O
H        0.719    0.797     0.78     H
O       0.7268  0.15109  0.39039     O
N       0.7374   0.5758   0.7087     N
H        0.738    0.964    0.065     H
C        0.741   0.5546   0.3915     C
C        0.759   0.0546   0.3915     C
H        0.762    0.464    0.065     H
N       0.7626   0.0758   0.7087     N
O       0.7732  0.65109  0.39039     O
H        0.781    0.297     0.78     H
O       0.7846  0.22004  0.59585     O
C       0.7849   0.9911    0.744     C
C       0.8375   0.6181   0.0978     C
H        0.844    0.306    0.265     H
C       0.8463   0.5111    0.098     C
O       0.8559   0.5009  0.43001     O
C       0.8626   0.4537    0.803     C
Br     0.87032  0.16989  0.03127    Br
C       0.8726   0.3464   0.8065     C
C       0.9277   0.0778   0.6519     C
C       0.9294   0.1544   0.5894     C
O       0.9334   0.8518  0.46913     O
Sr     0.93604  0.32467  0.47463    Sr
O       0.9374    0.287   0.2887     O
C       0.9476   0.0067   0.3444     C
N       0.9583   0.9397   0.7135     N
H        0.965    0.762    0.143     H
H        0.976    0.662     0.71     H
C       0.9773   0.6896   0.1435     C
H        0.989     0.89    0.723     H
C       0.9958   0.4752   0.1478     C
