data_I
_chemical_name_common  '/Users/gianmarcoterrones/Research/MOFs/MOF_structures/water_stability_work_extra_structs/cleaned_from_CCDC/POZKOF'
_cell_length_a 10.77916
_cell_length_b 10.77916
_cell_length_c 21.08380
_cell_angle_alpha 97.45002
_cell_angle_beta  97.45002
_cell_angle_gamma 119.52286
_space_group_name_H-M_alt      'P 1'


loop_
_space_group_symop_operation_xyz
  'x, y, z' 

loop_
_atom_site_label
_atom_site_fract_x
_atom_site_fract_y
_atom_site_fract_z
_atom_site_type_symbol
N       0.0033   0.2447   0.2256     N
H       0.0036    0.704    0.132     H
H        0.006   0.4092   0.8986     H
H         0.02   0.6714     0.06     H
H       0.0265   0.7133   0.5796     H
C       0.0285   0.7445   0.0944     C
C       0.0302   0.5472   0.4378     C
H         0.04   0.3886     0.06     H
H       0.0453   0.5053   0.8986     H
H       0.0629   0.1597   0.6218     H
C       0.0659   0.3499   0.0944     C
C       0.0678   0.2758   0.2776     C
H       0.0962    0.143   0.6938     H
H       0.1163   0.3031   0.0796     H
C        0.123    0.527    0.796     C
H       0.1284    0.428    0.132     H
C       0.1331   0.1597   0.6548     C
N       0.1401   0.0295   0.5116     N
C       0.1406   0.1576   0.9378     C
Au     0.14104  0.64104  0.28208    Au
H       0.1471   0.5325   0.7532     H
C       0.1499   0.0267   0.4606     C
H       0.1542   0.6232   0.8196     H
H       0.1697   0.4859   0.8192     H
Sn      0.1721  0.99296  0.61986    Sn
H       0.1725   0.4785    0.626     H
Au     0.17717  0.02219  0.36924    Au
H       0.1813   0.5565   0.5676     H
Au     0.19207  0.34705  0.36924    Au
C       0.2098   0.0018   0.2776     C
Au      0.2177   0.7177   0.4354    Au
H       0.2217   0.6445   0.6398     H
N       0.2223   0.9809   0.2256     N
H        0.223   0.2528   0.6648     H
C       0.2254   0.5688   0.6122     C
N       0.2309   0.9723   0.7256     N
N       0.2396   0.2692   0.9364     N
Sn     0.24296   0.9221  0.11986    Sn
H       0.2453   0.1681   0.1398     H
C       0.2518   0.9598   0.7776     C
H       0.2611   0.1363   0.0676     H
Au     0.27219  0.92717  0.86924    Au
C       0.2767   0.8999   0.9606     C
N       0.2795   0.8901   0.0116     N
C       0.2934   0.1368   0.1122     C
C       0.3107   0.4339   0.4606     C
H       0.3126    0.372   0.8164     H
C       0.3259   0.6495   0.2834     C
H       0.3494   0.3126   0.8164     H
H        0.355   0.5618   0.0154     H
H       0.3712   0.4676   0.8164     H
N       0.3715   0.4821   0.5116     N
H       0.3761   0.6429   0.9576     H
H       0.3863   0.0111   0.5676     H
C       0.3868   0.0434   0.6122     C
H        0.393   0.8462   0.1938     H
H       0.3975   0.2035    0.126     H
C       0.4076   0.8906   0.4378     C
H       0.4097   0.8129   0.1218     H
C       0.4097   0.8831   0.1548     C
C       0.4161   0.4161   0.8322     C
H       0.4181   0.9953   0.6398     H
C       0.4213   0.6111   0.9884     C
N       0.4352   0.6628    0.284     N
H       0.4418    0.412   0.6648     H
H       0.4452   0.3488   0.8164     H
H       0.4464   0.4154   0.3196     H
Sn     0.44776   0.6269  0.61986    Sn
H       0.4535   0.1475    0.626     H
H        0.467   0.5038   0.8164     H
Sn     0.46945  0.46945   0.9389    Sn
H       0.4707   0.3561   0.2532     H
N       0.4947   0.7533   0.7256     N
H       0.5028    0.973   0.1648     H
H       0.5038   0.4444   0.8164     H
H       0.5062   0.3218   0.0156     H
H       0.5094   0.6938   0.0156     H
C        0.519    0.423    0.296     C
N       0.5192   0.9896   0.4364     N
C       0.5217   0.4951   0.6548     C
C       0.5258   0.8178   0.7776     C
H       0.5531   0.8663   0.5796     H
H       0.5589   0.4621   0.6218     H
H       0.5626   0.0994   0.3164     H
H       0.5647   0.3315   0.4576     H
C       0.5671   0.3773   0.9884     C
H       0.5718   0.2562   0.5156     H
H       0.5815   0.3147   0.9576     H
H       0.5833   0.3995   0.3192     H
Au     0.59705  0.94207  0.86924    Au
H       0.5976   0.5508   0.6938     H
H       0.5988   0.1952   0.3164     H
C       0.5999   0.8159   0.5944     C
H       0.6032     0.66   0.3986     H
H       0.6061   0.2207   0.7532     H
H        0.622   0.0626   0.3164     H
C       0.6273   0.3171   0.4884     C
H       0.6386     0.79     0.56     H
Sn     0.64101  0.64101  0.28202    Sn
H       0.6433   0.6033   0.3986     H
H       0.6495   0.3333   0.8192     H
H       0.6592    0.756   0.3986     H
H       0.6604   0.4536   0.0154     H
H        0.662   0.1918   0.1648     H
H       0.6654   0.1964   0.8196     H
C       0.6661   0.1661   0.3322     C
C        0.673    0.269    0.796     C
H        0.678   0.8784    0.632     H
C       0.6839   0.0607   0.9606     C
C       0.6915   0.6915    0.383     C
H       0.6944   0.2538   0.3164     H
N       0.6968   0.6672   0.9364     N
H       0.7036   0.4104   0.5154     H
H       0.7121   0.3089   0.1218     H
H       0.7176   0.1212   0.3164     H
Sn     0.71945  0.21945   0.4389    Sn
H       0.7285   0.9225    0.126     H
N       0.7321   0.1215   0.0116     N
H       0.7359   0.9197   0.3192     H
H       0.7394   0.6426   0.3986     H
C       0.7451   0.2717   0.1548     C
H       0.7538    0.217   0.3164     H
H       0.7553   0.7953   0.3986     H
C        0.777    0.873    0.296     C
H       0.7825   0.8971   0.2532     H
H       0.7954   0.7386   0.3986     H
C       0.7972   0.7802   0.9378     C
H       0.8008   0.3476   0.1938     H
H       0.8065   0.9313   0.0676     H
H       0.8118    0.105   0.5154     H
C       0.8188   0.9754   0.1122     C
N       0.8488   0.6212    0.284     N
H       0.8533   0.3933   0.8986     H
C       0.8611   0.1713   0.4884     C
N       0.8712   0.5988    0.784     N
H       0.8732   0.9042   0.3196     H
Sn      0.8769  0.19776  0.11986    Sn
C       0.8839   0.7075   0.7834     C
Sn     0.89101  0.39101  0.78202    Sn
Au     0.89104  0.89104  0.78208    Au
H       0.8926   0.4894   0.8986     H
H       0.8929   0.1261   0.4576     H
H       0.8945   0.9717   0.1398     H
C       0.8995   0.0759   0.7834     C
H         0.91   0.3532   0.8986     H
N       0.9128   0.1852    0.784     N
N       0.9172   0.4468   0.4364     N
H       0.9214     0.77     0.56     H
C       0.9415   0.4415    0.883     C
H       0.9438   0.2594   0.5156     H
H        0.954   0.7536    0.632     H
C       0.9575   0.6339   0.2834     C
H       0.9633   0.7765   0.0796     H
Au      0.9677   0.9677   0.9354    Au
H       0.9886   0.5454   0.8986     H
C       0.9945   0.7785   0.5944     C
