data_I
_chemical_name_common  '/Users/gianmarcoterrones/Research/MOFs/MOF_structures/water_stability_work_extra_structs/cleaned_from_CCDC/PUQHAL'
_cell_length_a 12.41210
_cell_length_b 13.60770
_cell_length_c 19.06690
_cell_angle_alpha 90.00000
_cell_angle_beta  90.00000
_cell_angle_gamma 112.13500
_space_group_name_H-M_alt      'P 1'


loop_
_space_group_symop_operation_xyz
  'x, y, z' 

loop_
_atom_site_label
_atom_site_fract_x
_atom_site_fract_y
_atom_site_fract_z
_atom_site_type_symbol
C       0.0182    0.422   0.0898     C
C       0.0182    0.922   0.4102     C
Ni        0.03  0.20973  0.05128    Ni
Ni        0.03  0.70973  0.44872    Ni
H       0.0328    0.052   0.5638     H
H       0.0328    0.552   0.9362     H
H       0.0392   0.4616   0.1333     H
H       0.0392   0.9616   0.3667     H
O       0.0412   0.1872  0.60497     O
O       0.0412   0.6872  0.89503     O
C       0.0492   0.2475   0.4108     C
C       0.0492   0.7475   0.0892     C
H        0.052   0.2183   0.2721     H
H        0.052   0.7183   0.2279     H
O       0.0529   0.3085  0.89154     O
O       0.0529   0.8085  0.60846     O
O       0.0755   0.2943  0.46917     O
O       0.0755   0.7943  0.03083     O
H       0.0815   0.4699   0.6034     H
H       0.0815   0.9699   0.8966     H
O       0.0926   0.4357   0.5703     O
O       0.0926   0.9357   0.9297     O
O        0.093   0.1966  0.14733     O
O        0.093   0.6966  0.35267     O
H       0.1092   0.1063   0.9675     H
H       0.1092   0.6063   0.5325     H
H       0.1132   0.2252   0.7314     H
H       0.1132   0.7252   0.7686     H
C       0.1261   0.4396   0.0475     C
C       0.1261   0.9396   0.4525     C
C       0.1276   0.2426   0.2894     C
C       0.1276   0.7426   0.2106     C
H       0.1412   0.0079   0.1065     H
H       0.1412   0.5079   0.3935     H
O       0.1426   0.1724  0.99128     O
O       0.1426   0.6724  0.50872     O
C       0.1475    0.263   0.3606     C
C       0.1475    0.763   0.1394     C
O       0.1487   0.3591  0.03146     O
O       0.1487   0.8591  0.46854     O
C        0.155   0.2133   0.6304     C
C        0.155   0.7133   0.8696     C
H       0.1679   0.4497   0.5689     H
H       0.1679   0.9497   0.9311     H
C       0.1741   0.2304   0.7013     C
C       0.1741   0.7304   0.7987     C
O       0.1852   0.0321   0.4692     O
O       0.1852   0.5321   0.0308     O
C       0.1972   0.2363   0.1666     C
C       0.1972   0.7363   0.3334     C
Ni     0.20907  0.31462  0.93733    Ni
Ni     0.20907  0.81462  0.56267    Ni
O       0.2121   0.0321  0.08528     O
O       0.2121   0.5321  0.41472     O
H       0.2159   0.4769   0.4398     H
H       0.2159   0.9769   0.0602     H
C       0.2206   0.2584   0.2437     C
C       0.2206   0.7584   0.2563     C
O       0.2229   0.2504  0.84378     O
O       0.2229   0.7504  0.65622     O
H       0.2271   0.2106   0.5361     H
H       0.2271   0.7106   0.9639     H
C       0.2428   0.2232   0.5836     C
C       0.2428   0.7232   0.9164     C
C       0.2608   0.2997   0.3862     C
C       0.2608   0.7997   0.1138     C
H       0.2625   0.0089   0.5606     H
H       0.2625   0.5089   0.9394     H
H       0.2749   0.3145   0.4337     H
H       0.2749   0.8145   0.0663     H
O       0.2799   0.4732  0.90652     O
O       0.2799   0.9732  0.59348     O
O       0.2844   0.2571  0.12692     O
O       0.2844   0.7571  0.37308     O
C       0.2861   0.2557   0.7271     C
C       0.2861   0.7557   0.7729     C
Ni     0.29433  0.18083  0.03562    Ni
Ni     0.29433  0.68083  0.46438    Ni
C         0.31   0.2674   0.8043     C
C         0.31   0.7674   0.6957     C
O       0.3212    0.458   0.5339     O
O       0.3212    0.958   0.9661     O
H       0.3253   0.0813   0.4158     H
H       0.3253   0.5813   0.0842     H
C       0.3334   0.2942     0.27     C
C       0.3334   0.7942     0.23     C
O       0.3476   0.1245  0.94213     O
O       0.3476   0.6245  0.55787     O
C       0.3517    0.314    0.341     C
C       0.3517    0.814    0.159     C
H       0.3526   0.0064   0.6023     H
H       0.3526   0.5064   0.8977     H
H       0.3549   0.0854   0.3424     H
H       0.3549   0.5854   0.1576     H
C       0.3559   0.2526   0.6091     C
C       0.3559   0.7526   0.8909     C
O       0.3643   0.3188  0.97628     O
O       0.3643   0.8188  0.52372     O
C       0.3771   0.0453   0.9392     C
C       0.3771   0.5453   0.5608     C
C       0.3774   0.2683   0.6805     C
C       0.3774   0.7683   0.8195     C
O       0.3866   0.0974  0.38665     O
O       0.3866   0.5974  0.11335     O
H       0.3959   0.3047   0.2401     H
H       0.3959   0.8047   0.2599     H
H       0.4032   0.3761   0.0066     H
H       0.4032   0.8761   0.4934     H
O       0.4119   0.2904  0.82378     O
O       0.4119   0.7904  0.67622     O
O       0.4261    0.232  0.49783     O
O       0.4261    0.732  0.00217     O
O       0.4441   0.1858  0.08171     O
O       0.4441   0.6858  0.41829     O
H       0.4528   0.2872   0.6974     H
H       0.4528   0.7872   0.8026     H
C       0.4539   0.2674    0.559     C
C       0.4539   0.7674    0.941     C
H       0.4568   0.4516    0.432     H
H       0.4568   0.9516    0.068     H
O       0.4656   0.3437  0.36551     O
O       0.4656   0.8437  0.13449     O
H       0.4687   0.4997   0.6349     H
H       0.4687   0.9997   0.8651     H
Ni     0.47032  0.26965  0.91749    Ni
Ni     0.47032  0.76965  0.58251    Ni
C       0.4865   0.0559   0.8996     C
C       0.4865   0.5559   0.6004     C
C       0.5135   0.4441   0.3996     C
C       0.5135   0.9441   0.1004     C
Ni     0.52968  0.23035  0.41749    Ni
Ni     0.52968  0.73035  0.08251    Ni
H       0.5313   0.0003   0.1349     H
H       0.5313   0.5003   0.3651     H
O       0.5344   0.1563  0.86551     O
O       0.5344   0.6563  0.63449     O
H       0.5432   0.0484    0.932     H
H       0.5432   0.5484    0.568     H
C       0.5461   0.2326    0.059     C
C       0.5461   0.7326    0.441     C
H       0.5472   0.2128   0.1974     H
H       0.5472   0.7128   0.3026     H
O       0.5559   0.3142  0.58171     O
O       0.5559   0.8142  0.91829     O
O       0.5739    0.268  0.99783     O
O       0.5739    0.768  0.50217     O
O       0.5881   0.2096  0.32378     O
O       0.5881   0.7096  0.17622     O
H       0.5968   0.1239   0.5066     H
H       0.5968   0.6239   0.9934     H
H       0.6041   0.1953   0.7401     H
H       0.6041   0.6953   0.7599     H
O       0.6134   0.4026  0.88665     O
O       0.6134   0.9026  0.61335     O
C       0.6226   0.2317   0.1805     C
C       0.6226   0.7317   0.3195     C
C       0.6229   0.4547   0.4392     C
C       0.6229   0.9547   0.0608     C
O       0.6357   0.1812  0.47628     O
O       0.6357   0.6812  0.02372     O
C       0.6441   0.2474   0.1091     C
C       0.6441   0.7474   0.3909     C
H       0.6451   0.4146   0.8424     H
H       0.6451   0.9146   0.6576     H
H       0.6474   0.4936   0.1023     H
H       0.6474   0.9936   0.3977     H
C       0.6483    0.186    0.841     C
C       0.6483    0.686    0.659     C
O       0.6524   0.3755  0.44213     O
O       0.6524   0.8755  0.05787     O
C       0.6666   0.2058     0.77     C
C       0.6666   0.7058     0.73     C
H       0.6747   0.4187   0.9158     H
H       0.6747   0.9187   0.5842     H
O       0.6788    0.042   0.0339     O
O       0.6788    0.542   0.4661     O
C         0.69   0.2326   0.3043     C
C         0.69   0.7326   0.1957     C
Ni     0.70567  0.31917  0.53562    Ni
Ni     0.70567  0.81917  0.96438    Ni
C       0.7139   0.2443   0.2271     C
C       0.7139   0.7443   0.2729     C
O       0.7156   0.2429  0.62692     O
O       0.7156   0.7429  0.87308     O
O       0.7201   0.0268  0.40652     O
O       0.7201   0.5268  0.09348     O
H       0.7251   0.1855   0.9337     H
H       0.7251   0.6855   0.5663     H
H       0.7375   0.4911   0.0606     H
H       0.7375   0.9911   0.4394     H
C       0.7392   0.2003   0.8862     C
C       0.7392   0.7003   0.6138     C
C       0.7572   0.2768   0.0836     C
C       0.7572   0.7768   0.4164     C
H       0.7729   0.2894   0.0361     H
H       0.7729   0.7894   0.4639     H
O       0.7771   0.2496  0.34378     O
O       0.7771   0.7496  0.15622     O
C       0.7794   0.2416   0.7437     C
C       0.7794   0.7416   0.7563     C
H       0.7841   0.0231   0.9398     H
H       0.7841   0.5231   0.5602     H
O       0.7879   0.4679  0.58528     O
O       0.7879   0.9679  0.91472     O
Ni     0.79093  0.18538  0.43733    Ni
Ni     0.79093  0.68538  0.06267    Ni
C       0.8028   0.2637   0.6666     C
C       0.8028   0.7637   0.8334     C
O       0.8148   0.4679   0.9692     O
O       0.8148   0.9679   0.5308     O
C       0.8259   0.2696   0.2013     C
C       0.8259   0.7696   0.2987     C
H       0.8321   0.0503   0.0689     H
H       0.8321   0.5503   0.4311     H
C        0.845   0.2867   0.1304     C
C        0.845   0.7867   0.3696     C
O       0.8513   0.1409  0.53146     O
O       0.8513   0.6409  0.96854     O
C       0.8525    0.237   0.8606     C
C       0.8525    0.737   0.6394     C
O       0.8574   0.3276  0.49128     O
O       0.8574   0.8276  0.00872     O
H       0.8588   0.4921   0.6065     H
H       0.8588   0.9921   0.8935     H
C       0.8724   0.2574   0.7894     C
C       0.8724   0.7574   0.7106     C
C       0.8739   0.0604   0.5475     C
C       0.8739   0.5604   0.9525     C
H       0.8868   0.2748   0.2314     H
H       0.8868   0.7748   0.2686     H
H       0.8908   0.3937   0.4675     H
H       0.8908   0.8937   0.0325     H
O        0.907   0.3034  0.64733     O
O        0.907   0.8034  0.85267     O
O       0.9074   0.0643   0.0703     O
O       0.9074   0.5643   0.4297     O
H       0.9185   0.0301   0.1034     H
H       0.9185   0.5301   0.3966     H
O       0.9245   0.2057  0.96917     O
O       0.9245   0.7057  0.53083     O
O       0.9471   0.1915  0.39154     O
O       0.9471   0.6915  0.10846     O
H        0.948   0.2817   0.7721     H
H        0.948   0.7817   0.7279     H
C       0.9508   0.2525   0.9108     C
C       0.9508   0.7525   0.5892     C
O       0.9588   0.3128  0.10497     O
O       0.9588   0.8128  0.39503     O
H       0.9608   0.0384   0.6333     H
H       0.9608   0.5384   0.8667     H
H       0.9672    0.448   0.0638     H
H       0.9672    0.948   0.4362     H
Ni        0.97  0.29027  0.55128    Ni
Ni        0.97  0.79027  0.94872    Ni
C       0.9818    0.078   0.5898     C
C       0.9818    0.578   0.9102     C
