data_I
_chemical_name_common  '/Users/gianmarcoterrones/Research/MOFs/MOF_structures/water_stability_work_extra_structs/cleaned_from_CCDC/PURNOH'
_cell_length_a 11.02900
_cell_length_b 13.96900
_cell_length_c 14.63100
_cell_angle_alpha 110.52000
_cell_angle_beta  107.36000
_cell_angle_gamma 102.12000
_space_group_name_H-M_alt      'P 1'


loop_
_space_group_symop_operation_xyz
  'x, y, z' 

loop_
_atom_site_label
_atom_site_fract_x
_atom_site_fract_y
_atom_site_fract_z
_atom_site_type_symbol
H       0.0157   0.8734   0.6296     H
C       0.0164   0.3366   0.5087     C
C       0.0234   0.1556 0.33333333     C
N       0.0239   0.0967   0.2351     N
O       0.0244   0.1097   0.6333     O
C       0.0285   0.4223   0.5992     C
H       0.0324   0.5873   0.3696     H
H       0.0527   0.7305   0.5209     H
Cu      0.0537   0.0534   0.8362    Cu
H       0.0542   0.5357   0.8121     H
H       0.0582   0.2387   0.0344     H
N       0.0914   0.2651   0.3666     N
C       0.0923   0.1699   0.2076     C
C       0.1024   0.5996   0.8132     C
C       0.1054   0.2654   0.0002     C
C       0.1072   0.3509   0.4622     C
H       0.1075   0.1523   0.1456     H
N       0.1246   0.2032   0.9121     N
O        0.125    0.765    0.328     O
O        0.129    0.929    0.272     O
C       0.1315   0.5223   0.6433     C
C       0.1339    0.274   0.2889     C
H       0.1392   0.7224   0.9594     H
N       0.1395   0.6071   0.7326     N
W      0.14292  0.92581  0.41276     W
C       0.1499   0.7039   0.8955     C
O        0.167    0.918    0.553     O
C       0.1689   0.3744   0.0285     C
H       0.1718   0.4337   0.0851     H
O        0.178    0.083    0.499     O
H        0.182   0.3385    0.291     H
O       0.1831   0.6004   0.2225     O
O        0.192    0.803    0.375     O
O        0.198   0.9154   0.1096     O
C       0.1999   0.2737    0.886     C
O        0.203    0.962    0.323     O
C       0.2098   0.7161   0.7652     C
C       0.2101   0.4508   0.5063     C
N       0.2163   0.7759   0.8658     N
O        0.221    0.915    0.538     O
C       0.2222   0.5365   0.5969     C
H       0.2272   0.2535   0.8299     H
N       0.2273   0.3795   0.9579     N
O        0.228    0.071    0.483     O
O         0.24    0.778    0.192     O
H       0.2463   0.7442   0.7263     H
H        0.271   0.4604   0.4752     H
O       0.2724   0.9605   0.7565     O
W      0.28581  0.72909  0.31361     W
O       0.2901   0.2846   0.6519     O
H       0.2907    0.396   0.8046     H
H       0.2913   0.6036   0.6265     H
Cu      0.2923    0.928   0.9367    Cu
W      0.29832    0.941  0.23568     W
C       0.3049    0.471    0.955     C
O        0.305    0.817    0.246     O
H       0.3137   0.1214   0.1398     H
C       0.3259   0.4632   0.8642     C
O        0.326    0.122    0.696     O
O        0.342    0.744    0.444     O
H       0.3434   0.5765   0.1049     H
W      0.34503  0.97493  0.67323     W
O        0.346     0.69    0.435     O
O        0.346   0.9195    0.392     O
C       0.3574   0.5712    0.044     C
W      0.35741  0.19376  0.60537     W
C       0.3577   0.1448   0.1022     C
O        0.358     0.11    0.287     O
O         0.36    0.089    0.324     O
N       0.3705   0.0784   0.0125     N
O        0.374    0.851    0.608     O
O        0.377   0.0191    0.541     O
O        0.377    0.113    0.676     O
O        0.377    0.831    0.649     O
O        0.388    0.254    0.506     O
O        0.393    0.202    0.494     O
C       0.3993   0.5556   0.8624     C
H       0.4134   0.5504   0.8015     H
C       0.4219   0.2522   0.1261     C
H       0.4286   0.3137   0.1826     H
C       0.4309   0.6637   0.0421     C
C       0.4425   0.1448    0.981     C
C       0.4518   0.6559   0.9514     C
O        0.457    0.759    0.315     O
O         0.46    0.706    0.301     O
H       0.4656   0.1213   0.9228     H
H       0.4661   0.7309   0.1018     H
O        0.467    0.965    0.208     O
O        0.469    0.945    0.246     O
N       0.4743   0.2522   0.0512     N
O        0.489   0.8633   0.4588     O
O       0.4928   0.6818   0.6098     O
O        0.493    0.038      0.4     O
W       0.4974   0.7852  0.57456     W
Ge         0.5      0.0      0.5    Ge
W       0.5026   0.2148  0.42544     W
O        0.507    0.962      0.6     O
O       0.5072   0.3182   0.3902     O
O        0.511   0.1367   0.5412     O
N       0.5257   0.7478   0.9488     N
O        0.531    0.055    0.754     O
O        0.533    0.035    0.792     O
H       0.5339   0.2691   0.8982     H
H       0.5344   0.8787   0.0772     H
O         0.54    0.294    0.699     O
O        0.543    0.241    0.685     O
C       0.5482   0.3441   0.0486     C
C       0.5575   0.8552    0.019     C
C       0.5691   0.3363   0.9579     C
H       0.5714   0.6863   0.8174     H
C       0.5781   0.7478   0.8739     C
H       0.5866   0.4496   0.1985     H
C       0.6007   0.4444   0.1376     C
O        0.607    0.798    0.506     O
O        0.612    0.746    0.494     O
O        0.623    0.169    0.351     O
O        0.623    0.887    0.324     O
O        0.623   0.9809    0.459     O
O        0.626    0.149    0.392     O
N       0.6295   0.9216   0.9875     N
O         0.64    0.911    0.676     O
O        0.642     0.89    0.713     O
C       0.6423   0.8552   0.8978     C
W      0.64259  0.80624  0.39463     W
C       0.6426   0.4288    0.956     C
O        0.654   0.0805    0.608     O
O        0.654     0.31    0.565     O
W      0.65497  0.02507  0.32677     W
H       0.6566   0.4235   0.8951     H
O        0.658    0.256    0.556     O
O        0.674    0.878    0.304     O
C       0.6741   0.5368   0.1358     C
H       0.6863   0.8786   0.8602     H
O        0.695    0.183    0.754     O
C       0.6951    0.529    0.045     C
W      0.70168    0.059  0.76432     W
Cu      0.7077    0.072   0.0633    Cu
H       0.7087   0.3964   0.3735     H
H       0.7093    0.604   0.1954     H
O       0.7099   0.7154   0.3481     O
W      0.71419  0.27091  0.68639     W
O       0.7276   0.0395   0.2435     O
H        0.729   0.5396   0.5248     H
H       0.7537   0.2558   0.2737     H
O         0.76    0.222    0.808     O
O        0.772    0.929    0.517     O
N       0.7727   0.6205   0.0421     N
H       0.7728   0.7465   0.1701     H
C       0.7778   0.4635   0.4031     C
O        0.779    0.085    0.462     O
N       0.7837   0.2241   0.1342     N
C       0.7899   0.5492   0.4937     C
C       0.7902   0.2839   0.2348     C
O        0.797    0.038    0.677     O
C       0.8001   0.7263    0.114     C
O        0.802   0.0846   0.8904     O
O        0.808    0.197    0.625     O
O       0.8169   0.3996   0.7775     O
H        0.818   0.6615    0.709     H
O        0.822    0.917    0.501     O
H       0.8282   0.5663   0.9149     H
C       0.8311   0.6256   0.9715     C
O        0.833    0.082    0.447     O
C       0.8501   0.2961   0.1045     C
W      0.85708  0.07419  0.58724     W
N       0.8605   0.3929   0.2674     N
H       0.8608   0.2776   0.0406     H
C       0.8661    0.726   0.7111     C
C       0.8685   0.4777   0.3567     C
O        0.871    0.071    0.728     O
O        0.875    0.235    0.672     O
N       0.8754   0.7968   0.0879     N
H       0.8925   0.8477   0.8544     H
C       0.8928   0.6491   0.5378     C
C       0.8946   0.7346   0.9998     C
C       0.8976   0.4004   0.1868     C
C       0.9077   0.8301   0.7924     C
N       0.9086   0.7349   0.6334     N
H       0.9418   0.7613   0.9656     H
H       0.9458   0.4643   0.1879     H
Cu      0.9463   0.9466   0.1638    Cu
H       0.9473   0.2695   0.4791     H
H       0.9676   0.4127   0.6304     H
C       0.9715   0.5777   0.4008     C
O       0.9756   0.8903   0.3667     O
N       0.9761   0.9033   0.7649     N
C       0.9766   0.8444 0.66666667     C
C       0.9836   0.6634   0.4913     C
H       0.9843   0.1266   0.3704     H
