data_I
_chemical_name_common  '/Users/gianmarcoterrones/Research/MOFs/MOF_structures/water_stability_work_extra_structs/cleaned_from_CCDC/QARBOC'
_cell_length_a  7.93220
_cell_length_b 20.96100
_cell_length_c 20.96100
_cell_angle_alpha 90.00000
_cell_angle_beta  90.00000
_cell_angle_gamma 90.00000
_space_group_name_H-M_alt      'P 1'


loop_
_space_group_symop_operation_xyz
  'x, y, z' 

loop_
_atom_site_label
_atom_site_fract_x
_atom_site_fract_y
_atom_site_fract_z
_atom_site_type_symbol
H         0.01    0.114    0.429     H
H         0.01    0.386    0.071     H
N       0.0174  0.07441  0.71049     N
N       0.0174  0.42559  0.78951     N
C       0.0221   0.0955   0.6507     C
C       0.0221   0.4045   0.8493     C
C       0.0317   0.1449   0.2048     C
C       0.0317   0.3551   0.2952     C
C        0.034    0.021  0.83719     C
C        0.034    0.479  0.66281     C
N       0.0377  0.08835  0.17507     N
N       0.0377  0.41165  0.32493     N
H       0.0402   0.5737     0.12     H
H       0.0402   0.9263     0.38     H
C       0.0435  0.11715  0.92434     C
C       0.0435  0.38285  0.57566     C
N       0.0457  0.51466  0.39293     N
N       0.0457  0.98534  0.10707     N
C       0.0514  0.56244    0.435     C
C       0.0514  0.93756    0.065     C
C       0.0548  0.53983  0.69847     C
C       0.0548  0.96017  0.80153     C
H       0.0689   0.6946    0.778     H
H       0.0689   0.8054    0.722     H
C       0.0691   0.6552   0.7575     C
C       0.0691   0.8448   0.7425     C
N       0.0703  0.22705  0.96671     N
N       0.0703  0.27295  0.53329     N
C       0.0804   0.1641  0.97462     C
C       0.0804   0.3359  0.52538     C
C       0.0878   0.0834   0.8203     C
C       0.0878   0.4166   0.6797     C
H       0.0976   0.1782   0.1895     H
H       0.0976   0.3218   0.3105     H
H        0.099    0.167    0.441     H
H        0.099    0.333    0.059     H
N       0.1039  0.12804  0.86567     N
N       0.1039  0.37196  0.63433     N
O       0.1077  0.13296  0.41945     O
O       0.1077  0.36704  0.08055     O
C       0.1107   0.1055  0.75305     C
C       0.1107   0.3945  0.74695     C
H       0.1109   0.1609   0.5894     H
H       0.1109   0.3391   0.9106     H
C       0.1135   0.1474   0.6316     C
C       0.1135   0.3526   0.8684     C
N       0.1136  0.24884  0.47601     N
N       0.1136  0.25116  0.02399     N
N       0.1281  0.14983  0.03432     N
N       0.1281  0.35017  0.46568     N
N       0.1498  0.20573  0.06437     N
N       0.1498  0.29427  0.43563     N
N       0.1607  0.54133  0.00839     N
N       0.1607  0.95867  0.49161     N
C       0.1633   0.5482   0.7494     C
C       0.1633   0.9518   0.7506     C
C       0.1671  0.54843  0.48786     C
C       0.1671  0.95157  0.01214     C
C       0.1695   0.6066   0.7791     C
C       0.1695   0.8934   0.7209     C
N       0.1756  0.56838  0.95198     N
N       0.1756  0.93162  0.54802     N
Zn      0.1765  0.07186  0.08699    Zn
Zn      0.1765  0.42814  0.41301    Zn
C       0.2087   0.1793   0.6757     C
C       0.2087   0.3207   0.8243     C
C       0.2099   0.1573   0.7385     C
C       0.2099   0.3427   0.7615     C
N       0.2174  0.58546  0.53556     N
N       0.2174  0.91454  0.96444     N
H       0.2243   0.7305    0.177     H
H       0.2243   0.7695    0.323     H
H       0.2286   0.6641   0.2851     H
H       0.2286   0.8359   0.2149     H
H       0.2312   0.5149   0.7634     H
H       0.2312   0.9851   0.7366     H
N       0.2406  0.00897   0.0102     N
N       0.2406  0.49103   0.4898     N
H       0.2413   0.6131   0.8136     H
H       0.2413   0.8869   0.6864     H
H       0.2587   0.6864   0.6131     H
H       0.2587   0.8136   0.8869     H
N       0.2594   0.0102  0.49103     N
N       0.2594   0.4898  0.00897     N
H       0.2688   0.7366   0.5149     H
H       0.2688   0.7634   0.9851     H
H       0.2714   0.2149   0.6641     H
H       0.2714   0.2851   0.8359     H
H       0.2757    0.177   0.7695     H
H       0.2757    0.323   0.7305     H
N       0.2826  0.53556  0.91454     N
N       0.2826  0.96444  0.58546     N
C       0.2901   0.7385   0.3427     C
C       0.2901   0.7615   0.1573     C
C       0.2913   0.6757   0.3207     C
C       0.2913   0.8243   0.1793     C
Zn      0.3235  0.08699  0.42814    Zn
Zn      0.3235  0.41301  0.07186    Zn
N       0.3244  0.54802  0.56838     N
N       0.3244  0.95198  0.93162     N
C       0.3305   0.7209   0.6066     C
C       0.3305   0.7791   0.8934     C
C       0.3329  0.01214  0.54843     C
C       0.3329  0.48786  0.95157     C
C       0.3367   0.7494   0.9518     C
C       0.3367   0.7506   0.5482     C
N       0.3393  0.00839  0.95867     N
N       0.3393  0.49161  0.54133     N
N       0.3502  0.06437  0.29427     N
N       0.3502  0.43563  0.20573     N
N       0.3719  0.03432  0.35017     N
N       0.3719  0.46568  0.14983     N
N       0.3864  0.02399  0.24884     N
N       0.3864  0.47601  0.25116     N
C       0.3865   0.6316   0.3526     C
C       0.3865   0.8684   0.1474     C
H       0.3891   0.5894   0.3391     H
H       0.3891   0.9106   0.1609     H
C       0.3893  0.74695   0.1055     C
C       0.3893  0.75305   0.3945     C
O       0.3923  0.08055  0.13296     O
O       0.3923  0.41945  0.36704     O
N       0.3961  0.63433  0.12804     N
N       0.3961  0.86567  0.37196     N
H        0.401    0.059    0.167     H
H        0.401    0.441    0.333     H
H       0.4024   0.1895   0.3218     H
H       0.4024   0.3105   0.1782     H
C       0.4122   0.6797   0.0834     C
C       0.4122   0.8203   0.4166     C
C       0.4196  0.52538   0.1641     C
C       0.4196  0.97462   0.3359     C
N       0.4297  0.53329  0.22705     N
N       0.4297  0.96671  0.27295     N
C       0.4309   0.7425   0.6552     C
C       0.4309   0.7575   0.8448     C
H       0.4311    0.722   0.6946     H
H       0.4311    0.778   0.8054     H
C       0.4452  0.69847  0.96017     C
C       0.4452  0.80153  0.53983     C
C       0.4486    0.065  0.56244     C
C       0.4486    0.435  0.93756     C
N       0.4543  0.10707  0.51466     N
N       0.4543  0.39293  0.98534     N
C       0.4565  0.57566  0.11715     C
C       0.4565  0.92434  0.38285     C
H       0.4598     0.12   0.9263     H
H       0.4598     0.38   0.5737     H
N       0.4623  0.17507  0.41165     N
N       0.4623  0.32493  0.08835     N
C        0.466  0.66281    0.021     C
C        0.466  0.83719    0.479     C
C       0.4683   0.2048   0.3551     C
C       0.4683   0.2952   0.1449     C
C       0.4779   0.6507   0.4045     C
C       0.4779   0.8493   0.0955     C
N       0.4826  0.71049  0.42559     N
N       0.4826  0.78951  0.07441     N
H         0.49    0.071    0.114     H
H         0.49    0.429    0.386     H
H         0.51    0.571    0.614     H
H         0.51    0.929    0.886     H
N       0.5174  0.21049  0.92559     N
N       0.5174  0.28951  0.57441     N
C       0.5221   0.1507   0.9045     C
C       0.5221   0.3493   0.5955     C
C       0.5317   0.7048   0.8551     C
C       0.5317   0.7952   0.6449     C
C        0.534  0.16281    0.521     C
C        0.534  0.33719    0.979     C
N       0.5377  0.67507  0.91165     N
N       0.5377  0.82493  0.58835     N
H       0.5402     0.62   0.4263     H
H       0.5402     0.88   0.0737     H
C       0.5435  0.07566  0.61715     C
C       0.5435  0.42434  0.88285     C
N       0.5457  0.60707  0.01466     N
N       0.5457  0.89293  0.48534     N
C       0.5514    0.565  0.06244     C
C       0.5514    0.935  0.43756     C
C       0.5548  0.19847  0.46017     C
C       0.5548  0.30153  0.03983     C
H       0.5689    0.222   0.1946     H
H       0.5689    0.278   0.3054     H
C       0.5691   0.2425   0.1552     C
C       0.5691   0.2575   0.3448     C
N       0.5703  0.03329  0.72705     N
N       0.5703  0.46671  0.77295     N
C       0.5804  0.02538   0.6641     C
C       0.5804  0.47462   0.8359     C
C       0.5878   0.1797   0.5834     C
C       0.5878   0.3203   0.9166     C
H       0.5976   0.6895   0.8218     H
H       0.5976   0.8105   0.6782     H
H        0.599    0.559    0.667     H
H        0.599    0.941    0.833     H
N       0.6039  0.13433  0.62804     N
N       0.6039  0.36567  0.87196     N
O       0.6077  0.58055  0.63296     O
O       0.6077  0.91945  0.86704     O
C       0.6107  0.24695   0.6055     C
C       0.6107  0.25305   0.8945     C
H       0.6109   0.0894   0.8391     H
H       0.6109   0.4106   0.6609     H
C       0.6135   0.1316   0.8526     C
C       0.6135   0.3684   0.6474     C
N       0.6136  0.52399  0.74884     N
N       0.6136  0.97601  0.75116     N
N       0.6281  0.53432  0.85017     N
N       0.6281  0.96568  0.64983     N
N       0.6498  0.56437  0.79427     N
N       0.6498  0.93563  0.70573     N
N       0.6607  0.50839  0.45867     N
N       0.6607  0.99161  0.04133     N
C       0.6633   0.2494   0.4518     C
C       0.6633   0.2506   0.0482     C
C       0.6671  0.51214  0.04843     C
C       0.6671  0.98786  0.45157     C
C       0.6695   0.2209   0.1066     C
C       0.6695   0.2791   0.3934     C
N       0.6756  0.04802  0.06838     N
N       0.6756  0.45198  0.43162     N
Zn      0.6765  0.58699  0.92814    Zn
Zn      0.6765  0.91301  0.57186    Zn
C       0.7087   0.1757   0.8207     C
C       0.7087   0.3243   0.6793     C
C       0.7099   0.2385   0.8427     C
C       0.7099   0.2615   0.6573     C
N       0.7174  0.03556  0.41454     N
N       0.7174  0.46444  0.08546     N
H       0.7243    0.677   0.2695     H
H       0.7243    0.823   0.2305     H
H       0.7286   0.7149   0.1641     H
H       0.7286   0.7851   0.3359     H
H       0.7312   0.2366   0.0149     H
H       0.7312   0.2634   0.4851     H
N       0.7406   0.5102  0.99103     N
N       0.7406   0.9898  0.50897     N
H       0.7413   0.1864   0.1131     H
H       0.7413   0.3136   0.3869     H
H       0.7587   0.1131   0.3136     H
H       0.7587   0.3869   0.1864     H
N       0.7594  0.50897   0.5102     N
N       0.7594  0.99103   0.9898     N
H       0.7688   0.0149   0.2634     H
H       0.7688   0.4851   0.2366     H
H       0.7714   0.1641   0.7851     H
H       0.7714   0.3359   0.7149     H
H       0.7757   0.2305    0.677     H
H       0.7757   0.2695    0.823     H
N       0.7826  0.08546  0.03556     N
N       0.7826  0.41454  0.46444     N
C       0.7901   0.6573   0.2385     C
C       0.7901   0.8427   0.2615     C
C       0.7913   0.6793   0.1757     C
C       0.7913   0.8207   0.3243     C
Zn      0.8235  0.57186  0.58699    Zn
Zn      0.8235  0.92814  0.91301    Zn
N       0.8244  0.06838  0.45198     N
N       0.8244  0.43162  0.04802     N
C       0.8305   0.1066   0.2791     C
C       0.8305   0.3934   0.2209     C
C       0.8329  0.04843  0.98786     C
C       0.8329  0.45157  0.51214     C
C       0.8367   0.0482   0.2494     C
C       0.8367   0.4518   0.2506     C
N       0.8393  0.04133  0.50839     N
N       0.8393  0.45867  0.99161     N
N       0.8502  0.70573  0.56437     N
N       0.8502  0.79427  0.93563     N
N       0.8719  0.64983  0.53432     N
N       0.8719  0.85017  0.96568     N
N       0.8864  0.74884  0.97601     N
N       0.8864  0.75116  0.52399     N
C       0.8865   0.6474   0.1316     C
C       0.8865   0.8526   0.3684     C
H       0.8891   0.6609   0.0894     H
H       0.8891   0.8391   0.4106     H
C       0.8893   0.6055  0.25305     C
C       0.8893   0.8945  0.24695     C
O       0.8923  0.63296  0.91945     O
O       0.8923  0.86704  0.58055     O
N       0.8961  0.62804  0.36567     N
N       0.8961  0.87196  0.13433     N
H        0.901    0.667    0.941     H
H        0.901    0.833    0.559     H
H       0.9024   0.6782   0.6895     H
H       0.9024   0.8218   0.8105     H
C       0.9122   0.5834   0.3203     C
C       0.9122   0.9166   0.1797     C
C       0.9196   0.6641  0.47462     C
C       0.9196   0.8359  0.02538     C
N       0.9297  0.72705  0.46671     N
N       0.9297  0.77295  0.03329     N
C       0.9309   0.1552   0.2575     C
C       0.9309   0.3448   0.2425     C
H       0.9311   0.1946    0.278     H
H       0.9311   0.3054    0.222     H
C       0.9452  0.03983  0.19847     C
C       0.9452  0.46017  0.30153     C
C       0.9486  0.06244    0.935     C
C       0.9486  0.43756    0.565     C
N       0.9543  0.01466  0.89293     N
N       0.9543  0.48534  0.60707     N
C       0.9565  0.61715  0.42434     C
C       0.9565  0.88285  0.07566     C
H       0.9598   0.0737     0.62     H
H       0.9598   0.4263     0.88     H
N       0.9623  0.58835  0.67507     N
N       0.9623  0.91165  0.82493     N
C        0.966    0.521  0.33719     C
C        0.966    0.979  0.16281     C
C       0.9683   0.6449   0.7048     C
C       0.9683   0.8551   0.7952     C
C       0.9779   0.5955   0.1507     C
C       0.9779   0.9045   0.3493     C
N       0.9826  0.57441  0.21049     N
N       0.9826  0.92559  0.28951     N
H         0.99    0.614    0.929     H
H         0.99    0.886    0.571     H
