data_I
_chemical_name_common  '/Users/gianmarcoterrones/Research/MOFs/MOF_structures/water_stability_work_extra_structs/cleaned_from_CCDC/QARCAP'
_cell_length_a  8.05030
_cell_length_b  8.81850
_cell_length_c 22.97200
_cell_angle_alpha 90.00000
_cell_angle_beta  90.00000
_cell_angle_gamma 90.00000
_space_group_name_H-M_alt      'P 1'


loop_
_space_group_symop_operation_xyz
  'x, y, z' 

loop_
_atom_site_label
_atom_site_fract_x
_atom_site_fract_y
_atom_site_fract_z
_atom_site_type_symbol
H       0.0134   0.2731   0.1174     H
N       0.0232   0.3884  0.99394     N
H       0.0265   0.1949   0.2134     H
N       0.0276   0.6918  0.04673     N
H       0.0326   0.7966   0.6455     H
C       0.0355   0.7798  0.29679     C
C       0.0426   0.8286   0.3543     C
H       0.0565   0.8524   0.7401     H
N       0.0623   0.7724  0.09587     N
N       0.0658   0.2424  0.00504     N
C       0.0774   0.7245  0.67048     C
C       0.0896    0.758  0.72629     C
C       0.1141   0.4298  0.94748     C
C       0.1163   0.5779  0.91739     C
H       0.1196   0.8288   0.2168     H
C       0.1198   0.7562  0.00567     C
C       0.1217   0.8593  0.25556     C
H       0.1232   0.5691   0.6075     H
N       0.1256   0.5673  0.85882     N
N       0.1274   0.9529  0.37047     N
C        0.128   0.5868  0.64737     C
C       0.1319   0.7197  0.94357     C
C       0.1505   0.6535  0.76231     C
C       0.1588   0.6889  0.82608     C
Zn     0.16522   0.9974 0.460901    Zn
N       0.1692    0.881  0.08388     N
N       0.1777    0.203  0.96601     N
N       0.1791   0.8387  0.91122     N
C       0.1843   0.4789  0.68406     C
N       0.1967   0.5092  0.74348     N
C       0.2018   0.8287  0.85382     C
N       0.2078   0.8735   0.0265     N
N       0.2099   0.3189  0.92944     N
C       0.2107   0.0337  0.32995     C
C       0.2128   0.9863  0.27221     C
H       0.2148   0.3843   0.6697     H
H       0.2251   0.9607   0.7448     H
H       0.2749   0.0393   0.2448     H
H       0.2852   0.6157   0.1697     H
C       0.2872   0.0137  0.77221     C
C       0.2893   0.9663  0.82995     C
N       0.2901   0.6811  0.42944     N
N       0.2922   0.1265   0.5265     N
C       0.2982   0.1713  0.35382     C
N       0.3033   0.4908  0.24348     N
C       0.3157   0.5211  0.18406     C
N       0.3209   0.1613  0.41122     N
N       0.3223    0.797  0.46601     N
N       0.3308    0.119  0.58388     N
Zn     0.33478   0.0026 0.960901    Zn
C       0.3412   0.3111  0.32608     C
C       0.3495   0.3465  0.26231     C
C       0.3681   0.2803  0.44357     C
C        0.372   0.4132  0.14737     C
N       0.3726   0.0471  0.87047     N
N       0.3744   0.4327  0.35882     N
H       0.3768   0.4309   0.1075     H
C       0.3783   0.1407  0.75556     C
C       0.3802   0.2438  0.50567     C
H       0.3804   0.1712   0.7168     H
C       0.3837   0.4221  0.41739     C
C       0.3859   0.5702  0.44748     C
C       0.4104    0.242  0.22629     C
C       0.4226   0.2755  0.17048     C
N       0.4342   0.7576  0.50504     N
N       0.4377   0.2276  0.59587     N
H       0.4435   0.1476   0.2401     H
C       0.4574   0.1714   0.8543     C
C       0.4645   0.2202  0.79679     C
H       0.4674   0.2034   0.1455     H
N       0.4724   0.3082  0.54673     N
H       0.4735   0.8051   0.7134     H
N       0.4768   0.6116  0.49394     N
H       0.4866   0.7269   0.6174     H
H       0.5134   0.2269   0.8826     H
N       0.5232   0.1116  0.00606     N
H       0.5265   0.3051   0.7866     H
N       0.5276   0.8082  0.95327     N
H       0.5326   0.7034   0.3545     H
C       0.5355   0.7202  0.70321     C
C       0.5426   0.6714   0.6457     C
H       0.5565   0.6476   0.2599     H
N       0.5623   0.7276  0.90413     N
N       0.5658   0.2576  0.99496     N
C       0.5774   0.7755  0.32952     C
C       0.5896    0.742  0.27371     C
C       0.6141   0.0702  0.05252     C
C       0.6163   0.9221  0.08261     C
H       0.6196   0.6712   0.7832     H
C       0.6198   0.7438  0.99433     C
C       0.6217   0.6407  0.74444     C
H       0.6232   0.9309   0.3925     H
N       0.6256   0.9327  0.14118     N
N       0.6274   0.5471  0.62953     N
C        0.628   0.9132  0.35263     C
C       0.6319   0.7803  0.05643     C
C       0.6505   0.8465  0.23769     C
C       0.6588   0.8111  0.17392     C
Zn     0.66522   0.5026 0.539099    Zn
N       0.6692    0.619  0.91612     N
N       0.6777    0.297  0.03399     N
N       0.6791   0.6613  0.08878     N
C       0.6843   0.0211  0.31594     C
N       0.6967   0.9908  0.25652     N
C       0.7018   0.6713  0.14618     C
N       0.7078   0.6265   0.9735     N
N       0.7099   0.1811  0.07056     N
C       0.7107   0.4663  0.67005     C
C       0.7128   0.5137  0.72779     C
H       0.7148   0.1157   0.3303     H
H       0.7251   0.5393   0.2552     H
H       0.7749   0.4607   0.7552     H
H       0.7852   0.8843   0.8303     H
C       0.7872   0.4863  0.22779     C
C       0.7893   0.5337  0.17005     C
N       0.7901   0.8189  0.57056     N
N       0.7922   0.3735   0.4735     N
C       0.7982   0.3287  0.64618     C
N       0.8033   0.0092  0.75652     N
C       0.8157   0.9789  0.81594     C
N       0.8209   0.3387  0.58878     N
N       0.8223    0.703  0.53399     N
N       0.8308    0.381  0.41612     N
Zn     0.83478   0.4974 0.039099    Zn
C       0.8412   0.1889  0.67392     C
C       0.8495   0.1535  0.73769     C
C       0.8681   0.2197  0.55643     C
C        0.872   0.0868  0.85263     C
N       0.8726   0.4529  0.12953     N
N       0.8744   0.0673  0.64118     N
H       0.8768   0.0691   0.8925     H
C       0.8783   0.3593  0.24444     C
C       0.8802   0.2562  0.49433     C
H       0.8804   0.3288   0.2832     H
C       0.8837   0.0779  0.58261     C
C       0.8859   0.9298  0.55252     C
C       0.9104    0.258  0.77371     C
C       0.9226   0.2245  0.82952     C
N       0.9342   0.7424  0.49496     N
N       0.9377   0.2724  0.40413     N
H       0.9435   0.3524   0.7599     H
C       0.9574   0.3286   0.1457     C
C       0.9645   0.2798  0.20321     C
H       0.9674   0.2966   0.8545     H
N       0.9724   0.1918  0.45327     N
H       0.9735   0.6949   0.2866     H
N       0.9768   0.8884  0.50606     N
H       0.9866   0.7731   0.3826     H
