data_I
_chemical_name_common  '/Users/gianmarcoterrones/Research/MOFs/MOF_structures/water_stability_work_extra_structs/cleaned_from_CCDC/QESBAR'
_cell_length_a  9.58940
_cell_length_b 10.69300
_cell_length_c 12.53500
_cell_angle_alpha 112.09000
_cell_angle_beta  90.00000
_cell_angle_gamma 90.00000
_space_group_name_H-M_alt      'P 1'


loop_
_space_group_symop_operation_xyz
  'x, y, z' 

loop_
_atom_site_label
_atom_site_fract_x
_atom_site_fract_y
_atom_site_fract_z
_atom_site_type_symbol
H       0.0076   0.3387   0.6184     H
N       0.0113   0.2555    0.058     N
H       0.0182   0.1505   0.8902     H
O        0.021    0.555   0.1608     O
H       0.0386   0.8194   0.5673     H
H       0.0396   0.3315   0.2244     H
C       0.0523   0.7336   0.3928     C
C       0.0565   0.1567   0.9601     C
C       0.0679   0.2621   0.1572     C
C       0.0787   0.8286    0.503     C
C       0.0939   0.6529   0.1781     C
C       0.1182   0.7503   0.3003     C
Cu     0.13911  0.60772  0.93752    Cu
O       0.1562   0.6863   0.1026     O
C       0.1578   0.0647   0.9604     C
C       0.1646    0.936   0.5152     C
C       0.1663   0.1718    0.166     C
O       0.1736   0.2741   0.3702     O
H       0.1791   0.0002   0.5887     H
H       0.1886   0.9996   0.8915     H
O       0.1968    0.593   0.7828     O
C        0.205     0.86   0.3211     C
C        0.213   0.0704    0.065     C
C       0.2175   0.1834   0.2834     C
H       0.2205   0.5081   0.5674     H
N       0.2288   0.9531   0.4267     N
H       0.2492   0.8699   0.2587     H
H       0.2508   0.3699   0.7587     H
N       0.2712   0.4531   0.9267     N
H       0.2795   0.0081   0.0674     H
C       0.2825   0.6834   0.7834     C
C        0.287   0.5704    0.565     C
C        0.295     0.36   0.8211     C
O       0.3032    0.093   0.2828     O
H       0.3114   0.4996   0.3915     H
H       0.3209   0.5002   0.0887     H
O       0.3264   0.7741   0.8702     O
C       0.3337   0.6718    0.666     C
C       0.3354    0.436   0.0152     C
C       0.3422   0.5647   0.4604     C
O       0.3438   0.1863   0.6026     O
Cu     0.36089  0.10772  0.43752    Cu
C       0.3818   0.2503   0.8003     C
C       0.4061   0.1529   0.6781     C
C       0.4213   0.3286    0.003     C
C       0.4321   0.7621   0.6572     C
C       0.4435   0.6567   0.4601     C
C       0.4477   0.2336   0.8928     C
H       0.4604   0.8315   0.7244     H
H       0.4614   0.3194   0.0673     H
O        0.479    0.055   0.6608     O
H       0.4818   0.6505   0.3902     H
N       0.4887   0.7555    0.558     N
H       0.4924   0.8387   0.1184     H
H       0.5076   0.1613   0.8816     H
N       0.5113   0.2445    0.442     N
H       0.5182   0.3495   0.6098     H
O        0.521    0.945   0.3392     O
H       0.5386   0.6806   0.9327     H
H       0.5396   0.1685   0.2756     H
C       0.5523   0.7664   0.1072     C
C       0.5565   0.3433   0.5399     C
C       0.5679   0.2379   0.3428     C
C       0.5787   0.6714    0.997     C
C       0.5939   0.8471   0.3219     C
C       0.6182   0.7497   0.1997     C
Cu     0.63911  0.89228  0.56248    Cu
O       0.6562   0.8137   0.3974     O
C       0.6578   0.4353   0.5396     C
C       0.6646    0.564   0.9848     C
C       0.6663   0.3282    0.334     C
O       0.6736   0.2259   0.1298     O
H       0.6791   0.4998   0.9113     H
H       0.6886   0.5004   0.6085     H
O       0.6968    0.907   0.7172     O
C        0.705     0.64   0.1789     C
C        0.713   0.4296    0.435     C
C       0.7175   0.3166   0.2166     C
H       0.7205   0.9919   0.9326     H
N       0.7288   0.5469   0.0733     N
H       0.7492   0.6301   0.2413     H
H       0.7508   0.1301   0.7413     H
N       0.7712   0.0469   0.5733     N
H       0.7795   0.4919   0.4326     H
C       0.7825   0.8166   0.7166     C
C        0.787   0.9296    0.935     C
C        0.795     0.14   0.6789     C
O       0.8032    0.407   0.2172     O
H       0.8114   0.0004   0.1085     H
H       0.8209   0.9998   0.4113     H
O       0.8264   0.7259   0.6298     O
C       0.8337   0.8282    0.834     C
C       0.8354    0.064   0.4848     C
C       0.8422   0.9353   0.0396     C
O       0.8438   0.3137   0.8974     O
Cu     0.86089  0.39228  0.06248    Cu
C       0.8818   0.2497   0.6997     C
C       0.9061   0.3471   0.8219     C
C       0.9213   0.1714    0.497     C
C       0.9321   0.7379   0.8428     C
C       0.9435   0.8433   0.0399     C
C       0.9477   0.2664   0.6072     C
H       0.9604   0.6685   0.7756     H
H       0.9614   0.1806   0.4327     H
O        0.979    0.445   0.8392     O
H       0.9818   0.8495   0.1098     H
N       0.9887   0.7445    0.942     N
H       0.9924   0.6613   0.3816     H
