data_I
_chemical_name_common  '/Users/gianmarcoterrones/Research/MOFs/MOF_structures/water_stability_work_extra_structs/cleaned_from_CCDC/QOSYAZ'
_cell_length_a 15.62510
_cell_length_b 16.32170
_cell_length_c 18.12440
_cell_angle_alpha 90.00000
_cell_angle_beta  90.00000
_cell_angle_gamma 90.00000
_space_group_name_H-M_alt      'P 1'


loop_
_space_group_symop_operation_xyz
  'x, y, z' 

loop_
_atom_site_label
_atom_site_fract_x
_atom_site_fract_y
_atom_site_fract_z
_atom_site_type_symbol
Zn     0.00486   0.1591  0.18202    Zn
Zn     0.00486   0.3409  0.68202    Zn
H        0.014   0.5228    0.018     H
H        0.014   0.9772    0.518     H
C       0.0218   0.0269   0.5444     C
C       0.0218   0.4731   0.0444     C
C       0.0374   0.6455   0.8954     C
C       0.0374   0.8545   0.3954     C
H       0.0416   0.6687   0.4881     H
H       0.0416   0.8313   0.9881     H
C       0.0446   0.1724   0.6216     C
C       0.0446   0.3276   0.1216     C
C       0.0488   0.5727    0.934     C
C       0.0488   0.9273    0.434     C
H       0.0511   0.5847   0.1584     H
H       0.0511   0.9153   0.6584     H
N       0.0512   0.6863   0.2226     N
N       0.0512   0.8137   0.7226     N
H       0.0638   0.0038   0.0982     H
H       0.0638   0.4962   0.5982     H
C       0.0673   0.6404   0.1638     C
C       0.0673   0.8596   0.6638     C
N       0.0724   0.2458   0.6455     N
N       0.0724   0.2542   0.1455     N
N       0.0844   0.0655    0.191     N
N       0.0844   0.4345    0.691     N
H       0.0851   0.6966   0.7382     H
H       0.0851   0.8034   0.2382     H
H       0.0857   0.6768   0.8806     H
H       0.0857   0.8232   0.3806     H
C       0.0869   0.7425   0.7059     C
C       0.0869   0.7575   0.2059     C
N       0.0874   0.6365    0.391     N
N       0.0874   0.8635    0.891     N
C       0.0901    0.649   0.4619     C
C       0.0901    0.851   0.9619     C
C       0.0969   0.0072   0.1421     C
C       0.0969   0.4928   0.6421     C
C       0.1039   0.0538   0.5614     C
C       0.1039   0.4462   0.0614     C
C       0.1097   0.6842   0.1131     C
C       0.1097   0.8158   0.6131     C
C       0.1153   0.1266      0.6     C
C       0.1153   0.3734      0.1     C
N       0.1252   0.7401   0.6411     N
N       0.1252   0.7599   0.1411     N
H       0.1261   0.6654   0.0655     H
H       0.1261   0.8346   0.5655     H
C        0.143   0.0478   0.2442     C
C        0.143   0.4522   0.7442     C
C       0.1477    0.544    0.945     C
C       0.1477    0.956    0.445     C
H       0.1493   0.0071    0.473     H
H       0.1493   0.4929    0.973     H
H       0.1508   0.0774   0.2888     H
H       0.1508   0.4226   0.7888     H
H       0.1522   0.0225   0.5466     H
H       0.1522   0.4775   0.0466     H
C       0.1569   0.2413   0.6403     C
C       0.1569   0.2587   0.1403     C
N        0.158   0.5464   0.6573     N
N        0.158   0.9536   0.1573     N
N       0.1611   0.6337    0.495     N
N       0.1611   0.8663    0.995     N
C       0.1705   0.6231   0.3725     C
C       0.1705   0.8769   0.8725     C
H       0.1747   0.5367   0.8971     H
H       0.1747   0.9633   0.3971     H
H       0.1786   0.5869   0.9729     H
H       0.1786   0.9131   0.4729     H
N        0.187    0.171   0.6162     N
N        0.187    0.329   0.1162     N
C       0.1879   0.5177   0.7234     C
C       0.1879   0.9823   0.2234     C
Zn      0.1895  0.64567  0.60125    Zn
Zn      0.1895  0.85433  0.10125    Zn
H       0.1926   0.6149   0.3242     H
H       0.1926   0.8851   0.8242     H
H       0.1931   0.2142   0.1532     H
H       0.1931   0.2858   0.6532     H
C       0.2165   0.6239   0.4374     C
C       0.2165   0.8761   0.9374     C
H       0.2231   0.1185   0.4414     H
H       0.2231   0.3815   0.9414     H
H        0.234    0.541   0.7504     H
H        0.234    0.959   0.2504     H
H        0.266    0.041   0.7504     H
H        0.266    0.459   0.2504     H
H       0.2769   0.6185   0.4414     H
H       0.2769   0.8815   0.9414     H
C       0.2835   0.1239   0.4374     C
C       0.2835   0.3761   0.9374     C
H       0.3069   0.7142   0.1532     H
H       0.3069   0.7858   0.6532     H
H       0.3074   0.1149   0.3242     H
H       0.3074   0.3851   0.8242     H
Zn      0.3105  0.14567  0.60125    Zn
Zn      0.3105  0.35433  0.10125    Zn
C       0.3121   0.0177   0.7234     C
C       0.3121   0.4823   0.2234     C
N        0.313    0.671   0.6162     N
N        0.313    0.829   0.1162     N
H       0.3214   0.0869   0.9729     H
H       0.3214   0.4131   0.4729     H
H       0.3253   0.0367   0.8971     H
H       0.3253   0.4633   0.3971     H
C       0.3295   0.1231   0.3725     C
C       0.3295   0.3769   0.8725     C
N       0.3389   0.1337    0.495     N
N       0.3389   0.3663    0.995     N
N        0.342   0.0464   0.6573     N
N        0.342   0.4536   0.1573     N
C       0.3431   0.7413   0.6403     C
C       0.3431   0.7587   0.1403     C
H       0.3478   0.5225   0.5466     H
H       0.3478   0.9775   0.0466     H
H       0.3492   0.5774   0.2888     H
H       0.3492   0.9226   0.7888     H
H       0.3507   0.5071    0.473     H
H       0.3507   0.9929    0.973     H
C       0.3523    0.044    0.945     C
C       0.3523    0.456    0.445     C
C        0.357   0.5478   0.2442     C
C        0.357   0.9522   0.7442     C
H       0.3739   0.1654   0.0655     H
H       0.3739   0.3346   0.5655     H
N       0.3748   0.2401   0.6411     N
N       0.3748   0.2599   0.1411     N
C       0.3847   0.6266      0.6     C
C       0.3847   0.8734      0.1     C
C       0.3903   0.1842   0.1131     C
C       0.3903   0.3158   0.6131     C
C       0.3961   0.5538   0.5614     C
C       0.3961   0.9462   0.0614     C
C       0.4031   0.5072   0.1421     C
C       0.4031   0.9928   0.6421     C
C       0.4099    0.149   0.4619     C
C       0.4099    0.351   0.9619     C
N       0.4126   0.1365    0.391     N
N       0.4126   0.3635    0.891     N
C       0.4131   0.2425   0.7059     C
C       0.4131   0.2575   0.2059     C
H       0.4143   0.1768   0.8806     H
H       0.4143   0.3232   0.3806     H
H       0.4149   0.1966   0.7382     H
H       0.4149   0.3034   0.2382     H
N       0.4156   0.5655    0.191     N
N       0.4156   0.9345    0.691     N
N       0.4276   0.7458   0.6455     N
N       0.4276   0.7542   0.1455     N
C       0.4327   0.1404   0.1638     C
C       0.4327   0.3596   0.6638     C
H       0.4362   0.5038   0.0982     H
H       0.4362   0.9962   0.5982     H
N       0.4488   0.1863   0.2226     N
N       0.4488   0.3137   0.7226     N
H       0.4489   0.0847   0.1584     H
H       0.4489   0.4153   0.6584     H
C       0.4512   0.0727    0.934     C
C       0.4512   0.4273    0.434     C
C       0.4554   0.6724   0.6216     C
C       0.4554   0.8276   0.1216     C
H       0.4584   0.1687   0.4881     H
H       0.4584   0.3313   0.9881     H
C       0.4626   0.1455   0.8954     C
C       0.4626   0.3545   0.3954     C
C       0.4782   0.5269   0.5444     C
C       0.4782   0.9731   0.0444     C
H        0.486   0.0228    0.018     H
H        0.486   0.4772    0.518     H
Zn     0.49514   0.6591  0.18202    Zn
Zn     0.49514   0.8409  0.68202    Zn
Zn     0.50486   0.1591  0.31798    Zn
Zn     0.50486   0.3409  0.81798    Zn
H        0.514   0.5228    0.482     H
H        0.514   0.9772    0.982     H
C       0.5218   0.0269   0.9556     C
C       0.5218   0.4731   0.4556     C
C       0.5374   0.6455   0.6046     C
C       0.5374   0.8545   0.1046     C
H       0.5416   0.6687   0.0119     H
H       0.5416   0.8313   0.5119     H
C       0.5446   0.1724   0.8784     C
C       0.5446   0.3276   0.3784     C
C       0.5488   0.5727    0.566     C
C       0.5488   0.9273    0.066     C
H       0.5511   0.5847   0.3416     H
H       0.5511   0.9153   0.8416     H
N       0.5512   0.6863   0.2774     N
N       0.5512   0.8137   0.7774     N
H       0.5638   0.0038   0.4018     H
H       0.5638   0.4962   0.9018     H
C       0.5673   0.6404   0.3362     C
C       0.5673   0.8596   0.8362     C
N       0.5724   0.2458   0.8545     N
N       0.5724   0.2542   0.3545     N
N       0.5844   0.0655    0.309     N
N       0.5844   0.4345    0.809     N
H       0.5851   0.6966   0.7618     H
H       0.5851   0.8034   0.2618     H
H       0.5857   0.6768   0.6194     H
H       0.5857   0.8232   0.1194     H
C       0.5869   0.7425   0.7941     C
C       0.5869   0.7575   0.2941     C
N       0.5874   0.6365    0.109     N
N       0.5874   0.8635    0.609     N
C       0.5901    0.649   0.0381     C
C       0.5901    0.851   0.5381     C
C       0.5969   0.0072   0.3579     C
C       0.5969   0.4928   0.8579     C
C       0.6039   0.0538   0.9386     C
C       0.6039   0.4462   0.4386     C
C       0.6097   0.6842   0.3869     C
C       0.6097   0.8158   0.8869     C
C       0.6153   0.1266      0.9     C
C       0.6153   0.3734      0.4     C
N       0.6252   0.7401   0.8589     N
N       0.6252   0.7599   0.3589     N
H       0.6261   0.6654   0.4345     H
H       0.6261   0.8346   0.9345     H
C        0.643   0.0478   0.2558     C
C        0.643   0.4522   0.7558     C
C       0.6477    0.544    0.555     C
C       0.6477    0.956    0.055     C
H       0.6493   0.0071    0.027     H
H       0.6493   0.4929    0.527     H
H       0.6508   0.0774   0.2112     H
H       0.6508   0.4226   0.7112     H
H       0.6522   0.0225   0.9534     H
H       0.6522   0.4775   0.4534     H
C       0.6569   0.2413   0.8597     C
C       0.6569   0.2587   0.3597     C
N        0.658   0.5464   0.8427     N
N        0.658   0.9536   0.3427     N
N       0.6611   0.6337    0.005     N
N       0.6611   0.8663    0.505     N
C       0.6705   0.6231   0.1275     C
C       0.6705   0.8769   0.6275     C
H       0.6747   0.5367   0.6029     H
H       0.6747   0.9633   0.1029     H
H       0.6786   0.5869   0.5271     H
H       0.6786   0.9131   0.0271     H
N        0.687    0.171   0.8838     N
N        0.687    0.329   0.3838     N
C       0.6879   0.5177   0.7766     C
C       0.6879   0.9823   0.2766     C
Zn      0.6895  0.64567  0.89875    Zn
Zn      0.6895  0.85433  0.39875    Zn
H       0.6926   0.6149   0.1758     H
H       0.6926   0.8851   0.6758     H
H       0.6931   0.2142   0.3468     H
H       0.6931   0.2858   0.8468     H
C       0.7165   0.6239   0.0626     C
C       0.7165   0.8761   0.5626     C
H       0.7231   0.1185   0.0586     H
H       0.7231   0.3815   0.5586     H
H        0.734    0.541   0.7496     H
H        0.734    0.959   0.2496     H
H        0.766    0.041   0.7496     H
H        0.766    0.459   0.2496     H
H       0.7769   0.6185   0.0586     H
H       0.7769   0.8815   0.5586     H
C       0.7835   0.1239   0.0626     C
C       0.7835   0.3761   0.5626     C
H       0.8069   0.7142   0.3468     H
H       0.8069   0.7858   0.8468     H
H       0.8074   0.1149   0.1758     H
H       0.8074   0.3851   0.6758     H
Zn      0.8105  0.14567  0.89875    Zn
Zn      0.8105  0.35433  0.39875    Zn
C       0.8121   0.0177   0.7766     C
C       0.8121   0.4823   0.2766     C
N        0.813    0.671   0.8838     N
N        0.813    0.829   0.3838     N
H       0.8214   0.0869   0.5271     H
H       0.8214   0.4131   0.0271     H
H       0.8253   0.0367   0.6029     H
H       0.8253   0.4633   0.1029     H
C       0.8295   0.1231   0.1275     C
C       0.8295   0.3769   0.6275     C
N       0.8389   0.1337    0.005     N
N       0.8389   0.3663    0.505     N
N        0.842   0.0464   0.8427     N
N        0.842   0.4536   0.3427     N
C       0.8431   0.7413   0.8597     C
C       0.8431   0.7587   0.3597     C
H       0.8478   0.5225   0.9534     H
H       0.8478   0.9775   0.4534     H
H       0.8492   0.5774   0.2112     H
H       0.8492   0.9226   0.7112     H
H       0.8507   0.5071    0.027     H
H       0.8507   0.9929    0.527     H
C       0.8523    0.044    0.555     C
C       0.8523    0.456    0.055     C
C        0.857   0.5478   0.2558     C
C        0.857   0.9522   0.7558     C
H       0.8739   0.1654   0.4345     H
H       0.8739   0.3346   0.9345     H
N       0.8748   0.2401   0.8589     N
N       0.8748   0.2599   0.3589     N
C       0.8847   0.6266      0.9     C
C       0.8847   0.8734      0.4     C
C       0.8903   0.1842   0.3869     C
C       0.8903   0.3158   0.8869     C
C       0.8961   0.5538   0.9386     C
C       0.8961   0.9462   0.4386     C
C       0.9031   0.5072   0.3579     C
C       0.9031   0.9928   0.8579     C
C       0.9099    0.149   0.0381     C
C       0.9099    0.351   0.5381     C
N       0.9126   0.1365    0.109     N
N       0.9126   0.3635    0.609     N
C       0.9131   0.2425   0.7941     C
C       0.9131   0.2575   0.2941     C
H       0.9143   0.1768   0.6194     H
H       0.9143   0.3232   0.1194     H
H       0.9149   0.1966   0.7618     H
H       0.9149   0.3034   0.2618     H
N       0.9156   0.5655    0.309     N
N       0.9156   0.9345    0.809     N
N       0.9276   0.7458   0.8545     N
N       0.9276   0.7542   0.3545     N
C       0.9327   0.1404   0.3362     C
C       0.9327   0.3596   0.8362     C
H       0.9362   0.5038   0.4018     H
H       0.9362   0.9962   0.9018     H
N       0.9488   0.1863   0.2774     N
N       0.9488   0.3137   0.7774     N
H       0.9489   0.0847   0.3416     H
H       0.9489   0.4153   0.8416     H
C       0.9512   0.0727    0.566     C
C       0.9512   0.4273    0.066     C
C       0.9554   0.6724   0.8784     C
C       0.9554   0.8276   0.3784     C
H       0.9584   0.1687   0.0119     H
H       0.9584   0.3313   0.5119     H
C       0.9626   0.1455   0.6046     C
C       0.9626   0.3545   0.1046     C
C       0.9782   0.5269   0.9556     C
C       0.9782   0.9731   0.4556     C
H        0.986   0.0228    0.482     H
H        0.986   0.4772    0.982     H
Zn     0.99514   0.6591  0.31798    Zn
Zn     0.99514   0.8409  0.81798    Zn
