data_I
_chemical_name_common  '/Users/gianmarcoterrones/Research/MOFs/MOF_structures/water_stability_work_extra_structs/cleaned_from_CCDC/QOSYED'
_cell_length_a 15.90294
_cell_length_b 15.90294
_cell_length_c 15.90294
_cell_angle_alpha 95.35595
_cell_angle_beta  116.95744
_cell_angle_gamma 116.95744
_space_group_name_H-M_alt      'P 1'


loop_
_space_group_symop_operation_xyz
  'x, y, z' 

loop_
_atom_site_label
_atom_site_fract_x
_atom_site_fract_y
_atom_site_fract_z
_atom_site_type_symbol
H        0.001    0.441   0.1602     H
C       0.0067   0.3466   0.9723     C
N       0.0068   0.8291   0.4035     N
H       0.0144   0.9413   0.0759     H
H       0.0163   0.7024   0.1653     H
H        0.019    0.168   0.0866     H
C       0.0223    0.852   0.3267     C
C       0.0253   0.6733   0.6956     C
C       0.0277   0.4181   0.1268     C
C       0.0357   0.6231   0.9804     C
H       0.0371   0.8347    0.851     H
N       0.0412   0.7161   0.5743     N
H       0.0419   0.6741   0.7612     H
C       0.0528   0.8573   0.9189     C
C       0.0566   0.3632    0.459     C
C       0.0616   0.6955   0.1427     C
C       0.0663   0.1516   0.7443     C
N       0.0744   0.4035   0.3967     N
H       0.0765   0.1401   0.8048     H
H       0.0814    0.649    0.168     H
H       0.0871   0.8678   0.3259     H
H       0.0902   0.8959   0.0955     H
C        0.092   0.9586   0.1058     C
C       0.0927   0.7443    0.678     C
H       0.0931   0.8307    0.962     H
C       0.0958   0.1934   0.6368     C
H       0.1043   0.6143    0.467     H
C       0.1079   0.3525    0.028     C
Co     0.11009  0.80816  0.51599    Co
H        0.116   0.3924    0.529     H
C       0.1257   0.9723   0.9656     C
C       0.1302   0.4256    0.184     C
H       0.1313   0.7624   0.1693     H
H       0.1346   0.5731   0.0587     H
H       0.1352   0.3305   0.9947     H
H       0.1366   0.2236   0.6076     H
H       0.1383   0.9988   0.1789     H
N       0.1418   0.1749   0.7161     N
C       0.1427   0.0196   0.0553     C
C       0.1472   0.6334   0.0414     C
H       0.1473     0.01   0.6143     H
C       0.1498   0.6598    0.448     C
H       0.1642   0.9947   0.8595     H
H       0.1647   0.8048   0.7283     H
C        0.169   0.3919   0.1353     C
N       0.1731   0.7539   0.4618     N
C       0.1755    0.028   0.9201     C
H       0.1801   0.6395   0.0012     H
N       0.1951   0.6338   0.4055     N
H       0.1996   0.6943   0.1041     H
Co     0.20783  0.51599   0.4059    Co
N       0.2079   0.4618   0.2887     N
C       0.2087   0.1268   0.0991     C
C       0.2118     0.01   0.6598     C
H       0.2192   0.1602   0.1592     H
N       0.2283   0.9387   0.6338     N
C       0.2416   0.7954   0.4256     C
C       0.2434   0.1353   0.9663     C
C       0.2566   0.7229   0.3919     C
C       0.2584    0.184   0.0538     C
N       0.2717   0.4055   0.2104     N
H       0.2808     0.94    0.441     H
C       0.2882    0.448   0.2982     C
C       0.2913   0.8904   0.4181     C
N       0.2921   0.0808   0.7539     N
Co     0.29217  0.19807  0.80816    Co
H       0.3004   0.9045   0.9947     H
N       0.3049   0.2104   0.9387     N
H       0.3199   0.8211   0.9594     H
C       0.3245   0.7446   0.3525     C
N       0.3269   0.2887   0.0808     N
C        0.331   0.9663   0.7229     C
H       0.3353   0.5636   0.1401     H
H       0.3358   0.6953   0.3305     H
C       0.3502   0.2982     0.01     C
H       0.3527    0.467   0.3627     H
C       0.3528   0.8942   0.9862     C
C       0.3573   0.9126   0.3769     C
N       0.3582   0.5743   0.5331     N
H       0.3617   0.0406   0.3605     H
H       0.3634    0.471    0.587     H
H       0.3648   0.8595   0.6953     H
H       0.3654   0.9241   0.9385     H
H       0.3687    0.038   0.1311     H
C       0.3698   0.0538   0.7954     C
C       0.3743   0.8399   0.3466     C
H        0.384    0.413   0.7764     H
Co     0.38991   0.4059  0.19807    Co
C       0.3921   0.9201   0.7446     C
H       0.3957   0.3627     0.01     H
C       0.4042    0.541   0.5976     C
H       0.4069   0.8689   0.2376     H
C       0.4073   0.5853   0.1516     C
C        0.408   0.0138   0.3666     C
H       0.4098   0.0053   0.3057     H
H       0.4129   0.2388   0.2807     H
H       0.4186   0.0866   0.0676     H
H       0.4235   0.7283   0.5636     H
N       0.4256   0.3223   0.8291     N
C       0.4337    0.678   0.5853     C
C       0.4384   0.0811   0.1339     C
C       0.4434   0.4024   0.8066     C
C       0.4472   0.8661   0.3045     C
H       0.4581   0.7193   0.1322     H
N       0.4588   0.5331   0.1749     N
H       0.4629   0.8139   0.2976     H
C       0.4643   0.9447   0.0874     C
C       0.4723   0.0991   0.8904     C
C       0.4747   0.6703    0.148     C
C       0.4777   0.3044   0.3297     C
H        0.481   0.0676    0.649     H
H       0.4837    0.149   0.1861     H
H       0.4856   0.0615   0.4269     H
N       0.4932   0.3967   0.3223     N
C       0.4933   0.9656   0.8399     C
H        0.499   0.1592     0.94     H
H        0.501   0.8408     0.06     H
C       0.5067   0.0344   0.1601     C
N       0.5068   0.6033   0.6777     N
H       0.5144   0.9385   0.5731     H
H       0.5163    0.851   0.8139     H
H        0.519   0.9324    0.351     H
C       0.5223   0.6956   0.6703     C
C       0.5253   0.3297    0.852     C
C       0.5277   0.9009   0.1096     C
C       0.5357   0.0553   0.9126     C
H       0.5371   0.1861   0.7024     H
N       0.5412   0.4669   0.8251     N
H       0.5419   0.2807   0.8678     H
C       0.5528   0.1339   0.6955     C
C       0.5566   0.5976   0.1934     C
C       0.5616   0.9189   0.8661     C
C       0.5663    0.322   0.4147     C
N       0.5744   0.6777   0.1709     N
H       0.5765   0.2717   0.4364     H
H       0.5814   0.9134   0.9324     H
H       0.5871   0.7612   0.7193     H
H       0.5902   0.9947   0.6943     H
C        0.592   0.9862   0.6334     C
C       0.5927   0.4147   0.8484     C
H       0.5931   0.1311   0.7624     H
C       0.5958    0.459   0.4024     C
H       0.6043   0.6373     0.99     H
C       0.6079   0.0799   0.2554     C
Co     0.61009   0.5941  0.80193    Co
H        0.616    0.587   0.2236     H
C       0.6257   0.1601   0.6534     C
C       0.6302   0.9462   0.2046     C
H       0.6313    0.962   0.8689     H
H       0.6346   0.0759   0.0615     H
H       0.6352   0.1405   0.3047     H
H       0.6366    0.529    0.413     H
H       0.6383   0.9594   0.6395     H
N       0.6418   0.4257   0.4669     N
C       0.6427   0.0874   0.6231     C
C       0.6472   0.1058   0.0138     C
H       0.6473    0.533   0.6373     H
C       0.6498   0.7018     0.99     C
H       0.6642   0.3047   0.6695     H
H       0.6647   0.4364   0.8599     H
C        0.669   0.0337   0.2771     C
N       0.6731   0.7113   0.9192     N
C       0.6755   0.2554   0.6475     C
H       0.6801   0.1789   0.0406     H
N       0.6951   0.7896   0.0613     N
H       0.6996   0.0955   0.0053     H
Co     0.70783  0.80193  0.19184    Co
N       0.7079   0.9192   0.2461     N
C       0.7087   0.1096   0.5819     C
C       0.7118    0.552   0.7018     C
H       0.7192     0.06    0.559     H
N       0.7283   0.5945   0.7896     N
C       0.7416    0.816   0.9462     C
C       0.7434   0.2771   0.6081     C
C       0.7566   0.8647   0.0337     C
C       0.7584   0.2046   0.5744     C
N       0.7717   0.0613   0.3662     N
H       0.7808   0.8398   0.8408     H
C       0.7882     0.99   0.3402     C
C       0.7913   0.8732   0.9009     C
N       0.7921   0.5382   0.7113     N
Co     0.79217  0.48401   0.5941    Co
H       0.8004   0.3057   0.8959     H
N       0.8049   0.3662   0.5945     N
H       0.8199   0.3605   0.9988     H
C       0.8245    0.972   0.0799     C
N       0.8269   0.2461   0.5382     N
C        0.831   0.6081   0.8647     C
H       0.8353   0.1952   0.2717     H
H       0.8358   0.0053   0.1405     H
C       0.8502   0.3402    0.552     C
H       0.8527     0.99   0.3857     H
C       0.8528   0.3666   0.9586     C
C       0.8573   0.9804   0.9447     C
N       0.8582   0.8251   0.2839     N
H       0.8617   0.0012   0.8211     H
H       0.8634   0.7764   0.3924     H
H       0.8648   0.6695   0.0053     H
H       0.8654   0.4269   0.9413     H
H       0.8687   0.2376   0.8307     H
C       0.8698   0.5744    0.816     C
C       0.8743   0.0277   0.0344     C
H        0.884   0.6076    0.471     H
Co     0.88991  0.19184  0.48401    Co
C       0.8921   0.6475    0.972     C
H       0.8957   0.3857    0.533     H
C       0.9042   0.8066   0.3632     C
H       0.9069   0.1693    0.038     H
C       0.9073   0.2557    0.322     C
C        0.908   0.0414   0.8942     C
H       0.9098   0.1041   0.9045     H
H       0.9129   0.1322   0.6741     H
H       0.9186    0.351    0.832     H
H       0.9235   0.8599   0.1952     H
N       0.9256   0.5965   0.6033     N
C       0.9337   0.8484   0.2557     C
C       0.9384   0.3045   0.8573     C
C       0.9434   0.6368    0.541     C
C       0.9472   0.1427   0.0811     C
H       0.9581   0.3259   0.2388     H
N       0.9588   0.2839   0.4257     N
H       0.9629   0.1653    0.149     H
C       0.9643   0.3769   0.0196     C
C       0.9723   0.5819   0.8732     C
C       0.9747   0.3267   0.3044     C
C       0.9777    0.148   0.6733     C
H        0.981    0.832   0.9134     H
H       0.9837   0.2976   0.8347     H
H       0.9856   0.0587   0.9241     H
N       0.9932   0.1709   0.5965     N
C       0.9933   0.6534   0.0277     C
H        0.999    0.559   0.8398     H
