data_I
_chemical_name_common  '/Users/gianmarcoterrones/Research/MOFs/MOF_structures/water_stability_work_extra_structs/cleaned_from_CCDC/QOXFAK02'
_cell_length_a  8.15170
_cell_length_b  8.57940
_cell_length_c 10.12330
_cell_angle_alpha 87.01700
_cell_angle_beta  75.96100
_cell_angle_gamma 75.17400
_space_group_name_H-M_alt      'P 1'


loop_
_space_group_symop_operation_xyz
  'x, y, z' 

loop_
_atom_site_label
_atom_site_fract_x
_atom_site_fract_y
_atom_site_fract_z
_atom_site_type_symbol
N       0.0206   0.8458  0.24873     N
H       0.0381    0.625   0.1938     H
O      0.04046  0.70562  0.51304     O
H       0.0458   0.0656   0.2621     H
C       0.0833    0.714    0.168     C
C       0.0877   0.9729    0.208     C
Co     0.15627   0.1609   0.5579    Co
C       0.2116   0.7037   0.0483     C
C       0.2152   0.9734   0.0901     C
O      0.21782  0.92141  0.54741     O
V      0.23116  0.72646  0.53016     V
H       0.2387   0.3893   0.3188     H
H       0.2509   0.6096   0.9959     H
H        0.257   0.0646   0.0661     H
O      0.27127  0.30236  0.62953     O
C        0.281   0.8356  0.00718     C
O      0.28175  0.62245  0.67779     O
H        0.325   0.0654   0.8274     H
C       0.3277   0.2973   0.2891     C
N       0.3332  0.16413  0.36593     N
O       0.3491  0.37043  0.85866     O
V      0.37382  0.41005  0.69808     V
O      0.39509  0.64362  0.38456     O
C       0.4117   0.9714   0.7998     C
C       0.4169   0.8336  0.87903     C
H       0.4415   0.3978   0.1172     H
C       0.4493   0.3033   0.1673     C
C       0.4626   0.0332   0.3206     C
H       0.4682   0.9404   0.3729     H
H       0.5318   0.0596   0.6271     H
C       0.5374   0.9668   0.6794     C
C       0.5507   0.6967   0.8327     C
H       0.5585   0.6022   0.8828     H
C       0.5831   0.1664  0.12097     C
C       0.5883   0.0286   0.2002     C
O      0.60491  0.35638  0.61544     O
V      0.62618  0.58995  0.30192     V
O       0.6509  0.62957  0.14134     O
N       0.6668  0.83587  0.63407     N
C       0.6723   0.7027   0.7109     C
H        0.675   0.9346   0.1726     H
O      0.71825  0.37755  0.32221     O
C        0.719   0.1644  0.99282     C
O      0.72873  0.69764  0.37047     O
H        0.743   0.9354   0.9339     H
H       0.7491   0.3904   0.0041     H
H       0.7613   0.6107   0.6812     H
V      0.76884  0.27354  0.46984     V
O      0.78218  0.07859  0.45259     O
C       0.7848   0.0266   0.9099     C
C       0.7884   0.2963   0.9517     C
Co     0.84373   0.8391   0.4421    Co
C       0.9123   0.0271    0.792     C
C       0.9167    0.286    0.832     C
H       0.9542   0.9344   0.7379     H
O      0.95954  0.29438  0.48696     O
H       0.9619    0.375   0.8062     H
N       0.9794   0.1542  0.75127     N
