data_I
_chemical_name_common  '/Users/gianmarcoterrones/Research/MOFs/MOF_structures/water_stability_work_extra_structs/cleaned_from_CCDC/QUDJUV'
_cell_length_a 10.37364
_cell_length_b 10.37364
_cell_length_c 11.65600
_cell_angle_alpha 84.48014
_cell_angle_beta  84.48014
_cell_angle_gamma 89.73052
_space_group_name_H-M_alt      'P 1'


loop_
_space_group_symop_operation_xyz
  'x, y, z' 

loop_
_atom_site_label
_atom_site_fract_x
_atom_site_fract_y
_atom_site_fract_z
_atom_site_type_symbol
C       0.0189   0.0189   0.3782     C
C       0.0223   0.4415   0.1537     C
H       0.0311   0.0311   0.2978     H
H       0.0413   0.3393   0.5285     H
C       0.0505   0.4903    0.041     C
H       0.0632   0.5766   0.8176     H
C        0.074   0.9066   0.5615     C
H        0.078   0.4288   0.6214     H
C       0.0934    0.926   0.4385     C
H        0.098   0.3828   0.3002     H
C       0.1116   0.3792   0.5599     C
C       0.1202   0.4192   0.2249     C
H       0.1389   0.7987      0.7     H
C       0.1512   0.8122   0.6196     C
H       0.1588   0.4354   0.5002     H
C       0.1766   0.5202   0.0083     C
N       0.1866   0.2924    0.599     N
C       0.1878   0.8488   0.3804     C
H       0.2013   0.8611      0.3     H
H       0.2016   0.5558   0.9333     H
C       0.2421   0.7411   0.5624     C
N        0.243   0.4458   0.1933     N
C       0.2546   0.2546   0.5183     C
C       0.2589   0.7579   0.4376     C
C       0.2678   0.4976   0.0864     C
O       0.2726   0.2726   0.4176     O
O       0.2769   0.5841   0.7179     O
N       0.2924   0.1866    0.599     N
C       0.3295   0.6531   0.6316     C
O       0.3377   0.5513   0.3994     O
H       0.3393   0.0413   0.5285     H
C       0.3469   0.6705   0.3684     C
H       0.3531   0.5209   0.0615     H
C       0.3792   0.1116   0.5599     C
H       0.3828    0.098   0.3002     H
Zn     0.40008  0.40008  0.30558    Zn
H       0.4105   0.4919   0.7993     H
O       0.4159   0.7231   0.2821     O
C       0.4192   0.1202   0.2249     C
H       0.4234   0.9368   0.1824     H
H       0.4288    0.078   0.6214     H
H       0.4354   0.1588   0.5002     H
C       0.4415   0.0223   0.1537     C
H       0.4442   0.7984   0.0667     H
N       0.4458    0.243   0.1933     N
O       0.4487   0.6623   0.6006     O
O       0.4739   0.4739   0.8149     O
H       0.4791   0.6469   0.9385     H
C       0.4798   0.8234   0.9917     C
C       0.4903   0.0505    0.041     C
H       0.4919   0.4105   0.7993     H
C       0.4976   0.2678   0.0864     C
C       0.5024   0.7322   0.9136     C
H       0.5081   0.5895   0.2007     H
C       0.5097   0.9495    0.959     C
C       0.5202   0.1766   0.0083     C
H       0.5209   0.3531   0.0615     H
O       0.5261   0.5261   0.1851     O
O       0.5513   0.3377   0.3994     O
N       0.5542    0.757   0.8067     N
H       0.5558   0.2016   0.9333     H
C       0.5585   0.9777   0.8463     C
H       0.5646   0.8412   0.4998     H
H       0.5712    0.922   0.3786     H
H       0.5766   0.0632   0.8176     H
C       0.5808   0.8798   0.7751     C
O       0.5841   0.2769   0.7179     O
H       0.5895   0.5081   0.2007     H
Zn     0.59992  0.59992  0.69442    Zn
H       0.6172    0.902   0.6998     H
C       0.6208   0.8884   0.4401     C
H       0.6469   0.4791   0.9385     H
C       0.6531   0.3295   0.6316     C
H       0.6607   0.9587   0.4715     H
O       0.6623   0.4487   0.6006     O
C       0.6705   0.3469   0.3684     C
N       0.7076   0.8134    0.401     N
O       0.7231   0.4159   0.2821     O
O       0.7274   0.7274   0.5824     O
C       0.7322   0.5024   0.9136     C
C       0.7411   0.2421   0.5624     C
C       0.7454   0.7454   0.4817     C
N        0.757   0.5542   0.8067     N
C       0.7579   0.2589   0.4376     C
H       0.7984   0.4442   0.0667     H
H       0.7987   0.1389      0.7     H
C       0.8122   0.1512   0.6196     C
N       0.8134   0.7076    0.401     N
C       0.8234   0.4798   0.9917     C
H       0.8412   0.5646   0.4998     H
C       0.8488   0.1878   0.3804     C
H       0.8611   0.2013      0.3     H
C       0.8798   0.5808   0.7751     C
C       0.8884   0.6208   0.4401     C
H        0.902   0.6172   0.6998     H
C       0.9066    0.074   0.5615     C
H        0.922   0.5712   0.3786     H
C        0.926   0.0934   0.4385     C
H       0.9368   0.4234   0.1824     H
C       0.9495   0.5097    0.959     C
H       0.9587   0.6607   0.4715     H
H       0.9689   0.9689   0.7022     H
C       0.9777   0.5585   0.8463     C
C       0.9811   0.9811   0.6218     C
