data_I
_chemical_name_common  '/Users/gianmarcoterrones/Downloads/RO-MOFa'
_cell_length_a 10.88262
_cell_length_b 16.08420
_cell_length_c 18.29230
_cell_angle_alpha 90.00000
_cell_angle_beta  90.00000
_cell_angle_gamma 90.00000
_space_group_name_H-M_alt      'P 1'


loop_
_space_group_symop_operation_xyz
  'x, y, z' 

loop_
_atom_site_label
_atom_site_fract_x
_atom_site_fract_y
_atom_site_fract_z
_atom_site_type_symbol
H     -0.177929 -0.0572945 0.827807     H
H     -0.177929 0.0572945  1.17219     H
H     -0.17286 -0.0564825 0.699038     H
H     -0.17286 0.0564825  1.30096     H
O     -0.12834 -0.08902  0.43842     O
O     -0.12834 -0.08902  0.56162     O
O     -0.12834  0.08902  0.43842     O
O     -0.12834  0.08902  0.56162     O
C     -0.097514 -0.03157  0.80068     C
C     -0.097514  0.03157  1.19948     C
C     -0.093713 -0.03057  0.72747     C
C     -0.093713  0.03057  1.27267     C
H     -0.0817052 -0.239296 0.960113     H
H     -0.0817052 -0.239296  1.03989     H
H     -0.0817052 0.239296 0.960113     H
H     -0.0817052 0.239296  1.03989     H
H     -1.15539e-17 -0.25238 0.876709     H
H     -1.15539e-17  0.25238  1.12329     H
C          0.0 -0.221313  0.92961     C
C          0.0 -0.221313  1.07041     C
O          0.0 -0.14717  0.92065     O
O          0.0 -0.14717  1.07945     O
C          0.0 -0.07019  0.96287     C
C          0.0 -0.07019  1.03727     C
N          0.0      0.0  0.31597     N
Zn         0.0      0.0 0.419721    Zn
Zn         0.0      0.0 0.580281    Zn
N          0.0      0.0  0.68417     N
C          0.0      0.0  0.84358     C
C          0.0      0.0  0.92089     C
C          0.0      0.0  1.07929     C
C          0.0      0.0  1.15658     C
Zn         0.0      0.0 1.419721    Zn
C          0.0  0.07019  0.96287     C
C          0.0  0.07019  1.03727     C
O          0.0  0.14717  0.92065     O
O          0.0  0.14717  1.07945     O
C          0.0 0.221313  0.92961     C
C          0.0 0.221313  1.07041     C
Zn         0.0      1.0 0.419721    Zn
Zn         0.0      1.0 0.580281    Zn
H     1.15539e-17 -0.25238  1.12329     H
H     1.15539e-17  0.25238 0.876709     H
H     0.0817052 -0.239296 0.960113     H
H     0.0817052 -0.239296  1.03989     H
H     0.0817052 0.239296 0.960113     H
H     0.0817052 0.239296  1.03989     H
C     0.093713 -0.03057  1.27267     C
C     0.093713  0.03057  0.72747     C
C     0.097514 -0.03157  1.19948     C
C     0.097514  0.03157  0.80068     C
O      0.12834 -0.08902  0.43842     O
O      0.12834 -0.08902  0.56162     O
O      0.12834  0.08902  0.43842     O
O      0.12834  0.08902  0.56162     O
C      0.15487  0.11334      0.5     C
C      0.15487  0.88674      0.5     C
H      0.17286 -0.0564825  1.30096     H
H      0.17286 0.0564825 0.699038     H
H     0.177929 -0.0572945  1.17219     H
H     0.177929 0.0572945 0.827807     H
Br    0.2002213      0.5      0.5    Br
C      0.23818  0.19634      0.5     C
C      0.23818  0.80374      0.5     C
H      0.24911 0.200665 0.383323     H
H      0.24911 0.200665 0.616677     H
H      0.24911 0.799335 0.383323     H
H      0.24911 0.799335 0.616677     H
C      0.27277  0.23074  0.43484     C
C      0.27277  0.23074  0.56524     C
C      0.27277  0.76934  0.43484     C
C      0.27277  0.76934  0.56524     C
C      0.33797  0.30404  0.43554     C
C      0.33797  0.30404  0.56454     C
C      0.33797  0.69604  0.43554     C
C      0.33797  0.69604  0.56454     C
H     0.365072 0.332293 0.383885     H
H     0.365072 0.332293 0.616115     H
H     0.365072 0.667707 0.383885     H
H     0.365072 0.667707 0.616115     H
C      0.36947  0.34224      0.5     C
C      0.36947  0.65784      0.5     C
C      0.37559      0.5      0.5     C
C      0.43737  0.42404      0.5     C
C      0.43737  0.57604      0.5     C
C      0.56277  0.42404      0.5     C
C      0.56277  0.57604      0.5     C
C      0.62459      0.5      0.5     C
C      0.63067  0.34224      0.5     C
C      0.63067  0.65784      0.5     C
H     0.634928 0.332293 0.383885     H
H     0.634928 0.332293 0.616115     H
H     0.634928 0.667707 0.383885     H
H     0.634928 0.667707 0.616115     H
C      0.66217  0.30404  0.43554     C
C      0.66217  0.30404  0.56454     C
C      0.66217  0.69604  0.43554     C
C      0.66217  0.69604  0.56454     C
C      0.72737  0.23074  0.43484     C
C      0.72737  0.23074  0.56524     C
C      0.72737  0.76934  0.43484     C
C      0.72737  0.76934  0.56524     C
H      0.75089 0.200665 0.383323     H
H      0.75089 0.200665 0.616677     H
H      0.75089 0.799335 0.383323     H
H      0.75089 0.799335 0.616677     H
C      0.76198  0.19634      0.5     C
C      0.76198  0.80374      0.5     C
Br    0.7997813      0.5      0.5    Br
C      0.84527  0.11334      0.5     C
C      0.84527  0.88674      0.5     C
Zn         1.0      0.0 0.419721    Zn
Zn         1.0      0.0 0.580281    Zn
Zn         1.0      1.0 0.419721    Zn
Zn         1.0      1.0 0.580281    Zn
