data_I
_chemical_name_common  '/Users/gianmarcoterrones/Research/MOFs/MOF_structures/water_stability_work_extra_structs/cleaned_from_CCDC/ROGRAH'
_cell_length_a  9.46820
_cell_length_b  9.49060
_cell_length_c 10.26260
_cell_angle_alpha 111.86600
_cell_angle_beta  105.26400
_cell_angle_gamma 107.53300
_space_group_name_H-M_alt      'P 1'


loop_
_space_group_symop_operation_xyz
  'x, y, z' 

loop_
_atom_site_label
_atom_site_fract_x
_atom_site_fract_y
_atom_site_fract_z
_atom_site_type_symbol
O       0.0148    0.367   0.2347     O
C       0.0178   0.2958   0.6162     C
H       0.0188   0.4109   0.8331     H
O        0.025   0.9774   0.7365     O
C       0.0332   0.1231   0.8121     C
O       0.0429   0.6949   0.5017     O
C       0.0604   0.6861    0.269     C
C       0.1141   0.8493   0.2567     C
H       0.1423    0.743   0.0547     H
O       0.1458    0.239   0.9385     O
O       0.1461    0.281   0.6494     O
C        0.152   0.4871   0.3325     C
Cd     0.18098  0.83533  0.76157    Cd
H       0.1855   0.9459   0.3612     H
C       0.2091   0.6554   0.3307     C
C       0.2108   0.8434   0.1575     C
Cd     0.21946  0.25223  0.45042    Cd
H       0.2499   0.5604    0.131     H
O       0.2555    0.482   0.4353     O
C       0.2632   0.0008   0.1379     C
H       0.2665   0.5798   0.7242     H
H       0.2793   0.7468   0.4378     H
O       0.2814   0.1414   0.2316     O
O       0.2972   0.9847   0.0232     O
C        0.312   0.6568   0.2367     C
O       0.3316    0.677   0.7442     O
H       0.3475    0.662   0.6635     H
C       0.3632   0.8263    0.235     C
Cd     0.38518  0.26353  0.07748    Cd
O       0.3945   0.0072   0.7648     O
H       0.4187   0.9168   0.3435     H
O       0.4277   0.2169   0.5568     O
O       0.4627   0.7215   0.0491     O
C       0.4664   0.6502   0.3214     C
O       0.4858   0.5189   0.2747     O
C        0.487   0.8486   0.1665     C
C        0.513   0.1514   0.8335     C
O       0.5142   0.4811   0.7253     O
C       0.5336   0.3498   0.6786     C
O       0.5373   0.2785   0.9509     O
O       0.5723   0.7831   0.4432     O
H       0.5813   0.0832   0.6565     H
O       0.6055   0.9928   0.2352     O
Cd     0.61482  0.73647  0.92252    Cd
C       0.6368   0.1737    0.765     C
H       0.6525    0.338   0.3365     H
O       0.6684    0.323   0.2558     O
C        0.688   0.3432   0.7633     C
O       0.7028   0.0153   0.9768     O
O       0.7186   0.8586   0.7684     O
H       0.7207   0.2532   0.5622     H
H       0.7335   0.4202   0.2758     H
C       0.7368   0.9992   0.8621     C
O       0.7445    0.518   0.5647     O
H       0.7501   0.4396    0.869     H
Cd     0.78054  0.74777  0.54958    Cd
C       0.7892   0.1566   0.8425     C
C       0.7909   0.3446   0.6693     C
H       0.8145   0.0541   0.6388     H
Cd     0.81902  0.16467  0.23843    Cd
C        0.848   0.5129   0.6675     C
O       0.8539    0.719   0.3506     O
O       0.8542    0.761   0.0615     O
H       0.8577    0.257   0.9453     H
C       0.8859   0.1507   0.7433     C
C       0.9396   0.3139    0.731     C
O       0.9571   0.3051   0.4983     O
C       0.9668   0.8769   0.1879     C
O        0.975   0.0226   0.2635     O
H       0.9812   0.5891   0.1669     H
C       0.9822   0.7042   0.3838     C
O       0.9852    0.633   0.7653     O
