data_I
_chemical_name_common  '/Users/gianmarcoterrones/Research/MOFs/MOF_structures/water_stability_work_extra_structs/cleaned_from_CoRE/RORJOZ_clean'
_cell_length_a 16.72387
_cell_length_b 16.72387
_cell_length_c 16.72387
_cell_angle_alpha 68.88403
_cell_angle_beta  68.88403
_cell_angle_gamma 68.88403
_space_group_name_H-M_alt      'P 1'


loop_
_space_group_symop_operation_xyz
  'x, y, z' 

loop_
_atom_site_label
_atom_site_fract_x
_atom_site_fract_y
_atom_site_fract_z
_atom_site_type_symbol
N      0.00137  0.61897  0.63397     N
C       0.0118   0.7163   0.5641     C
C       0.0131   0.5645   0.7164     C
Cu     0.01449  0.44829  0.44818    Cu
H       0.0318   0.5379   0.7234     H
H        0.032   0.7267    0.535     H
C       0.0625     0.76   0.5786     C
C       0.0639   0.5804   0.7562     C
H       0.0685   0.8172   0.5421     H
H        0.072   0.5432   0.8126     H
O      0.07738  0.59498  0.44978     O
O      0.07831  0.44911  0.59631     O
C       0.0902   0.6302   0.7056     C
C       0.0909   0.7054   0.6312     C
O      0.10389  0.50799  0.36329     O
O      0.10532  0.36212  0.50812     O
O       0.1126   0.8805   0.6423     O
H        0.115   0.6004    0.755     H
H       0.1175   0.7536    0.602     H
C      0.11828  0.56958  0.38028     C
C      0.11889  0.38059  0.56839     C
O       0.1195   0.3577   0.8874     O
O       0.1196   0.6429    0.875     O
O        0.125   0.8804   0.3571     O
C       0.1527   0.7603   0.6714     C
C       0.1576   0.6715   0.7589     C
H       0.1605   0.7088   0.3747     H
H       0.1617   0.3754   0.7081     H
O       0.1705   0.4013   0.8231     O
O       0.1713   0.8187   0.4097     O
O       0.1769   0.8295   0.5987     O
O       0.1813   0.5903   0.8287     O
H       0.1828   0.4579   0.9315     H
H       0.1874    0.928   0.4568     H
C      0.18912  0.31602  0.61022     C
C      0.18943  0.61083  0.31543     C
C      0.20095  0.68305  0.32805     C
C      0.20154  0.32834  0.68274     C
H       0.2031   0.7404   0.6601     H
N      0.21015  0.71295  0.71395     N
H       0.2354   0.5265   0.2373     H
H       0.2373   0.2354   0.5265     H
C       0.2397   0.3286   0.8473     C
C         0.24   0.4214   0.9375     C
C       0.2411   0.8424   0.3285     C
C       0.2438   0.9361   0.4196     C
H        0.245    0.885   0.3996     H
C      0.24502  0.57492  0.24622     C
C      0.24622  0.24502  0.57492     C
H       0.2464    0.398   0.8825     H
H       0.2544   0.4817   0.0179     H
H       0.2545   0.0134   0.4837     H
H       0.2596   0.3399   0.7969     H
C      0.27184  0.27214  0.71754     C
C      0.27214  0.71754  0.27184     C
H       0.2733    0.465    0.968     H
H       0.2766   0.9682   0.4621     H
C      0.28246  0.72816  0.72786     C
C       0.2836   0.9869   0.4355     C
C       0.2837   0.4359   0.9882     C
C       0.2847   0.3502   0.8965     C
N      0.28605  0.78985  0.28705     N
C      0.28643  0.89723  0.34903     C
N      0.28705  0.28605  0.78985     N
H       0.2912   0.6253   0.8395     H
H       0.2919   0.8383   0.6246     H
C      0.31543  0.18943  0.61083     C
C      0.31602  0.61022  0.18912     C
C      0.31695  0.67195  0.79905     C
C      0.31726  0.79846  0.67166     C
C      0.32805  0.20095  0.68305     C
C      0.32834  0.68274  0.20154     C
C       0.3285   0.2411   0.8424     C
C       0.3286   0.8473   0.2397     C
H       0.3399   0.7969   0.2596     H
C      0.34903  0.28643  0.89723     C
C       0.3502   0.8965   0.2847     C
O       0.3571    0.125   0.8804     O
O       0.3577   0.8874   0.1195     O
O      0.36212  0.50812  0.10532     O
O      0.36329  0.10389  0.50799     O
N       0.3642   0.3869   0.9945     N
N      0.36603  0.99863  0.38103     N
H       0.3747   0.1605   0.7088     H
H       0.3754   0.7081   0.1617     H
C      0.38028  0.11828  0.56958     C
C      0.38059  0.56839  0.11889     C
C      0.38917  0.68457  0.81057     C
C      0.38978  0.81088  0.68398     C
H        0.398   0.8825   0.2464     H
H       0.3996    0.245    0.885     H
O       0.4013   0.8231   0.1705     O
O      0.40369  0.92169  0.55089     O
O      0.40502  0.55022  0.92262     O
C       0.4064   0.3137   0.9583     C
C       0.4087   0.9598   0.3105     C
O       0.4097   0.1713   0.8187     O
C       0.4196   0.2438   0.9361     C
C       0.4214   0.9375     0.24     C
C      0.42508  0.75378  0.75498     C
C      0.43042  0.61972  0.88172     C
C      0.43161  0.88111  0.61941     C
Cu     0.44818  0.01449  0.44829    Cu
Cu     0.44829  0.44818  0.01449    Cu
O      0.44911  0.59631  0.07831     O
O      0.44978  0.07738  0.59498     O
H       0.4568   0.1874    0.928     H
H       0.4579   0.9315   0.1828     H
H       0.4621   0.2766   0.9682     H
H        0.465    0.968   0.2733     H
H       0.4735   0.7627   0.7646     H
O      0.49188  0.89468  0.63788     O
O      0.49201  0.63671  0.89611     O
O      0.50799  0.36329  0.10389     O
O      0.50812  0.10532  0.36212     O
H       0.5163   0.7455   0.9866     H
H       0.5183   0.9821   0.7456     H
H       0.5265   0.2373   0.2354     H
H        0.535    0.032   0.7267     H
H       0.5379   0.7234   0.0318     H
H       0.5421   0.0685   0.8172     H
H       0.5432   0.8126    0.072     H
O      0.55022  0.92262  0.40502     O
O      0.55089  0.40369  0.92169     O
Cu     0.55171  0.55182  0.98551    Cu
Cu     0.55182  0.98551  0.55171    Cu
C       0.5641   0.0118   0.7163     C
C       0.5645   0.7164   0.0131     C
C      0.56839  0.11889  0.38059     C
C      0.56958  0.38028  0.11828     C
C      0.57492  0.24622  0.24502     C
C       0.5786   0.0625     0.76     C
C       0.5804   0.7562   0.0639     C
O       0.5903   0.8287   0.1813     O
O      0.59498  0.44978  0.07738     O
O      0.59631  0.07831  0.44911     O
O       0.5987   0.1769   0.8295     O
H       0.6004    0.755    0.115     H
H        0.602   0.1175   0.7536     H
C      0.61022  0.18912  0.31602     C
C      0.61083  0.31543  0.18943     C
N       0.6131   0.0055   0.6358     N
N      0.61897  0.63397  0.00137     N
C      0.61941  0.43161  0.88111     C
C      0.61972  0.88172  0.43042     C
H       0.6246   0.2919   0.8383     H
H       0.6253   0.8395   0.2912     H
C       0.6302   0.7056   0.0902     C
C       0.6312   0.0909   0.7054     C
O      0.63671  0.89611  0.49201     O
O      0.63788  0.49188  0.89468     O
O       0.6423   0.1126   0.8805     O
O       0.6429    0.875   0.1196     O
H       0.6601   0.2031   0.7404     H
C       0.6714   0.1527   0.7603     C
C       0.6715   0.7589   0.1576     C
C      0.67166  0.31726  0.79846     C
C      0.67195  0.79905  0.31695     C
C      0.68274  0.20154  0.32834     C
C      0.68305  0.32805  0.20095     C
C      0.68398  0.38978  0.81088     C
C      0.68457  0.81057  0.38917     C
C       0.6863   0.0417   0.5936     C
C       0.6895   0.5913   0.0402     C
C       0.7054   0.6312   0.0909     C
C       0.7056   0.0902   0.6302     C
H       0.7081   0.1617   0.3754     H
H       0.7088   0.3747   0.1605     H
N      0.71295  0.71395  0.21015     N
N      0.71395  0.21015  0.71295     N
C      0.71754  0.27184  0.27214     C
H       0.7234   0.0318   0.5379     H
H       0.7267    0.535    0.032     H
C      0.72786  0.28246  0.72816     C
C      0.72816  0.72786  0.28246     C
H       0.7404   0.6601   0.2031     H
H       0.7536    0.602   0.1175     H
C      0.75378  0.75498  0.42508     C
C      0.75498  0.42508  0.75378     C
H        0.755    0.115   0.6004     H
C       0.7562   0.0639   0.5804     C
C       0.7589   0.1576   0.6715     C
C         0.76   0.5786   0.0625     C
C       0.7603   0.6714   0.1527     C
H       0.7627   0.7646   0.4735     H
H       0.7646   0.4735   0.7627     H
N      0.78985  0.28705  0.28605     N
H       0.7969   0.2596   0.3399     H
C      0.79846  0.67166  0.31726     C
C      0.79905  0.31695  0.67195     C
C      0.81057  0.38917  0.68457     C
C      0.81088  0.68398  0.38978     C
H       0.8126    0.072   0.5432     H
H       0.8172   0.5421   0.0685     H
O       0.8187   0.4097   0.1713     O
O       0.8231   0.1705   0.4013     O
O       0.8287   0.1813   0.5903     O
O       0.8295   0.5987   0.1769     O
H       0.8383   0.6246   0.2919     H
H       0.8395   0.2912   0.6253     H
C       0.8424   0.3285   0.2411     C
C       0.8473   0.2397   0.3286     C
O        0.875   0.1196   0.6429     O
O       0.8804   0.3571    0.125     O
O       0.8805   0.6423   0.1126     O
C      0.88111  0.61941  0.43161     C
C      0.88172  0.43042  0.61972     C
H       0.8825   0.2464    0.398     H
H        0.885   0.3996    0.245     H
O       0.8874   0.1195   0.3577     O
O      0.89468  0.63788  0.49188     O
O      0.89611  0.49201  0.63671     O
C       0.8965   0.2847   0.3502     C
C      0.89723  0.34903  0.28643     C
O      0.92169  0.55089  0.40369     O
O      0.92262  0.40502  0.55022     O
H        0.928   0.4568   0.1874     H
H       0.9315   0.1828   0.4579     H
C       0.9361   0.4196   0.2438     C
C       0.9375     0.24   0.4214     C
C       0.9583   0.4064   0.3137     C
C       0.9598   0.3105   0.4087     C
H        0.968   0.2733    0.465     H
H       0.9682   0.4621   0.2766     H
H       0.9821   0.7456   0.5183     H
Cu     0.98551  0.55171  0.55182    Cu
H       0.9866   0.5163   0.7455     H
N       0.9945   0.3642   0.3869     N
