data_I
_chemical_name_common  '/Users/gianmarcoterrones/Research/MOFs/MOF_structures/water_stability_work_extra_structs/cleaned_from_CCDC/RUVMEB'
_cell_length_a 10.55000
_cell_length_b 17.36717
_cell_length_c 22.24500
_cell_angle_alpha 90.00000
_cell_angle_beta  90.00000
_cell_angle_gamma 92.20205
_space_group_name_H-M_alt      'P 1'


loop_
_space_group_symop_operation_xyz
  'x, y, z' 

loop_
_atom_site_label
_atom_site_fract_x
_atom_site_fract_y
_atom_site_fract_z
_atom_site_type_symbol
O      0.00204  0.21334  0.56365     O
O      0.00404  0.94544  0.44921     O
C      0.01896  0.77686  0.38087     C
C      0.02053  0.97443  0.39882     C
Nd     0.02547 0.139007 0.469065    Nd
O      0.02573  0.71093  0.35889     O
O      0.02884  0.04524  0.38919     O
C      0.03284  0.92334  0.34511     C
C      0.03363  0.84353  0.33952     C
O      0.04291  0.56531  0.53728     O
O       0.0437   0.4672  0.60115     O
Nd    0.044514 0.353834 0.535869    Nd
H       0.0481   0.8017   0.1577     H
N      0.04878  0.95668     0.29     N
C      0.05013  0.53753  0.58857     C
N      0.05084  0.82984  0.27935     N
H       0.0552   0.7854   0.2625     H
C      0.05959  0.89889  0.25147     C
O      0.06071  0.72411  0.54802     O
C       0.0678    0.852  0.14537     C
H        0.072   0.5141   0.7067     H
C      0.07222  0.59122  0.64014     C
C        0.078    0.911  0.18692     C
N      0.08051  0.56191  0.69696     N
H       0.0807    0.829   0.0568     H
C      0.08427  0.73557  0.60325     C
C       0.0869   0.8685    0.085     C
C       0.0914   0.6704  0.64658     C
O      0.09436  0.80266  0.62379     O
C      0.10468  0.62148  0.73527     C
C       0.1063    0.985  0.16618     C
N      0.11201  0.68801  0.70617     N
N      0.11375  0.93975  0.06715     N
H        0.114   0.0259   0.1931     H
H       0.1158   0.4965   0.8045     H
C       0.1229   0.9977  0.10581     C
C       0.1239   0.6127  0.80008     C
C       0.1291   0.5413  0.82693     C
H       0.1388    0.727   0.8203     H
H       0.1407   0.0475   0.0919     H
C       0.1431   0.6777  0.83626     C
H       0.1535   0.9656    0.986     H
C       0.1542   0.5373  0.88811     C
H       0.1566   0.4889   0.9059     H
O        0.158   0.9846  0.95228     O
C       0.1686   0.6669  0.89622     C
N       0.1751   0.5986  0.92234     N
O      0.18003  0.20233  0.39546     O
H        0.182    0.391    0.977     H
H       0.1824   0.7105     0.92     H
H        0.183    0.178    0.095     H
O      0.18642  0.64142  0.43948     O
O      0.18749  0.26829  0.47981     O
H       0.1932   0.3318   0.1069     H
O      0.19959  0.89009  0.52705     O
C      0.20217  0.26347  0.42323     C
C       0.2046    0.372   0.1342     C
N       0.2092   0.4428  0.11286     N
H       0.2133   0.3021   0.2068     H
H       0.2135   0.2836   0.3055     H
C       0.2157   0.3533  0.19445     C
H         0.22    0.641   0.3981     H
C       0.2219   0.4994  0.15297     C
C       0.2235   0.0464  0.95433     C
H       0.2241   0.5499    0.139     H
N      0.22615  0.32595  0.32502     N
O      0.22642  0.32662  0.60562     O
H        0.227    0.328   0.6493     H
O      0.22719  0.42649  0.50107     O
H        0.229    0.598    0.456     H
C       0.2306   0.4124  0.23608     C
C       0.2322   0.4874  0.21448     C
C      0.23309  0.33319  0.38649     C
O      0.23507  0.09077  0.49308     O
N      0.23554  0.05014  0.84279     N
H       0.2399   0.5289   0.2408     H
C      0.24186  0.08916  0.89645     C
C      0.24274  0.39674  0.30073     C
H        0.246    0.896   0.4886     H
H         0.25    0.065   0.5317     H
H         0.25    0.435   0.0317     H
H         0.25    0.646    0.048     H
H         0.25    0.854    0.548     H
H        0.254    0.604   0.9886     H
C      0.25726  0.10326  0.80073     C
C      0.25814  0.41084  0.39645     C
H       0.2601   0.9711   0.7408     H
N      0.26446  0.44986  0.34279     N
O      0.26493  0.40923  0.99308     O
C      0.26691  0.16681  0.88649     C
C       0.2678   0.0126  0.71448     C
C       0.2694   0.0876  0.73608     C
H        0.271    0.902    0.956     H
O      0.27281  0.07351  0.00107     O
H        0.273    0.172   0.1493     H
O      0.27358  0.17338  0.10562     O
N      0.27385  0.17405  0.82502     N
H       0.2759   0.9501    0.639     H
C       0.2765   0.4536  0.45433     C
C       0.2781   0.0006  0.65297     C
H         0.28    0.859   0.8981     H
C       0.2843   0.1467  0.69445     C
H       0.2865   0.2164   0.8055     H
H       0.2867   0.1979   0.7068     H
N       0.2908   0.0572  0.61286     N
C       0.2954    0.128   0.6342     C
C      0.29783  0.23653  0.92323     C
O      0.30041  0.60991  0.02705     O
H       0.3068   0.1682   0.6069     H
O      0.31251  0.23171  0.97981     O
O      0.31358  0.85858  0.93948     O
H        0.317    0.322    0.595     H
H       0.3176   0.7895     0.42     H
H        0.318    0.109    0.477     H
O      0.31997  0.29767  0.89546     O
N       0.3249   0.9014  0.42234     N
C       0.3314   0.8331  0.39622     C
O        0.342   0.5154  0.45228     O
H       0.3434   0.0111   0.4059     H
C       0.3458   0.9627  0.38811     C
H       0.3465   0.5344    0.486     H
C       0.3569   0.8223  0.33626     C
H       0.3593   0.4525   0.5919     H
H       0.3612    0.773   0.3203     H
C       0.3709   0.9587  0.32693     C
C       0.3761   0.8873  0.30008     C
C       0.3771   0.5023  0.60581     C
H       0.3842   0.0035   0.3045     H
H        0.386   0.4741   0.6931     H
N      0.38625  0.56025  0.56715     N
N      0.38799  0.81199  0.20617     N
C       0.3937    0.515  0.66618     C
C      0.39532  0.87852  0.23527     C
O      0.40564  0.69734  0.12379     O
C       0.4086   0.8296  0.14658     C
C       0.4131   0.6315    0.585     C
C      0.41573  0.76443  0.10325     C
H       0.4193    0.671   0.5568     H
N      0.41949  0.93809  0.19696     N
C        0.422    0.589  0.68692     C
C      0.42778  0.90878  0.14014     C
H        0.428   0.9859   0.2067     H
C       0.4322    0.648  0.64537     C
O      0.43929  0.77589  0.04802     O
C      0.44041  0.60111  0.75147     C
H       0.4448   0.7146   0.7625     H
N      0.44916  0.67016  0.77935     N
C      0.44987  0.96247  0.08857     C
N      0.45122  0.54332     0.79     N
H       0.4519   0.6983   0.6577     H
Nd    0.455486 0.146166 0.035869    Nd
O       0.4563   0.0328  0.10115     O
O      0.45709  0.93469  0.03728     O
C      0.46637  0.65647  0.83952     C
C      0.46716  0.57666  0.84511     C
O      0.47116  0.45476  0.88919     O
O      0.47427  0.78907  0.85889     O
Nd     0.47453 0.360993 0.969065    Nd
C      0.47947  0.52557  0.89882     C
C      0.48104  0.72314  0.88087     C
O      0.49596  0.55456  0.94921     O
O      0.49796  0.28666  0.06365     O
O      0.50204  0.71334  0.93635     O
O      0.50404  0.44544  0.05079     O
C      0.51896  0.27686  0.11913     C
C      0.52053  0.47443  0.10118     C
Nd     0.52547 0.639007 0.030935    Nd
O      0.52573  0.21093  0.14111     O
O      0.52884  0.54524  0.11081     O
C      0.53284  0.42334  0.15489     C
C      0.53363  0.34353  0.16048     C
O      0.54291  0.06531  0.96272     O
O       0.5437   0.9672  0.89885     O
Nd    0.544514 0.853834 0.964131    Nd
H       0.5481   0.3017   0.3423     H
N      0.54878  0.45668     0.21     N
C      0.55013  0.03753  0.91143     C
N      0.55084  0.32984  0.22065     N
H       0.5552   0.2854   0.2375     H
C      0.55959  0.39889  0.24853     C
O      0.56071  0.22411  0.95198     O
C       0.5678    0.352  0.35463     C
H        0.572   0.0141   0.7933     H
C      0.57222  0.09122  0.85986     C
C        0.578    0.411  0.31308     C
N      0.58051  0.06191  0.80304     N
H       0.5807    0.329   0.4432     H
C      0.58427  0.23557  0.89675     C
C       0.5869   0.3685    0.415     C
C       0.5914   0.1704  0.85342     C
O      0.59436  0.30266  0.87621     O
C      0.60468  0.12148  0.76473     C
C       0.6063    0.485  0.33382     C
N      0.61201  0.18801  0.79383     N
N      0.61375  0.43975  0.43285     N
H        0.614   0.5259   0.3069     H
H       0.6158   0.9965   0.6955     H
C       0.6229   0.4977  0.39419     C
C       0.6239   0.1127  0.69992     C
C       0.6291   0.0413  0.67307     C
H       0.6388    0.227   0.6797     H
H       0.6407   0.5475   0.4081     H
C       0.6431   0.1777  0.66374     C
H       0.6535   0.4656    0.514     H
C       0.6542   0.0373  0.61189     C
H       0.6566   0.9889   0.5941     H
O        0.658   0.4846  0.54772     O
C       0.6686   0.1669  0.60378     C
N       0.6751   0.0986  0.57766     N
O      0.68003  0.70233  0.10454     O
H        0.682    0.891    0.523     H
H       0.6824   0.2105     0.58     H
H        0.683    0.678    0.405     H
O      0.68642  0.14142  0.06052     O
O      0.68749  0.76829  0.02019     O
H       0.6932   0.8318   0.3931     H
O      0.69959  0.39009  0.97295     O
C      0.70217  0.76347  0.07677     C
C       0.7046    0.872   0.3658     C
N       0.7092   0.9428  0.38714     N
H       0.7133   0.8021   0.2932     H
H       0.7135   0.7836   0.1945     H
C       0.7157   0.8533  0.30555     C
H         0.72    0.141   0.1019     H
C       0.7219   0.9994  0.34703     C
C       0.7235   0.5464  0.54567     C
H       0.7241   0.0499    0.361     H
N      0.72615  0.82595  0.17498     N
O      0.72642  0.82662  0.89438     O
H        0.727    0.828   0.8507     H
O      0.72719  0.92649  0.99893     O
H        0.729    0.098    0.044     H
C       0.7306   0.9124  0.26392     C
C       0.7322   0.9874  0.28552     C
C      0.73309  0.83319  0.11351     C
O      0.73507  0.59077  0.00692     O
N      0.73554  0.55014  0.65721     N
H       0.7399   0.0289   0.2592     H
C      0.74186  0.58916  0.60355     C
C      0.74274  0.89674  0.19927     C
H        0.746    0.396   0.0114     H
H         0.75    0.146    0.452     H
H         0.75    0.354    0.952     H
H         0.75    0.565   0.9683     H
H         0.75    0.935   0.4683     H
H        0.754    0.104   0.5114     H
C      0.75726  0.60326  0.69927     C
C      0.75814  0.91084  0.10355     C
H       0.7601   0.4711   0.7592     H
N      0.76446  0.94986  0.15721     N
O      0.76493  0.90923  0.50692     O
C      0.76691  0.66681  0.61351     C
C       0.7678   0.5126  0.78552     C
C       0.7694   0.5876  0.76392     C
H        0.771    0.402    0.544     H
O      0.77281  0.57351  0.49893     O
H        0.773    0.672   0.3507     H
O      0.77358  0.67338  0.39438     O
N      0.77385  0.67405  0.67498     N
H       0.7759   0.4501    0.861     H
C       0.7765   0.9536  0.04567     C
C       0.7781   0.5006  0.84703     C
H         0.78    0.359   0.6019     H
C       0.7843   0.6467  0.80555     C
H       0.7865   0.7164   0.6945     H
H       0.7867   0.6979   0.7932     H
N       0.7908   0.5572  0.88714     N
C       0.7954    0.628   0.8658     C
C      0.79783  0.73653  0.57677     C
O      0.80041  0.10991  0.47295     O
H       0.8068   0.6682   0.8931     H
O      0.81251  0.73171  0.52019     O
O      0.81358  0.35858  0.56052     O
H        0.817    0.822    0.905     H
H       0.8176   0.2895     0.08     H
H        0.818    0.609    0.023     H
O      0.81997  0.79767  0.60454     O
N       0.8249   0.4014  0.07766     N
C       0.8314   0.3331  0.10378     C
O        0.842   0.0154  0.04772     O
H       0.8434   0.5111   0.0941     H
C       0.8458   0.4627  0.11189     C
H       0.8465   0.0344    0.014     H
C       0.8569   0.3223  0.16374     C
H       0.8593   0.9525   0.9081     H
H       0.8612    0.273   0.1797     H
C       0.8709   0.4587  0.17307     C
C       0.8761   0.3873  0.19992     C
C       0.8771   0.0023  0.89419     C
H       0.8842   0.5035   0.1955     H
H        0.886   0.9741   0.8069     H
N      0.88625  0.06025  0.93285     N
N      0.88799  0.31199  0.29383     N
C       0.8937    0.015  0.83382     C
C      0.89532  0.37852  0.26473     C
O      0.90564  0.19734  0.37621     O
C       0.9086   0.3296  0.35342     C
C       0.9131   0.1315    0.915     C
C      0.91573  0.26443  0.39675     C
H       0.9193    0.171   0.9432     H
N      0.91949  0.43809  0.30304     N
C        0.922    0.089  0.81308     C
C      0.92778  0.40878  0.35986     C
H        0.928   0.4859   0.2933     H
C       0.9322    0.148  0.85463     C
O      0.93929  0.27589  0.45198     O
C      0.94041  0.10111  0.74853     C
H       0.9448   0.2146   0.7375     H
N      0.94916  0.17016  0.72065     N
C      0.94987  0.46247  0.41143     C
N      0.95122  0.04332     0.71     N
H       0.9519   0.1983   0.8423     H
Nd    0.955486 0.646166 0.464131    Nd
O       0.9563   0.5328  0.39885     O
O      0.95709  0.43469  0.46272     O
C      0.96637  0.15647  0.66048     C
C      0.96716  0.07666  0.65489     C
O      0.97116  0.95476  0.61081     O
O      0.97427  0.28907  0.64111     O
Nd     0.97453 0.860993 0.530935    Nd
C      0.97947  0.02557  0.60118     C
C      0.98104  0.22314  0.61913     C
O      0.99596  0.05456  0.55079     O
O      0.99796  0.78666  0.43635     O
