data_I
_chemical_name_common  '/Users/gianmarcoterrones/Research/MOFs/MOF_structures/water_stability_work_extra_structs/cleaned_from_CoRE/RUVMAX_clean'
_cell_length_a 12.91400
_cell_length_b 12.91400
_cell_length_c 14.76500
_cell_angle_alpha 91.52240
_cell_angle_beta  91.52240
_cell_angle_gamma 90.35760
_space_group_name_H-M_alt      'P 1'


loop_
_space_group_symop_operation_xyz
  'x, y, z' 

loop_
_atom_site_label
_atom_site_fract_x
_atom_site_fract_y
_atom_site_fract_z
_atom_site_type_symbol
H       0.0042    0.361   0.3903     H
C       0.0128   0.8068   0.2656     C
C       0.0283   0.6241   0.4775     C
O       0.0308    0.104   0.7395     O
H        0.031   0.3426   0.5432     H
O        0.036    0.274   0.7198     O
O       0.0367   0.5949   0.1241     O
C       0.0444    0.614   0.5694     C
C       0.0521   0.4363   0.8976     C
Zn     0.06584  0.58884  0.27449    Zn
N       0.0714    0.498   0.7437     N
O       0.0927   0.4239   0.9769     O
N       0.0951   0.5877   0.4171     N
O        0.104   0.0308   0.2395     O
C       0.1132   0.4892   0.8295     C
C       0.1241   0.7999   0.2556     C
C       0.1335   0.5663   0.6015     C
C       0.1474   0.5444   0.6977     C
H        0.158    0.444    0.991     H
N       0.1717   0.7075   0.2568     N
C       0.1831   0.5457   0.4483     C
C       0.1932   0.9872   0.2344     C
C       0.2001   0.8759   0.2444     C
C       0.2028   0.5342   0.5375     C
C         0.21   0.5294   0.8338     C
H       0.2321   0.5237   0.4071     H
N        0.234   0.5644   0.7489     N
H       0.2647   0.5039   0.5562     H
O       0.2684   0.5044   0.9836     O
C       0.2726   0.7274     0.25     C
O        0.274    0.036   0.2198     O
C       0.2876    0.542   0.9089     C
N       0.2925   0.8283   0.2432     N
H       0.3207   0.5863   0.1246     H
H       0.3426    0.031   0.0432     H
C       0.3533   0.6467     0.25     C
H        0.361   0.0042   0.8903     H
C       0.3648   0.5814   0.1752     C
O       0.3686   0.5914   0.8916     O
C       0.3759   0.9717   0.0225     C
Zn     0.38174  0.61826     0.75    Zn
C        0.386   0.9556   0.9306     C
O       0.4051   0.9633   0.3759     O
O       0.4086   0.6314   0.6084     O
Zn     0.41116  0.93416  0.22551    Zn
N       0.4123   0.9049   0.0829     N
H       0.4137   0.6793   0.3754     H
C       0.4186   0.6352   0.3248     C
O       0.4239   0.0927   0.4769     O
C       0.4337   0.8665   0.8985     C
N       0.4356    0.766   0.7511     N
C       0.4363   0.0521   0.3976     C
C       0.4429   0.5093   0.1769     C
H        0.444    0.158    0.491     H
H       0.4529   0.4687    0.125     H
C       0.4543   0.8169   0.0517     C
C       0.4556   0.8526   0.8023     C
C        0.458   0.7124   0.5911     C
C       0.4658   0.7972   0.9625     C
H       0.4687   0.4529    0.625     H
C       0.4706     0.79   0.6662     C
H       0.4763   0.7679   0.0929     H
C       0.4892   0.1132   0.3295     C
C       0.4907   0.5571   0.3231     C
N       0.4942   0.5058     0.75     N
O       0.4956   0.7316   0.5164     O
H       0.4961   0.7353   0.9438     H
N        0.498   0.0714   0.2437     N
N        0.502   0.9286   0.7563     N
H       0.5039   0.2647   0.0562     H
O       0.5044   0.2684   0.4836     O
N       0.5058   0.4942     0.25     N
C       0.5093   0.4429   0.6769     C
C       0.5108   0.8868   0.6705     C
H       0.5237   0.2321   0.9071     H
C       0.5294     0.21   0.3338     C
H       0.5313   0.5471    0.375     H
C       0.5342   0.2028   0.0375     C
C        0.542   0.2876   0.4089     C
C       0.5444   0.1474   0.1977     C
C       0.5457   0.1831   0.9483     C
H       0.5471   0.5313    0.875     H
H        0.556    0.842    0.509     H
C       0.5571   0.4907   0.8231     C
C       0.5637   0.9479   0.6024     C
N       0.5644    0.234   0.2489     N
C       0.5663   0.1335   0.1015     C
O       0.5761   0.9073   0.5231     O
C       0.5814   0.3648   0.6752     C
H       0.5863   0.3207   0.6246     H
N       0.5877   0.0951   0.9171     N
Zn     0.58884  0.06584  0.77449    Zn
O       0.5914   0.3686   0.3916     O
O       0.5949   0.0367   0.6241     O
C        0.614   0.0444   0.0694     C
Zn     0.61826  0.38174     0.25    Zn
C       0.6241   0.0283   0.9775     C
O       0.6314   0.4086   0.1084     O
C       0.6352   0.4186   0.8248     C
H        0.639   0.9958   0.1097     H
C       0.6467   0.3533     0.75     C
H       0.6574    0.969   0.9568     H
H       0.6793   0.4137   0.8754     H
N       0.7075   0.1717   0.7568     N
C       0.7124    0.458   0.0911     C
O        0.726    0.964   0.7802     O
C       0.7274   0.2726     0.75     C
O       0.7316   0.4956   0.0164     O
H       0.7353   0.4961   0.4438     H
N        0.766   0.4356   0.2511     N
H       0.7679   0.4763   0.5929     H
C         0.79   0.4706   0.1662     C
C       0.7972   0.4658   0.4625     C
C       0.7999   0.1241   0.7556     C
C       0.8068   0.0128   0.7656     C
C       0.8169   0.4543   0.5517     C
N       0.8283   0.2925   0.7432     N
H        0.842    0.556    0.009     H
C       0.8526   0.4556   0.3023     C
C       0.8665   0.4337   0.3985     C
C       0.8759   0.2001   0.7444     C
C       0.8868   0.5108   0.1705     C
O        0.896   0.9692   0.7605     O
N       0.9049   0.4123   0.5829     N
O       0.9073   0.5761   0.0231     O
N       0.9286    0.502   0.2563     N
Zn     0.93416  0.41116  0.72551    Zn
C       0.9479   0.5637   0.1024     C
C       0.9556    0.386   0.4306     C
O       0.9633   0.4051   0.8759     O
O        0.964    0.726   0.2802     O
H        0.969   0.6574   0.4568     H
O       0.9692    0.896   0.2605     O
C       0.9717   0.3759   0.5225     C
C       0.9872   0.1932   0.7344     C
H       0.9958    0.639   0.6097     H
