data_I
_chemical_name_common  '/Users/gianmarcoterrones/Research/MOFs/MOF_structures/water_stability_work_extra_structs/cleaned_from_CCDC/RUYNUW'
_cell_length_a 11.13800
_cell_length_b 14.93698
_cell_length_c 25.07500
_cell_angle_alpha 106.26465
_cell_angle_beta  90.00000
_cell_angle_gamma 111.89045
_space_group_name_H-M_alt      'P 1'


loop_
_space_group_symop_operation_xyz
  'x, y, z' 

loop_
_atom_site_label
_atom_site_fract_x
_atom_site_fract_y
_atom_site_fract_z
_atom_site_type_symbol
C       0.0041   0.2362   0.6054     C
H       0.0071   0.8104   0.9749     H
C       0.0095   0.2068   0.9921     C
C       0.0101   0.8378   0.1031     C
O       0.0297   0.6494   0.2041     O
N       0.0313   0.8822   0.7537     N
O       0.0317    0.167  0.61428     O
N      0.03641  0.86622    0.057     N
H       0.0394   0.4172   0.5967     H
H        0.042   0.8868   0.1377     H
O       0.0436    0.835   0.7083     O
O       0.0445   0.1186   0.7323     O
H       0.0478   0.9076   0.8585     H
C        0.062   0.2606   0.8982     C
O       0.0741   0.1186   0.2323     O
O      0.07484  0.57288   0.7874     O
H       0.0798   0.2764   0.8649     H
O      0.07992  0.77744  0.43058     O
C       0.0803    0.306   0.9953     C
C       0.0832    0.342   0.6439     C
C       0.0869   0.4254   0.6294     C
O      0.10057  0.99834  0.96486     O
O      0.10223  0.00166  0.53514     O
O       0.1053   0.7182   0.8376     O
C       0.1072   0.3346   0.9479     C
H       0.1102   0.3544   0.0301     H
O       0.1132   0.3816   0.2914     O
Cd    0.120492 0.971464 0.440594    Cd
C        0.129   0.9444   0.8499     C
N       0.1329   0.6396   0.1967     N
O       0.1353    0.167  0.11428     O
O       0.1363    0.592   0.5967     O
H       0.1402   0.0924   0.6415     H
N       0.1438   0.6596   0.8073     N
H       0.1453    0.299   0.7036     H
C       0.1473   0.9432   0.7956     C
Cd    0.149028 0.028536 0.059406    Cd
N       0.1491   0.1178   0.7463     N
C       0.1499   0.3552   0.6931     C
H       0.1537    0.299   0.2036     H
H       0.1552   0.1132   0.3623     H
O       0.1563   0.5952   0.1519     O
H       0.1568   0.5104   0.0234     H
C       0.1615   0.5212   0.6639     C
N        0.163   0.6068   0.6449     N
N      0.17019  0.13378    0.443     N
N       0.1703   0.4584   0.2805     N
H       0.1712    0.799   0.2784     H
C       0.1723   0.1622   0.3969     C
O      0.17888  0.53736   0.3111     O
C       0.1801   0.4412   0.9492     C
C       0.1846   0.0556   0.6501     C
O      0.18729  0.68658   0.6799     O
H       0.1889   0.6922   0.0594     H
C       0.1945   0.5218   0.9916     C
H       0.1966   0.2764   0.3649     H
H       0.1967   0.1896   0.5251     H
C       0.1973   0.2068   0.4921     C
C       0.1986   0.2606   0.3982     C
C       0.2041   0.0568   0.7044     C
C       0.2053   0.3552   0.1931     C
C      0.20606  0.99512   0.5487     C
O       0.2086    0.165   0.7917     O
C      0.21094  0.00488   0.9513     C
H       0.2189   0.4522   0.9176     H
C       0.2238   0.4512   0.7274     C
C       0.2257    0.306   0.4953     C
C       0.2274   0.3346   0.4479     C
C       0.2274   0.4512   0.2274     C
C      0.23156  0.99912   0.6085     C
C       0.2321   0.2362   0.1054     C
C      0.23244  0.00088   0.8915     C
H       0.2333   0.4522   0.4176     H
C       0.2339   0.6872    0.245     C
H        0.234   0.6086   0.4289     H
C      0.23428  0.53876   0.7137     C
C       0.2348   0.7746    0.283     C
H       0.2442   0.3544   0.5301     H
O      0.24435   0.9475  0.37002     O
C        0.245   0.7062   0.0326     C
C       0.2588    0.342   0.1439     C
C       0.2611   0.4412   0.4492     C
C       0.2638   0.9968   0.7794     C
C       0.2646   0.6274    0.993     C
C        0.267   0.0032   0.7206     C
O       0.2684   0.3816   0.7914     O
C         0.28   0.6984   0.7955     C
O      0.28695   0.9865  0.51478     O
N       0.2881   0.4584   0.7805     N
H       0.2908    0.855   0.0579     H
O      0.29685   0.0525  0.12998     O
H       0.2978   0.7754   0.4353     H
C       0.2992   0.9464   0.6226     C
O      0.30045   0.0135  0.98522     O
C       0.3012    0.657   0.4559     C
O      0.30248  0.22256  0.06942     O
C      0.30448  0.53876   0.2137     C
C       0.3087   0.8046    0.032     C
C        0.313    0.948   0.6773     C
C       0.3212   0.6428   0.7505     C
C       0.3216   0.6428   0.2505     C
C       0.3273   0.5218   0.4916     C
H       0.3291    0.823   0.8623     H
C      0.33166  0.82592   0.3281     C
H        0.335   0.9106   0.5954     H
C      0.33618  0.91936   0.3731     C
C       0.3385   0.4254   0.1294     C
C       0.3409   0.7576   0.4599     C
C       0.3528   0.0536   0.8774     C
H       0.3536   0.5104   0.5234     H
C       0.3558    0.657   0.9559     C
O      0.35848  0.53736   0.8111     O
C       0.3597   0.5212   0.1639     C
C       0.3621    0.788 0.83333333     C
C       0.3628   0.6274    0.493     C
C        0.365    0.052   0.8227     C
H       0.3722    0.201   0.2216     H
H       0.3746   0.6086   0.9289     H
H       0.3778   0.4172   0.0967     H
O       0.3803   0.3506   0.2959     O
N       0.3853     0.89   0.6899     N
O       0.3871   0.2818   0.6624     O
O      0.39229  0.88378  0.73641     O
N        0.394   0.8318   0.9969     N
O       0.4156   0.8482   0.1526     O
C       0.4167   0.7576   0.9599     C
C      0.41682  0.08064   0.1269     C
C       0.4184   0.6984   0.2955     C
H       0.4244   0.0894   0.9046     H
C       0.4259    0.788 0.33333333     C
O      0.43077  0.95814  0.40974     O
O       0.4326   0.8482   0.6526     O
H       0.4358    0.145   0.4421     H
N       0.4378   0.8318   0.4969     N
O       0.4389   0.5952   0.6519     O
N       0.4438   0.6068   0.1449     N
C       0.4533   0.6872    0.745     C
O       0.4557    0.592   0.0967     O
C       0.4602   0.2254    0.217     C
C       0.4612   0.7062   0.5326     C
O      0.47263  0.04186  0.09026     O
H       0.4776   0.7754   0.9353     H
N       0.4842   0.3404   0.6927     N
O      0.49149  0.88378  0.23641     O
N       0.4933   0.3604   0.3033     N
H       0.4939    0.823   0.3623     H
C      0.49426  0.82592   0.8281     C
N       0.4953     0.11   0.8101     N
C       0.4959   0.8046    0.532     C
H       0.4967   0.3078   0.4406     H
O      0.49804  0.57288   0.2874     O
O      0.49929  0.68658   0.1799     O
Cd         0.5      0.0      0.0    Cd
Cd         0.5      0.0      0.5    Cd
O      0.50071  0.31342   0.8201     O
O      0.50196  0.42712   0.7126     O
H       0.5033   0.6922   0.5594     H
C       0.5041   0.1954    0.468     C
N       0.5047     0.89   0.1899     N
C      0.50574  0.17408   0.1719     C
H       0.5061    0.177   0.6377     H
N       0.5067   0.6396   0.6967     N
O      0.50851  0.11622  0.76359     O
N       0.5158   0.6596   0.3073     N
H       0.5224   0.2246   0.0647     H
O      0.52737  0.95814  0.90974     O
C       0.5388   0.2938   0.4674     C
C       0.5398   0.7746    0.783     C
O       0.5443    0.408   0.9033     O
C       0.5467   0.3128    0.255     C
N       0.5562   0.3932   0.8551     N
O       0.5611   0.4048   0.3481     O
N       0.5622   0.1682   0.5031     N
H       0.5642    0.855   0.5579     H
O       0.5674   0.1518   0.3474     O
O      0.56923  0.04186  0.59026     O
C       0.5741    0.212 0.66666667     C
H       0.5756   0.9106   0.0954     H
C       0.5816   0.3016   0.7045     C
C      0.58318  0.91936   0.8731     C
C       0.5833   0.2424   0.0401     C
O       0.5844   0.1518   0.8474     O
N        0.606   0.1682   0.0031     N
O      0.60771  0.11622  0.26359     O
O       0.6129   0.7182   0.3376     O
N       0.6147     0.11   0.3101     N
O       0.6197   0.6494   0.7041     O
H       0.6222   0.5828   0.9033     H
H       0.6254   0.3914   0.0711     H
H       0.6278    0.799   0.7784     H
C        0.635    0.948   0.1773     C
C       0.6372   0.3726    0.507     C
C       0.6379    0.212 0.16666667     C
C       0.6403   0.4788   0.8361     C
O      0.64152  0.46264   0.1889     O
C       0.6442    0.343   0.0441     C
H       0.6464   0.4896   0.4766     H
C       0.6472   0.9464   0.1226     C
C       0.6591   0.2424   0.5401     C
C       0.6615   0.5746   0.8706     C
C      0.66382  0.08064   0.6269     C
H        0.665   0.0894   0.4046     H
C      0.66834  0.17408   0.6719     C
H       0.6709    0.177   0.1377     H
C       0.6727   0.4782   0.5084     C
C       0.6784   0.3572   0.7495     C
C       0.6788   0.3572   0.2495     C
C        0.687    0.052   0.3227     C
C       0.6913   0.1954    0.968     C
C      0.69552  0.46124   0.7863     C
O      0.69752  0.77744  0.93058     O
C       0.6988    0.343   0.5441     C
O      0.69955   0.9865  0.01478     O
C       0.7008   0.0536   0.3774     C
H       0.7022   0.2246   0.5647     H
O      0.70315   0.9475  0.87002     O
H       0.7092    0.145   0.9421     H
N       0.7119   0.5416   0.2195     N
O      0.71305   0.0135  0.48522     O
C         0.72   0.3016   0.2045     C
O       0.7316   0.6184   0.2086     O
C        0.733   0.9968   0.2794     C
C       0.7354   0.3726    0.007     C
C       0.7362   0.0032   0.2206     C
C       0.7389   0.5588   0.5508     C
C       0.7412    0.658   0.8561     C
C        0.755   0.2938   0.9674     C
O      0.75565   0.0525  0.62998     O
H       0.7558   0.6456   0.4699     H
C       0.7652   0.2254    0.717     C
C      0.76572  0.46124   0.2863     C
H        0.766   0.3914   0.5711     H
C       0.7661   0.3128    0.755     C
H       0.7667   0.5478   0.5824     H
C      0.76756  0.99912   0.1085     C
C       0.7679   0.7638   0.8946     C
C      0.76844  0.00088   0.3915     C
C       0.7726   0.5488   0.7726     C
C       0.7726   0.6654   0.5521     C
C       0.7743    0.694   0.5047     C
C       0.7762   0.5488   0.2726     C
H       0.7811   0.5478   0.0824     H
C      0.78906  0.99512   0.0487     C
O       0.7914    0.835   0.2083     O
C      0.79394  0.00488   0.4513     C
C       0.7947   0.6448   0.8069     C
C       0.7959   0.9432   0.2956     C
C       0.8014   0.7394   0.6018     C
C       0.8027   0.7932   0.5079     C
H       0.8033   0.8104   0.4749     H
H       0.8034   0.7236   0.6351     H
C       0.8055   0.4782   0.0084     C
H       0.8111   0.3078   0.9406     H
O      0.81271  0.31342   0.3201     O
C       0.8154   0.9444   0.3499     C
C       0.8199   0.5588   0.0508     C
O      0.82112  0.46264   0.6889     O
C       0.8277   0.8378   0.6031     C
H       0.8288    0.201   0.7216     H
N       0.8297   0.5416   0.7195     N
N      0.82981  0.86622    0.557     N
N        0.837   0.3932   0.3551     N
C       0.8385   0.4788   0.3361     C
H       0.8432   0.4896   0.9766     H
O       0.8437   0.4048   0.8481     O
H       0.8448   0.8868   0.6377     H
H       0.8463    0.701   0.7964     H
C       0.8501   0.6448   0.3069     C
N       0.8509   0.8822   0.2537     N
Cd    0.850972 0.971464 0.940594    Cd
C       0.8527   0.0568   0.2044     C
H       0.8547    0.701   0.2964     H
N       0.8562   0.3404   0.1927     N
H       0.8598   0.9076   0.3585     H
O       0.8637    0.408   0.4033     O
O       0.8647    0.833  0.88572     O
N       0.8671   0.3604   0.8033     N
C        0.871   0.0556   0.1501     C
Cd    0.879508 0.028536 0.559406    Cd
O       0.8868   0.6184   0.7086     O
H       0.8898   0.6456   0.9699     H
C       0.8928   0.6654   0.0521     C
O       0.8947   0.2818   0.1624     O
O      0.89777  0.99834  0.46486     O
O      0.89943  0.00166  0.03514     O
C       0.9131   0.5746   0.3706     C
C       0.9168    0.658   0.3561     C
C       0.9197    0.694   0.0047     C
O      0.92008  0.22256  0.56942     O
H       0.9202   0.7236   0.1351     H
O      0.92516  0.42712   0.2126     O
O       0.9259   0.8814   0.7677     O
C        0.938   0.7394   0.1018     C
H       0.9522   0.0924   0.1415     H
O       0.9555   0.8814   0.2677     O
O       0.9564    0.165   0.2917     O
H        0.958   0.1132   0.8623     H
H       0.9606   0.5828   0.4033     H
N      0.96359  0.13378    0.943     N
O       0.9683    0.833  0.38572     O
N       0.9687   0.1178   0.2463     N
O       0.9703   0.3506   0.7959     O
C       0.9899   0.1622   0.8969     C
C       0.9905   0.7932   0.0079     C
H       0.9929   0.1896   0.0251     H
C       0.9959   0.7638   0.3946     C
