data_I
_chemical_name_common  '/Users/gianmarcoterrones/Research/MOFs/MOF_structures/water_stability_work_extra_structs/cleaned_from_CoRE/SANGOG_clean'
_cell_length_a 10.81942
_cell_length_b 10.81942
_cell_length_c 18.92300
_cell_angle_alpha 74.55972
_cell_angle_beta  74.55972
_cell_angle_gamma 63.50646
_space_group_name_H-M_alt      'P 1'


loop_
_space_group_symop_operation_xyz
  'x, y, z' 

loop_
_atom_site_label
_atom_site_fract_x
_atom_site_fract_y
_atom_site_fract_z
_atom_site_type_symbol
O      0.00636  0.15236  0.01121     O
H        0.008    0.612   0.7844     H
C      0.02093  0.60953  0.01375     C
O      0.02137  0.16117  0.77692     O
H        0.022    0.714    0.723     H
O      0.02785  0.81945   0.6117     O
C       0.0379   0.7295   0.0286     C
N       0.0426   0.6246   0.7371     N
H       0.0433   0.3847   0.7697     H
C      0.04957  0.18957  0.70812     C
C         0.05    0.369   0.0423     C
C       0.0539   0.4129   0.7184     C
C       0.0577   0.5441   0.6877     C
C       0.0598   0.4784   0.0612     C
Nd     0.06433  0.93409  0.39819    Nd
C      0.06538  0.32478  0.67404     C
Nd     0.06591  0.93567  0.10181    Nd
O      0.06652  0.11072  0.66435     O
C       0.0674   0.7276   0.5723     C
C       0.0763   0.5845   0.6099     C
H        0.081    0.279    0.071     H
C       0.0879   0.3637  0.59689     C
H       0.0917   0.4659   0.1047     H
C       0.0945   0.4913   0.5661     C
O      0.09486  0.70966  0.08264     O
H       0.0982   0.3038   0.5664     H
O      0.09884  0.74844  0.50247     O
O      0.11072  0.06652  0.16435     O
H       0.1119   0.5157   0.5146     H
O      0.15236  0.00636  0.51121     O
N       0.1529   0.4395   0.1108     N
O      0.16117  0.02137  0.27692     O
H        0.166    0.498    0.127     H
O      0.18055  0.97215   0.8883     O
C      0.18957  0.04957  0.20812     C
H        0.205    0.357    0.128     H
O      0.25156  0.90116  0.99753     O
C       0.2705   0.9621   0.4714     C
C       0.2724   0.9326   0.9277     C
H        0.279    0.081    0.571     H
H        0.286    0.978    0.777     H
O      0.29034  0.90514  0.41736     O
H       0.3038   0.0982   0.0664     H
C      0.32478  0.06538  0.17404     C
H        0.357    0.205    0.628     H
C       0.3637   0.0879  0.09689     C
C        0.369     0.05   0.5423     C
N       0.3754   0.9574   0.7629     N
H       0.3847   0.0433   0.2697     H
H        0.388    0.992   0.7156     H
C      0.39047  0.97907  0.48625     C
C       0.4129   0.0539   0.2184     C
C       0.4155   0.9237   0.8901     C
N       0.4395   0.1529   0.6108     N
C       0.4559   0.9423   0.8123     C
H       0.4659   0.0917   0.6047     H
C       0.4726   0.0878   0.5519     C
H       0.4843   0.8881   0.9854     H
C       0.4913   0.0945   0.0661     C
H        0.498    0.166    0.627     H
H        0.502    0.834    0.373     H
C       0.5087   0.9055   0.9339     C
H       0.5157   0.1119   0.0146     H
C       0.5216   0.9402   0.4388     C
H       0.5341   0.9083   0.3953     H
C       0.5441   0.0577   0.1877     C
N       0.5605   0.8471   0.3892     N
C       0.5845   0.0763   0.1099     C
C       0.5871   0.9461   0.7816     C
C      0.60953  0.02093  0.51375     C
H        0.612    0.008   0.2844     H
H       0.6153   0.9567   0.7303     H
N       0.6246   0.0426   0.2371     N
C        0.631     0.95   0.4577     C
C       0.6363   0.9121  0.90311     C
H        0.643    0.795    0.372     H
C      0.67522  0.93462  0.82596     C
H       0.6962   0.9018   0.9336     H
O      0.70966  0.09486  0.58264     O
H        0.714    0.022    0.223     H
H        0.721    0.919    0.429     H
C       0.7276   0.0674   0.0723     C
C       0.7295   0.0379   0.5286     C
O      0.74844  0.09884  0.00247     O
H        0.795    0.643    0.872     H
C      0.81043  0.95043  0.79188     C
O      0.81945  0.02785   0.1117     O
H        0.834    0.502    0.873     H
O      0.83883  0.97863  0.72308     O
N       0.8471   0.5605   0.8892     N
O      0.84764  0.99364  0.48879     O
H       0.8881   0.4843   0.4854     H
O      0.88928  0.93348  0.83565     O
O      0.90116  0.25156  0.49753     O
H       0.9018   0.6962   0.4336     H
O      0.90514  0.29034  0.91736     O
C       0.9055   0.5087   0.4339     C
H       0.9083   0.5341   0.8953     H
C       0.9121   0.6363  0.40311     C
C       0.9122   0.5274   0.9481     C
H        0.919    0.721    0.929     H
C       0.9237   0.4155   0.3901     C
C       0.9326   0.2724   0.4277     C
O      0.93348  0.88928  0.33565     O
Nd     0.93409  0.06433  0.89819    Nd
C      0.93462  0.67522  0.32596     C
Nd     0.93567  0.06591  0.60181    Nd
C       0.9423   0.4559   0.3123     C
C       0.9461   0.5871   0.2816     C
C         0.95    0.631   0.9577     C
C      0.95043  0.81043  0.29188     C
H       0.9567   0.6153   0.2303     H
N       0.9574   0.3754   0.2629     N
C       0.9621   0.2705   0.9714     C
O      0.97215  0.18055   0.3883     O
H        0.978    0.286    0.277     H
O      0.97863  0.83883  0.22308     O
C      0.97907  0.39047  0.98625     C
H        0.992    0.388   0.2156     H
O      0.99364  0.84764  0.98879     O
