data_I
_chemical_name_common  '/Users/gianmarcoterrones/Research/MOFs/MOF_structures/water_stability_work_extra_structs/cleaned_from_CCDC/SEFNUN'
_cell_length_a  7.00760
_cell_length_b 17.35300
_cell_length_c 21.57100
_cell_angle_alpha 95.87000
_cell_angle_beta  90.00000
_cell_angle_gamma 90.00000
_space_group_name_H-M_alt      'P 1'


loop_
_space_group_symop_operation_xyz
  'x, y, z' 

loop_
_atom_site_label
_atom_site_fract_x
_atom_site_fract_y
_atom_site_fract_z
_atom_site_type_symbol
Zn         0.0      0.0      0.0    Zn
Zn         0.0      0.0      0.5    Zn
O      0.00073  0.89414  0.44962     O
O       0.0019    0.948   0.0685     O
C         0.01  0.88198  0.39101     C
C       0.0228   0.4909  0.30902     C
H       0.0295   0.0948   0.2552     H
O       0.0409  0.07416  0.64792     O
C       0.0447  0.53909  0.20906     C
H       0.0471   0.0653   0.3214     H
O       0.0492  0.93218  0.85157     O
H       0.0702   0.4886   0.3491     H
H       0.0838   0.7527   0.4454     H
C       0.0925  0.80368  0.36553     C
H       0.1061   0.5689   0.1817     H
C       0.1139  0.09207  0.29055     C
C       0.1149  0.74476   0.4033     C
Zn     0.11492  0.00897  0.00632    Zn
C       0.1154  0.53619  0.26904     C
C       0.1179  0.50269  0.80974     C
O       0.1215  0.94784  0.57551     O
H       0.1272   0.0878   0.7552     H
C       0.1337  0.89611  0.88845     C
H        0.134   0.8304   0.2772     H
C       0.1376  0.55061  0.70946     C
H       0.1428    0.058   0.8213     H
C       0.1443  0.79083  0.30306     C
O       0.1498   0.5976   0.5133     O
H       0.1549   0.2185   0.2372     H
N       0.1645  0.17249  0.31792     N
H       0.1658   0.5003   0.8497     H
O         0.17   0.9172  0.94527     O
O       0.1814   0.0896   0.9971     O
C       0.1817  0.22904  0.27949     C
H        0.182   0.1479   0.4055     H
C       0.1837  0.67405  0.37808     C
O        0.184  0.96491  0.07684     O
C       0.1984  0.18695   0.3795     C
H       0.1987   0.5806   0.6821     H
H       0.1987    0.634   0.4033     H
C       0.2089  0.54763  0.76986     C
C       0.2108   0.7192   0.2799     C
C       0.2117  0.08363  0.79027     C
H       0.2187   0.7691   0.9465     H
C       0.2192  0.81728   0.8656     C
O       0.2222  0.51491  0.96378     O
N       0.2295  0.66246  0.31724     N
C       0.2383  0.30135  0.30269     C
C       0.2427  0.75931  0.90399     C
H        0.243     0.71    0.238     H
H       0.2486   0.3403   0.2763     H
H       0.2514   0.8403   0.7763     H
H        0.257     0.21    0.738     H
C       0.2573  0.25931  0.40399     C
C       0.2617  0.80135  0.80269     C
N       0.2705  0.16246  0.81724     N
O       0.2778  0.01491  0.46378     O
C       0.2808  0.31728   0.3656     C
H       0.2813   0.2691   0.4465     H
C       0.2883  0.58363  0.29027     C
C       0.2892   0.2192   0.7799     C
C       0.2911  0.04763  0.26986     C
H       0.3013   0.0806   0.1821     H
H       0.3013    0.134   0.9033     H
C       0.3016  0.68695   0.8795     C
O        0.316  0.46491  0.57684     O
C       0.3163  0.17405  0.87808     C
H        0.318   0.6479   0.9055     H
C       0.3183  0.72904  0.77949     C
O       0.3186   0.5896   0.4971     O
O         0.33   0.4172  0.44527     O
H       0.3342   0.0003   0.3497     H
N       0.3355  0.67249  0.81792     N
H       0.3451   0.7185   0.7372     H
O       0.3502   0.0976   0.0133     O
C       0.3557  0.29083  0.80306     C
H       0.3572    0.558   0.3213     H
C       0.3624  0.05061  0.20946     C
H        0.366   0.3304   0.7772     H
C       0.3663  0.39611  0.38845     C
H       0.3728   0.5878   0.2552     H
O       0.3785  0.44784  0.07551     O
C       0.3821  0.00269  0.30974     C
C       0.3846  0.03619  0.76904     C
Zn     0.38508  0.50897  0.50632    Zn
C       0.3851  0.24476   0.9033     C
C       0.3861  0.59207  0.79055     C
H       0.3939   0.0689   0.6817     H
C       0.4075  0.30368  0.86553     C
H       0.4162   0.2527   0.9454     H
H       0.4298   0.9886   0.8491     H
O       0.4508  0.43218  0.35157     O
H       0.4529   0.5653   0.8214     H
C       0.4553  0.03909  0.70906     C
O       0.4591  0.57416  0.14792     O
H       0.4705   0.5948   0.7552     H
C       0.4772   0.9909  0.80902     C
C         0.49  0.38198  0.89101     C
O       0.4981    0.448   0.5685     O
O      0.49927  0.39414  0.94962     O
Zn         0.5      0.5      0.0    Zn
Zn         0.5      0.5      0.5    Zn
O      0.50073  0.60586  0.05038     O
O       0.5019    0.552   0.4315     O
C         0.51  0.61802  0.10899     C
C       0.5228   0.0091  0.19098     C
H       0.5295   0.4052   0.2448     H
O       0.5409  0.42584  0.85208     O
C       0.5447  0.96091  0.29094     C
H       0.5471   0.4347   0.1786     H
O       0.5492  0.56782  0.64843     O
H       0.5702   0.0114   0.1509     H
H       0.5838   0.7473   0.0546     H
C       0.5925  0.69632  0.13447     C
H       0.6061   0.9311   0.3183     H
C       0.6139  0.40793  0.20945     C
C       0.6149  0.75524   0.0967     C
Zn     0.61492  0.49103  0.49368    Zn
C       0.6154  0.96381  0.23096     C
C       0.6179  0.99731  0.69026     C
O       0.6215  0.55216  0.92449     O
H       0.6272   0.4122   0.7448     H
C       0.6337  0.60389  0.61155     C
H        0.634   0.6696   0.2228     H
C       0.6376  0.94939  0.79054     C
H       0.6428    0.442   0.6787     H
C       0.6443  0.70917  0.19694     C
O       0.6498   0.9024   0.9867     O
H       0.6549   0.2815   0.2628     H
N       0.6645  0.32751  0.18208     N
H       0.6658   0.9997   0.6503     H
O         0.67   0.5828  0.55473     O
O       0.6814   0.4104   0.5029     O
C       0.6817  0.27096  0.22051     C
H        0.682   0.3521   0.0945     H
C       0.6837  0.82595  0.12192     C
O        0.684  0.53509  0.42316     O
C       0.6984  0.31305   0.1205     C
H       0.6987    0.866   0.0967     H
H       0.6987   0.9194   0.8179     H
C       0.7089  0.95237  0.73014     C
C       0.7108   0.7808   0.2201     C
C       0.7117  0.41637  0.70973     C
H       0.7187   0.7309   0.5535     H
C       0.7192  0.68272   0.6344     C
O       0.7222  0.98509  0.53622     O
N       0.7295  0.83754  0.18276     N
C       0.7383  0.19865  0.19731     C
C       0.7427  0.74069  0.59601     C
H        0.743     0.79    0.262     H
H       0.7486   0.1597   0.2237     H
H       0.7514   0.6597   0.7237     H
H        0.757     0.29    0.762     H
C       0.7573  0.24069  0.09601     C
C       0.7617  0.69865  0.69731     C
N       0.7705  0.33754  0.68276     N
O       0.7778  0.48509  0.03622     O
C       0.7808  0.18272   0.1344     C
H       0.7813   0.2309   0.0535     H
C       0.7883  0.91637  0.20973     C
C       0.7892   0.2808   0.7201     C
C       0.7911  0.45237  0.23014     C
H       0.8013    0.366   0.5967     H
H       0.8013   0.4194   0.3179     H
C       0.8016  0.81305   0.6205     C
O        0.816  0.03509  0.92316     O
C       0.8163  0.32595  0.62192     C
H        0.818   0.8521   0.5945     H
C       0.8183  0.77096  0.72051     C
O       0.8186   0.9104   0.0029     O
O         0.83   0.0828  0.05473     O
H       0.8342   0.4997   0.1503     H
N       0.8355  0.82751  0.68208     N
H       0.8451   0.7815   0.7628     H
O       0.8502   0.4024   0.4867     O
C       0.8557  0.20917  0.69694     C
H       0.8572    0.942   0.1787     H
C       0.8624  0.44939  0.29054     C
H        0.866   0.1696   0.7228     H
C       0.8663  0.10389  0.11155     C
H       0.8728   0.9122   0.2448     H
O       0.8785  0.05216  0.42449     O
C       0.8821  0.49731  0.19026     C
C       0.8846  0.46381  0.73096     C
Zn     0.88508  0.99103  0.99368    Zn
C       0.8851  0.25524   0.5967     C
C       0.8861  0.90793  0.70945     C
H       0.8939   0.4311   0.8183     H
C       0.9075  0.19632  0.63447     C
H       0.9162   0.2473   0.5546     H
H       0.9298   0.5114   0.6509     H
O       0.9508  0.06782  0.14843     O
H       0.9529   0.9347   0.6786     H
C       0.9553  0.46091  0.79094     C
O       0.9591  0.92584  0.35208     O
H       0.9705   0.9052   0.7448     H
C       0.9772   0.5091  0.69098     C
C         0.99  0.11802  0.60899     C
O       0.9981    0.052   0.9315     O
O      0.99927  0.10586  0.55038     O
