data_I
_chemical_name_common  '/Users/gianmarcoterrones/Research/MOFs/MOF_structures/water_stability_work_extra_structs/cleaned_from_CCDC/SEFPAV'
_cell_length_a  6.20110
_cell_length_b  6.85881
_cell_length_c 13.59419
_cell_angle_alpha 80.28087
_cell_angle_beta  76.81599
_cell_angle_gamma 63.12450
_space_group_name_H-M_alt      'P 1'


loop_
_space_group_symop_operation_xyz
  'x, y, z' 

loop_
_atom_site_label
_atom_site_fract_x
_atom_site_fract_y
_atom_site_fract_z
_atom_site_type_symbol
O        0.026    0.694    0.419     O
C       0.0616   0.7319   0.8499     C
H        0.097   0.6807   0.9149     H
O        0.139    0.306    0.581     O
C       0.1905   0.7723   0.6725     C
C       0.2523   0.6884   0.7686     C
H       0.3341   0.2547   0.0417     H
O       0.3458   0.7599   0.4947     O
H       0.3463   0.0292   0.0954     H
H       0.3547   0.9912    0.262     H
C       0.3971   0.7242    0.581     C
H       0.4149   0.6067   0.7773     H
C       0.4386   0.1159   0.0733     C
C       0.4432   0.0735   0.2547     C
H       0.4547    0.056    0.402     H
H       0.4709   0.9708   0.9046     H
C        0.504   0.1111   0.3379     C
N       0.5122   0.1555   0.1621     N
O       0.6004   0.2401   0.5053     O
H       0.6079   0.0088    0.738     H
O       0.6108   0.6498   0.6012     O
C       0.6278   0.8841   0.9267     C
H       0.6305   0.7453   0.9583     H
C       0.6353   0.2277   0.3275     C
C       0.6434   0.2681   0.1501     C
C       0.6573      0.0      0.0     C
H       0.6926   0.3193   0.0851     H
C       0.7023   0.2758    0.419     C
C       0.7093   0.3116   0.2314     C
H       0.7325   0.0941   0.9689     H
C       0.7714   0.9265   0.7453     C
H       0.7955   0.9059   0.0311     H
H       0.7989   0.3933   0.2227     H
N       0.8298   0.8445   0.8379     N
O       0.8618   0.3502   0.3988     O
Zn       0.886      0.5      0.5    Zn
H       0.9127    0.944    0.598     H
C        0.953   0.8889   0.6621     C
