data_I
_chemical_name_common  '/Users/gianmarcoterrones/Research/MOFs/MOF_structures/water_stability_work_extra_structs/cleaned_from_CCDC/SIFVEK'
_cell_length_a 14.97970
_cell_length_b 21.86400
_cell_length_c 24.10800
_cell_angle_alpha 93.66200
_cell_angle_beta  90.00000
_cell_angle_gamma 90.00000
_space_group_name_H-M_alt      'P 1'


loop_
_space_group_symop_operation_xyz
  'x, y, z' 

loop_
_atom_site_label
_atom_site_fract_x
_atom_site_fract_y
_atom_site_fract_z
_atom_site_type_symbol
H        0.002   0.5377   0.9065     H
H       0.0065   0.0081   0.7924     H
C       0.0068   0.9993    0.707     C
C       0.0106   0.3529   0.2604     C
C       0.0113   0.7613   0.6418     C
O       0.0114   0.0423   0.0931     O
C       0.0117   0.7359    0.938     C
H       0.0129   0.7189   0.6259     H
H       0.0166   0.9643   0.6789     H
C        0.017   0.8046   0.5956     C
H       0.0183    0.023   0.5589     H
C       0.0186   0.9752   0.7639     C
H       0.0201   0.8471   0.6135     H
O       0.0226   0.2453   0.9568     O
H       0.0231   0.0587   0.2318     H
H       0.0277   0.5726   0.3378     H
O       0.0312   0.8406   0.9945     O
C       0.0316   0.6483   0.8729     C
H       0.0344   0.9227   0.5047     H
H       0.0347   0.7508   0.1859     H
C       0.0353   0.3265   0.1595     C
S       0.0415   0.7756  0.00319     S
H       0.0421   0.3813     0.34     H
H       0.0446   0.2316   0.3377     H
H       0.0461   0.1934   0.2231     H
H       0.0462   0.6659   0.7367     H
H       0.0463   0.1052   0.7624     H
H       0.0468   0.5064   0.3601     H
H       0.0521   0.5711   0.8212     H
C        0.053   0.2406   0.0945     C
H       0.0543   0.1753    0.475     H
O       0.0559   0.0587   0.9211     O
C       0.0577   0.3787   0.3017     C
C       0.0579   0.9907   0.5667     C
C       0.0583   0.6819   0.9217     C
N       0.0597   0.3582   0.2113     N
H       0.0619   0.7685   0.6671     H
C       0.0658   0.1983   0.4422     C
C       0.0658   0.9362   0.5375     C
C       0.0662   0.5428   0.9003     C
S       0.0675  0.99275  0.92468     S
C        0.074   0.5453    0.351     C
O       0.0746   0.8604   0.1316     O
Na      0.0755  0.16321  0.89502    Na
C       0.0757   0.0488   0.6958     C
C       0.0776    0.271   0.1447     C
H       0.0789   0.2411   0.4538     H
Na      0.0798   0.0859  0.02016    Na
H       0.0799   0.9606   0.7679     H
C       0.0806   0.5887   0.8562     C
H       0.0815   0.2031   0.0828     H
C       0.0822   0.1005   0.7299     C
O       0.0829   0.2582   0.7347     O
C       0.0877   0.9765   0.3016     C
H       0.0878   0.4258      0.0     H
H        0.089   0.3533   0.9859     H
H       0.0903   0.7029    0.548     H
H       0.0924   0.5033   0.8876     H
H       0.0926   0.9614   0.3389     H
H       0.0927   0.1528   0.1737     H
H       0.0948   0.5579   0.9351     H
C       0.0967   0.7525   0.1731     C
O       0.0981   0.9792   0.9805     O
H       0.1002    0.943   0.2737     H
H       0.1012   0.7335   0.1353     H
C       0.1024   0.7945   0.5607     C
H       0.1025   0.5647   0.3842     H
C       0.1029   0.1833   0.2046     C
H       0.1035   0.7909   0.8146     H
H       0.1068   0.6685   0.9431     H
H       0.1098   0.3805   0.0477     H
H       0.1119   0.5133   0.2732     H
H       0.1149   0.5785   0.0638     H
Na      0.1149    0.914   0.0535    Na
C       0.1167   0.3872   0.0082     C
H        0.117   0.1803   0.4217     H
O       0.1178   0.2005   0.8148     O
H       0.1181   0.8798   0.8795     H
N       0.1184   0.9906     0.61     N
H       0.1187   0.5343   0.6365     H
C       0.1263   0.7371   0.5401     C
C       0.1292   0.0437   0.6487     C
N       0.1298   0.9039   0.5655     N
H       0.1308   0.0097   0.2977     H
S       0.1319  0.83065  0.17357     S
O       0.1328   0.7577   0.0149     O
H       0.1351   0.7304    0.198     H
H       0.1352   0.6141   0.1225     H
H       0.1354   0.5524   0.5741     H
N       0.1355   0.4016   0.2779     N
C       0.1372   0.3884   0.2215     C
H       0.1373    0.618   0.2741     H
H       0.1399   0.8142   0.7572     H
H         0.14   0.5409   0.1164     H
C       0.1422   0.1471    0.717     C
C        0.143   0.5334   0.3062     C
C       0.1431   0.2414   0.1824     C
H       0.1443   0.1665   0.2312     H
S       0.1457  0.21723  0.76003     S
C       0.1512   0.5786   0.0976     C
H       0.1523   0.6018   0.6249     H
O       0.1528   0.6174   0.4776     O
C       0.1537   0.7893   0.7885     C
H       0.1546    0.271    0.215     H
C       0.1549   0.9683   0.8786     C
C       0.1562   0.5583   0.6126     C
C       0.1568   0.8428   0.5464     C
C       0.1609   0.9068   0.8652     C
H       0.1642   0.7468   0.7747     H
C       0.1649   0.9377   0.6099     C
H       0.1701   0.1373   0.5361     H
C       0.1763   0.5986   0.8437     C
H       0.1786   0.0056   0.1955     H
H       0.1815   0.6259   0.8132     H
C       0.1841   0.5916    0.288     C
H       0.1892   0.2938   0.3864     H
C       0.1904   0.0894   0.6342     C
H       0.1909   0.2687   0.9746     H
C       0.1951   0.1408   0.6702     C
H       0.2006   0.4327   0.9201     H
C       0.2021    0.728   0.5077     C
H       0.2024   0.3595   0.9113     H
H       0.2045   0.5592   0.8329     H
H       0.2055   0.7932   0.8974     H
H       0.2061   0.6173   0.8768     H
H       0.2071   0.8965   0.4246     H
H       0.2088   0.0519   0.8689     H
C       0.2099    0.426   0.3114     C
H         0.21   0.3066    0.293     H
C       0.2129   0.3903   0.9944     C
O        0.214   0.1307   0.0302     O
C       0.2143    0.489   0.3242     C
H       0.2143   0.6131   0.3196     H
H       0.2147   0.0745   0.2017     H
C       0.2151   0.0094   0.8589     C
O       0.2152   0.1559   0.9351     O
H       0.2164   0.5185   0.7005     H
H       0.2236   0.1996   0.1208     H
H       0.2255   0.7106   0.6789     H
H        0.226   0.2922   0.6632     H
C        0.227   0.0331   0.1857     C
H       0.2275   0.5818   0.2583     H
C       0.2286   0.3952    0.932     C
H       0.2294   0.7998   0.1037     H
C       0.2294    0.883   0.8308     C
H       0.2309   0.0432   0.5607     H
C       0.2315   0.8355   0.5127     C
H       0.2317   0.6273   0.0111     H
H       0.2322   0.3585    0.639     H
C       0.2328   0.2284   0.1531     C
C       0.2336   0.1345   0.5453     C
S       0.2339    0.034   0.1167     S
S        0.234  0.65157  0.48509     S
O        0.234   0.9669   0.0934     O
H       0.2357   0.1726   0.6627     H
O       0.2365   0.2381   0.7584     O
Ag     0.23714   0.4118  0.16565    Ag
H       0.2375   0.4283   0.0141     H
C       0.2376   0.8145   0.8182     C
C       0.2376    0.819   0.1413     C
H       0.2425   0.7668   0.6408     H
C       0.2444   0.2761   0.9952     C
H       0.2469   0.6728   0.0649     H
C       0.2473   0.2819   0.3705     C
O       0.2479   0.8454   0.0068     O
C        0.248   0.0822    0.582     C
H       0.2485   0.2375   0.3618     H
H       0.2515   0.7375   0.8618     H
C        0.252   0.5822    0.082     C
O       0.2521   0.3454   0.5068     O
C       0.2527   0.7819   0.8705     C
H       0.2531   0.1728   0.5649     H
C       0.2556   0.7761   0.4952     C
H       0.2575   0.2668   0.1408     H
C       0.2624   0.3145   0.3182     C
C       0.2624    0.319   0.6413     C
H       0.2625   0.9283   0.5141     H
Ag     0.26286   0.9118  0.66565    Ag
O       0.2635   0.7381   0.2584     O
H       0.2643   0.6726   0.1627     H
S        0.266  0.15157  0.98509     S
O        0.266   0.4669   0.5934     O
S       0.2661    0.534   0.6167     S
C       0.2664   0.6345   0.0453     C
C       0.2672   0.7284   0.6531     C
H       0.2678   0.8585    0.139     H
H       0.2683   0.1273   0.5111     H
C       0.2685   0.3355   0.0127     C
H       0.2691   0.5432   0.0607     H
H       0.2706   0.2998   0.6037     H
C       0.2706    0.383   0.3308     C
C       0.2714   0.8952    0.432     C
H       0.2725   0.0818   0.7583     H
C        0.273   0.5331   0.6857     C
H        0.274   0.7922   0.1632     H
H       0.2745   0.2106   0.1789     H
H       0.2764   0.6996   0.6208     H
H       0.2836   0.0185   0.2005     H
O       0.2848   0.6559   0.4351     O
C       0.2849   0.5094   0.3589     C
H       0.2853   0.5745   0.7017     H
H       0.2857   0.1131   0.8196     H
C       0.2857    0.989   0.8242     C
O        0.286   0.6307   0.5302     O
C       0.2871   0.8903   0.4944     C
H         0.29   0.8066    0.793     H
C       0.2901    0.926   0.8114     C
H       0.2912   0.5519   0.3689     H
H       0.2929   0.3965   0.9246     H
H       0.2939   0.1173   0.3768     H
H       0.2945   0.2932   0.3974     H
H       0.2955   0.0592   0.3329     H
H       0.2976   0.8595   0.4113     H
C       0.2979    0.228   0.0077     C
H       0.2994   0.9327   0.4201     H
C       0.3049   0.6408   0.1702     C
H       0.3091   0.7687   0.4746     H
C       0.3096   0.5894   0.1342     C
H       0.3108   0.7938   0.8864     H
C       0.3159   0.0916    0.788     C
H       0.3185   0.1259   0.3132     H
H       0.3214   0.5056   0.6955     H
C       0.3237   0.0986   0.3437     C
H       0.3299   0.6373   0.0361     H
C       0.3351   0.4377   0.1099     C
H       0.3358   0.2468   0.2747     H
C       0.3391   0.4068   0.3652     C
C       0.3432   0.3428   0.0464     C
C       0.3438   0.0583   0.1126     C
C       0.3451   0.4683   0.3786     C
H       0.3454    0.771    0.715     H
C       0.3463   0.2893   0.2885     C
O       0.3472   0.1174   0.9776     O
H       0.3477   0.1018   0.1249     H
C       0.3488   0.0786   0.5976     C
S       0.3543  0.71723  0.26003     S
H       0.3557   0.6665   0.7312     H
C       0.3569   0.7414   0.6824     C
C        0.357   0.0334   0.8062     C
C       0.3578   0.6471    0.217     C
H         0.36   0.0409   0.6164     H
H       0.3601   0.3142   0.2572     H
H       0.3627    0.118   0.7741     H
C       0.3628   0.8884   0.7215     C
N       0.3645   0.9016   0.7779     N
H       0.3646   0.0524   0.0741     H
H       0.3648   0.1141   0.6225     H
H       0.3649   0.2304    0.698     H
O       0.3672   0.2577   0.5149     O
S       0.3681  0.33065  0.67357     S
H       0.3692   0.5097   0.7977     H
N       0.3702   0.4039   0.0655     N
C       0.3708   0.5437   0.1487     C
C       0.3737   0.2371   0.0401     C
H       0.3813   0.0343   0.1365     H
N       0.3816   0.4906     0.11     N
H       0.3819   0.3798   0.3795     H
O       0.3822   0.7005   0.3148     O
H        0.383   0.6803   0.9217     H
C       0.3833   0.8872   0.5082     C
H       0.3851   0.0785   0.5638     H
Na      0.3851    0.414   0.5535    Na
H       0.3881   0.0133   0.7732     H
H       0.3902   0.8805   0.5477     H
H       0.3932   0.1685   0.4431     H
H       0.3965   0.2909   0.3146     H
C       0.3971   0.6833   0.7046     C
H       0.3975   0.0647   0.8842     H
C       0.3976   0.2945   0.0607     C
H       0.3988   0.2335   0.6353     H
H       0.3998    0.443   0.7737     H
O       0.4019   0.4792   0.4805     O
C       0.4033   0.2525   0.6731     C
H       0.4052   0.0579   0.4351     H
H       0.4073   0.6528   0.6737     H
H       0.4074   0.4614   0.8389     H
H       0.4076   0.0033   0.3876     H
H       0.4097   0.2029    0.048     H
H        0.411   0.8533   0.4859     H
H       0.4122   0.9258      0.5     H
C       0.4123   0.4765   0.8016     C
O       0.4171   0.7582   0.2347     O
C       0.4178   0.6005   0.2299     C
H       0.4185   0.7031   0.5828     H
C       0.4194   0.0887   0.3562     C
H       0.4201   0.4606   0.2679     H
Na      0.4202   0.5859  0.52016    Na
H       0.4211   0.7411   0.9538     H
C       0.4224    0.771   0.6447     C
C       0.4243   0.5488   0.1958     C
Na      0.4245  0.66321  0.39502    Na
O       0.4254   0.3604   0.6316     O
C        0.426   0.0453    0.851     C
S       0.4325  0.49275  0.42468     S
C       0.4338   0.0428   0.4003     C
C       0.4342   0.4362   0.0375     C
C       0.4342   0.6983   0.9422     C
H       0.4381   0.2685   0.1671     H
N       0.4403   0.8582   0.7113     N
C       0.4417   0.1819   0.4217     C
C       0.4421   0.4907   0.0667     C
C       0.4423   0.8787   0.8017     C
O       0.4441   0.5587   0.4211     O
H       0.4457   0.6753    0.975     H
C        0.447   0.7406   0.5945     C
H       0.4479   0.0711   0.3212     H
H       0.4532   0.0064   0.8601     H
H       0.4537   0.6052   0.2624     H
H       0.4538   0.1659   0.2367     H
H       0.4539   0.6934   0.7231     H
H       0.4554   0.7316   0.8377     H
H       0.4579   0.8813     0.84     H
S       0.4585   0.2756  0.50319     S
C       0.4647   0.8265   0.6595     C
H       0.4653   0.2508   0.6859     H
H       0.4656   0.4227   0.0047     H
C       0.4684   0.1483   0.3729     C
O       0.4688   0.3406   0.4945     O
H       0.4723   0.0726   0.8378     H
H       0.4769   0.5587   0.7318     H
O       0.4774   0.7453   0.4568     O
H       0.4799   0.3471   0.1135     H
C       0.4814   0.4752   0.2639     C
H       0.4817    0.523   0.0589     H
C        0.483   0.3046   0.0956     C
H       0.4834   0.4643   0.1789     H
H       0.4871   0.2189   0.1259     H
C       0.4883   0.2359    0.438     C
O       0.4886   0.5423   0.5931     O
C       0.4887   0.2613   0.1418     C
C       0.4894   0.8529   0.7604     C
C       0.4932   0.4993    0.207     C
H       0.4935   0.5081   0.2924     H
H        0.498   0.0377   0.4065     H
H        0.502   0.9623   0.5935     H
H       0.5065   0.4919   0.7076     H
C       0.5068   0.5007    0.793     C
C       0.5106   0.1471   0.2396     C
C       0.5113   0.7387   0.8582     C
O       0.5114   0.4577   0.4069     O
C       0.5117   0.7641    0.562     C
H       0.5129   0.7811   0.8741     H
H       0.5166   0.5357   0.8211     H
C        0.517   0.6954   0.9044     C
H       0.5183    0.477   0.9411     H
C       0.5186   0.5248   0.7361     C
H       0.5201   0.6529   0.8865     H
O       0.5226   0.2547   0.5432     O
H       0.5231   0.4413   0.2682     H
H       0.5277   0.9274   0.1622     H
O       0.5312   0.6594   0.5055     O
C       0.5316   0.8517   0.6271     C
H       0.5344   0.5773   0.9953     H
H       0.5347   0.7492   0.3141     H
C       0.5353   0.1735   0.3405     C
S       0.5415   0.7244  0.49681     S
H       0.5421   0.1187     0.16     H
H       0.5446   0.2684   0.1623     H
H       0.5461   0.3066   0.2769     H
H       0.5462   0.8341   0.7633     H
H       0.5463   0.3948   0.7376     H
H       0.5468   0.9936   0.1399     H
H       0.5521   0.9289   0.6788     H
C        0.553   0.2594   0.4055     C
H       0.5543   0.3247    0.025     H
O       0.5559   0.4413   0.5789     O
C       0.5577   0.1213   0.1983     C
C       0.5579   0.5093   0.9333     C
C       0.5583   0.8181   0.5783     C
N       0.5597   0.1418   0.2887     N
H       0.5619   0.7315   0.8329     H
C       0.5658   0.3017   0.0578     C
C       0.5658   0.5638   0.9625     C
C       0.5662   0.9572   0.5997     C
S       0.5675  0.50725  0.57532     S
C        0.574   0.9547    0.149     C
O       0.5746   0.6396   0.3684     O
Na      0.5755  0.33679  0.60498    Na
C       0.5757   0.4512   0.8042     C
C       0.5776    0.229   0.3553     C
H       0.5789   0.2589   0.0462     H
Na      0.5798   0.4141  0.47984    Na
H       0.5799   0.5394   0.7321     H
C       0.5806   0.9113   0.6438     C
H       0.5815   0.2969   0.4172     H
C       0.5822   0.3995   0.7701     C
O       0.5829   0.2418   0.7653     O
C       0.5877   0.5235   0.1984     C
H       0.5878   0.0742      0.5     H
H        0.589   0.1467   0.5141     H
H       0.5903   0.7971    0.952     H
H       0.5924   0.9967   0.6124     H
H       0.5926   0.5386   0.1611     H
H       0.5927   0.3472   0.3263     H
H       0.5948   0.9421   0.5649     H
C       0.5967   0.7475   0.3269     C
O       0.5981   0.5208   0.5195     O
H       0.6002    0.557   0.2263     H
H       0.6012   0.7665   0.3647     H
C       0.6024   0.7055   0.9393     C
H       0.6025   0.9353   0.1158     H
C       0.6029   0.3167   0.2954     C
H       0.6035   0.7091   0.6854     H
H       0.6068   0.8315   0.5569     H
H       0.6098   0.1195   0.4523     H
H       0.6119   0.9867   0.2268     H
Na      0.6149    0.586   0.4465    Na
H       0.6149   0.9215   0.4362     H
C       0.6167   0.1128   0.4918     C
H        0.617   0.3197   0.0783     H
O       0.6178   0.2995   0.6852     O
H       0.6181   0.6202   0.6205     H
N       0.6184   0.5094     0.89     N
H       0.6187   0.9657   0.8635     H
C       0.6263   0.7629   0.9599     C
C       0.6292   0.4563   0.8513     C
N       0.6298   0.5961   0.9345     N
H       0.6308   0.4903   0.2023     H
S       0.6319  0.66935  0.32643     S
O       0.6328   0.7423   0.4851     O
H       0.6351   0.7696    0.302     H
H       0.6352   0.8859   0.3775     H
H       0.6354   0.9476   0.9259     H
N       0.6355   0.0984   0.2221     N
C       0.6372   0.1116   0.2785     C
H       0.6373    0.882   0.2259     H
H       0.6399   0.6858   0.7428     H
H         0.64   0.9591   0.3836     H
C       0.6422   0.3529    0.783     C
C        0.643   0.9666   0.1938     C
C       0.6431   0.2586   0.3176     C
H       0.6443   0.3335   0.2688     H
S       0.6457  0.28277  0.73997     S
C       0.6512   0.9214   0.4024     C
H       0.6523   0.8982   0.8751     H
O       0.6528   0.8826   0.0224     O
C       0.6537   0.7107   0.7115     C
H       0.6546    0.229    0.285     H
C       0.6549   0.5317   0.6214     C
C       0.6562   0.9417   0.8874     C
C       0.6568   0.6572   0.9536     C
C       0.6609   0.5932   0.6348     C
H       0.6642   0.7532   0.7253     H
C       0.6649   0.5623   0.8901     C
H       0.6701   0.3627   0.9639     H
C       0.6763   0.9014   0.6563     C
H       0.6786   0.4944   0.3045     H
H       0.6815   0.8741   0.6868     H
C       0.6841   0.9084    0.212     C
H       0.6892   0.2062   0.1136     H
C       0.6904   0.4106   0.8658     C
H       0.6909   0.2313   0.5254     H
C       0.6951   0.3592   0.8298     C
H       0.7006   0.0673   0.5799     H
C       0.7021    0.772   0.9923     C
H       0.7024   0.1405   0.5887     H
H       0.7045   0.9408   0.6671     H
H       0.7055   0.7068   0.6026     H
H       0.7061   0.8827   0.6232     H
H       0.7071   0.6035   0.0754     H
H       0.7088   0.4481   0.6311     H
C       0.7099    0.074   0.1886     C
H         0.71   0.1934    0.207     H
C       0.7129   0.1097   0.5056     C
O        0.714   0.3693   0.4698     O
C       0.7143    0.011   0.1758     C
H       0.7143   0.8869   0.1804     H
H       0.7147   0.4255   0.2983     H
C       0.7151   0.4906   0.6411     C
O       0.7152   0.3441   0.5649     O
H       0.7164   0.9815   0.7995     H
H       0.7236   0.3004   0.3792     H
H       0.7255   0.7894   0.8211     H
H        0.726   0.2078   0.8368     H
C        0.727   0.4669   0.3143     C
H       0.7275   0.9182   0.2417     H
C       0.7286   0.1048    0.568     C
C       0.7294    0.617   0.6692     C
H       0.7294   0.7002   0.3963     H
H       0.7309   0.4568   0.9393     H
C       0.7315   0.6645   0.9873     C
H       0.7317   0.8727   0.4889     H
H       0.7322   0.1415    0.861     H
C       0.7328   0.2716   0.3469     C
C       0.7336   0.3655   0.9547     C
S       0.7339    0.466   0.3833     S
O        0.734   0.5331   0.4066     O
S        0.734  0.84843  0.01491     S
H       0.7357   0.3274   0.8373     H
O       0.7365   0.2619   0.7416     O
Ag     0.73714   0.0882  0.33435    Ag
H       0.7375   0.0717   0.4859     H
C       0.7376    0.681   0.3587     C
C       0.7376   0.6855   0.6818     C
H       0.7425   0.7332   0.8592     H
C       0.7444   0.2239   0.5048     C
H       0.7469   0.8272   0.4351     H
C       0.7473   0.2181   0.1295     C
O       0.7479   0.6546   0.4932     O
C        0.748   0.4178    0.918     C
H       0.7485   0.2625   0.1382     H
H       0.7515   0.7625   0.6382     H
C        0.752   0.9178    0.418     C
O       0.7521   0.1546   0.9932     O
C       0.7527   0.7181   0.6295     C
H       0.7531   0.3272   0.9351     H
C       0.7556   0.7239   0.0048     C
H       0.7575   0.2332   0.3592     H
C       0.7624    0.181   0.8587     C
C       0.7624   0.1855   0.1818     C
H       0.7625   0.5717   0.9859     H
Ag     0.76286   0.5882  0.83435    Ag
O       0.7635   0.7619   0.2416     O
H       0.7643   0.8274   0.3373     H
O        0.766   0.0331   0.9066     O
S        0.766  0.34843  0.51491     S
S       0.7661    0.966   0.8833     S
C       0.7664   0.8655   0.4547     C
C       0.7672   0.7716   0.8469     C
H       0.7678   0.6415    0.361     H
H       0.7683   0.3727   0.9889     H
C       0.7685   0.1645   0.4873     C
H       0.7691   0.9568   0.4393     H
C       0.7706    0.117   0.1692     C
H       0.7706   0.2002   0.8963     H
C       0.7714   0.6048    0.068     C
H       0.7725   0.4182   0.7417     H
C        0.773   0.9669   0.8143     C
H        0.774   0.7078   0.3368     H
H       0.7745   0.2894   0.3211     H
H       0.7764   0.8004   0.8792     H
H       0.7836   0.4815   0.2995     H
O       0.7848   0.8441   0.0649     O
C       0.7849   0.9906   0.1411     C
H       0.7853   0.9255   0.7983     H
H       0.7857   0.3869   0.6804     H
C       0.7857    0.511   0.6758     C
O        0.786   0.8693   0.9698     O
C       0.7871   0.6097   0.0056     C
H         0.79   0.6934    0.707     H
C       0.7901    0.574   0.6886     C
H       0.7912   0.9481   0.1311     H
H       0.7929   0.1035   0.5754     H
H       0.7939   0.3827   0.1232     H
H       0.7945   0.2068   0.1026     H
H       0.7955   0.4408   0.1671     H
H       0.7976   0.6405   0.0887     H
C       0.7979    0.272   0.4923     C
H       0.7994   0.5673   0.0799     H
C       0.8049   0.8592   0.3298     C
H       0.8091   0.7313   0.0254     H
C       0.8096   0.9106   0.3658     C
H       0.8108   0.7062   0.6136     H
C       0.8159   0.4084    0.712     C
H       0.8185   0.3741   0.1868     H
H       0.8214   0.9944   0.8045     H
C       0.8237   0.4014   0.1563     C
H       0.8299   0.8627   0.4639     H
C       0.8351   0.0623   0.3901     C
H       0.8358   0.2532   0.2253     H
C       0.8391   0.0932   0.1348     C
C       0.8432   0.1572   0.4536     C
C       0.8438   0.4417   0.3874     C
C       0.8451   0.0317   0.1214     C
H       0.8454    0.729    0.785     H
C       0.8463   0.2107   0.2115     C
O       0.8472   0.3826   0.5224     O
H       0.8477   0.3982   0.3751     H
C       0.8488   0.4214   0.9024     C
S       0.8543  0.78277  0.23997     S
H       0.8557   0.8335   0.7688     H
C       0.8569   0.7586   0.8176     C
C        0.857   0.4666   0.6938     C
C       0.8578   0.8529    0.283     C
H         0.86   0.4591   0.8836     H
H       0.8601   0.1858   0.2428     H
H       0.8627    0.382   0.7259     H
C       0.8628   0.6116   0.7785     C
N       0.8645   0.5984   0.7221     N
H       0.8646   0.4476   0.4259     H
H       0.8648   0.3859   0.8775     H
H       0.8649   0.2696    0.802     H
O       0.8672   0.2423   0.9851     O
S       0.8681  0.16935  0.82643     S
H       0.8692   0.9903   0.7023     H
N       0.8702   0.0961   0.4345     N
C       0.8708   0.9563   0.3513     C
C       0.8737   0.2629   0.4599     C
H       0.8813   0.4657   0.3635     H
N       0.8816   0.0094     0.39     N
H       0.8819   0.1202   0.1205     H
O       0.8822   0.7995   0.1852     O
H        0.883   0.8197   0.5783     H
C       0.8833   0.6128   0.9918     C
Na      0.8851    0.086   0.9465    Na
H       0.8851   0.4215   0.9362     H
H       0.8881   0.4867   0.7268     H
H       0.8902   0.6195   0.9523     H
H       0.8932   0.3315   0.0569     H
H       0.8965   0.2091   0.1854     H
C       0.8971   0.8167   0.7954     C
H       0.8975   0.4353   0.6158     H
C       0.8976   0.2055   0.4393     C
H       0.8988   0.2665   0.8647     H
H       0.8998    0.057   0.7263     H
O       0.9019   0.0208   0.0195     O
C       0.9033   0.2475   0.8269     C
H       0.9052   0.4421   0.0649     H
H       0.9073   0.8472   0.8263     H
H       0.9074   0.0386   0.6611     H
H       0.9076   0.4967   0.1124     H
H       0.9097   0.2971    0.452     H
H        0.911   0.6467   0.0141     H
H       0.9122   0.5742      1.0     H
C       0.9123   0.0235   0.6984     C
O       0.9171   0.7418   0.2653     O
C       0.9178   0.8995   0.2701     C
H       0.9185   0.7969   0.9172     H
C       0.9194   0.4113   0.1438     C
H       0.9201   0.0394   0.2321     H
Na      0.9202   0.9141  0.97984    Na
H       0.9211   0.7589   0.5462     H
C       0.9224    0.729   0.8553     C
C       0.9243   0.9512   0.3042     C
Na      0.9245  0.83679  0.10498    Na
O       0.9254   0.1396   0.8684     O
C        0.926   0.4547    0.649     C
S       0.9325  0.00725  0.07532     S
C       0.9338   0.4572   0.0997     C
C       0.9342   0.0638   0.4625     C
C       0.9342   0.8017   0.5578     C
H       0.9381   0.2315   0.3329     H
N       0.9403   0.6418   0.7887     N
C       0.9417   0.3181   0.0783     C
C       0.9421   0.0093   0.4333     C
C       0.9423   0.6213   0.6983     C
O       0.9441   0.9413   0.0789     O
H       0.9457   0.8247    0.525     H
C        0.947   0.7594   0.9055     C
H       0.9479   0.4289   0.1788     H
H       0.9532   0.4936   0.6399     H
H       0.9537   0.8948   0.2376     H
H       0.9538   0.3341   0.2633     H
H       0.9539   0.8066   0.7769     H
H       0.9554   0.7684   0.6623     H
H       0.9579   0.6187     0.66     H
S       0.9585   0.2244  0.99681     S
C       0.9647   0.6735   0.8405     C
H       0.9653   0.2492   0.8141     H
H       0.9656   0.0773   0.4953     H
C       0.9684   0.3517   0.1271     C
O       0.9688   0.1594   0.0055     O
H       0.9723   0.4274   0.6622     H
H       0.9769   0.9413   0.7682     H
O       0.9774   0.7547   0.0432     O
H       0.9799   0.1529   0.3865     H
C       0.9814   0.0248   0.2361     C
H       0.9817    0.977   0.4411     H
C        0.983   0.1954   0.4044     C
H       0.9834   0.0357   0.3211     H
H       0.9871   0.2811   0.3741     H
C       0.9883   0.2641    0.062     C
O       0.9886   0.9577   0.9069     O
C       0.9887   0.2387   0.3582     C
C       0.9894   0.6471   0.7396     C
C       0.9932   0.0007    0.293     C
H       0.9935   0.9919   0.2076     H
H        0.998   0.4623   0.0935     H
