data_I
_chemical_name_common  '/Users/gianmarcoterrones/Research/MOFs/MOF_structures/water_stability_work_extra_structs/cleaned_from_CCDC/SIFVOU'
_cell_length_a 11.08100
_cell_length_b 17.74600
_cell_length_c 19.47600
_cell_angle_alpha 83.53600
_cell_angle_beta  73.59000
_cell_angle_gamma 72.32400
_space_group_name_H-M_alt      'P 1'


loop_
_space_group_symop_operation_xyz
  'x, y, z' 

loop_
_atom_site_label
_atom_site_fract_x
_atom_site_fract_y
_atom_site_fract_z
_atom_site_type_symbol
H       0.0002   0.6002   0.7072     H
H       0.0021   0.2754    0.553     H
H       0.0042   0.0627   0.6926     H
C       0.0045   0.4272   0.3313     C
N       0.0072   0.6674   0.8985     N
H       0.0087   0.4304   0.4692     H
C       0.0118   0.0943   0.3711     C
H       0.0134   0.1811   0.6371     H
N       0.0159   0.7827   0.9126     N
C       0.0176   0.2509   0.0194     C
C       0.0216   0.8637   0.9005     C
C       0.0236   0.3223   0.0293     C
H       0.0252   0.5168   0.6776     H
C       0.0253   0.5926   0.8689     C
C        0.026   0.0178   0.8823     C
O       0.0261   0.6606   0.2095     O
S      0.02885  0.11823  0.86999     S
C       0.0309   0.9708   0.3241     C
C       0.0326   0.7324   0.8607     C
H       0.0327   0.2281    0.976     H
H       0.0327   0.3268   0.6027     H
O       0.0361   0.6697   0.1748     O
H        0.045    0.359   0.9934     H
C       0.0492   0.9563   0.6499     C
H       0.0496   0.6527   0.5901     H
O       0.0504   0.1378   0.7926     O
C       0.0607    0.505   0.1568     C
C       0.0617   0.2768     0.58     C
C       0.0639   0.4438   0.8241     C
O       0.0649   0.2151   0.6329     O
N       0.0731   0.8319   0.5984     N
C       0.0796   0.5551   0.5353     C
Ag     0.08256  0.74968  0.74809    Ag
C       0.0829   0.5955   0.5982     C
C       0.0839   0.4293   0.1347     C
C       0.0853   0.0001   0.1196     C
S      0.08951  0.34452   0.8032     S
C       0.0918   0.0785   0.1082     C
H       0.0936   0.4128   0.3345     H
O       0.0979   0.8359    0.089     O
H       0.1031   0.8586   0.4891     H
H       0.1098   0.4988   0.5424     H
O        0.123   0.3463   0.7236     O
C       0.1248    0.822   0.5249     C
C       0.1268   0.7675    0.636     C
H       0.1313   0.5217   0.1589     H
O       0.1329   0.3003   0.8672     O
H       0.1331   0.2249    0.329     H
C       0.1339   0.9606   0.8943     C
H       0.1356   0.5711   0.4925     H
C       0.1365   0.8806   0.9024     C
O       0.1375    0.121   0.8968     O
C       0.1449   0.0719   0.3694     C
Na      0.1458  0.74191   0.2189    Na
H        0.146   0.1526   0.4352     H
H        0.148   0.2701   0.5485     H
H       0.1527   0.5623   0.3147     H
C       0.1543   0.5419   0.8493     C
H       0.1565   0.9602   0.1286     H
C       0.1631   0.9469   0.3227     C
C       0.1706   0.4672   0.8256     C
O       0.1818   0.7998   0.3423     O
H       0.1837   0.2779    0.179     H
H       0.1908    0.104   0.2099     H
H        0.192   0.9968    0.723     H
O       0.1938    0.296   0.8254     O
H       0.1941   0.9089   0.7452     H
Na      0.1951  0.19947  0.70648    Na
C       0.1953   0.9345   0.6398     C
O       0.1999   0.3257   0.7409     O
H       0.2035   0.1545   0.0936     H
C       0.2052   0.1285   0.3905     C
H       0.2064    0.975    0.897     H
C       0.2111   0.7503   0.5153     C
N       0.2122   0.7174   0.5838     N
C       0.2183   0.1957   0.3347     C
H       0.2184   0.0388   0.5885     H
C       0.2192   0.0972   0.1021     C
C       0.2197   0.9959   0.3458     C
O        0.221    0.635   0.2941     O
C       0.2222   0.3714   0.1141     C
C       0.2244    0.578   0.6038     C
H       0.2254   0.7758   0.9465     H
C       0.2292    0.943   0.7083     C
H       0.2295    0.345   0.0709     H
H        0.232   0.8788   0.6268     H
H       0.2355   0.6529   0.0582     H
H       0.2366   0.3314    0.215     H
H       0.2375    0.974   0.5349     H
H       0.2391   0.6474   0.3344     H
C       0.2408   0.5559   0.2856     C
H       0.2409   0.6179   0.8739     H
C       0.2462   0.3075   0.1712     C
O       0.2533   0.8449   0.2232     O
H       0.2538   0.5288    0.243     H
H       0.2546   0.4328   0.8106     H
H       0.2548   0.4603   0.6257     H
S      0.25536  0.84872   0.2964     S
C       0.2556   0.9837   0.5779     C
H       0.2563   0.5189   0.9614     H
H       0.2564   0.2303   0.3504     H
C       0.2565   0.8161   0.9138     C
C         0.26   0.0764   0.1714     C
H       0.2603    0.727   0.4719     H
C       0.2714    0.563   0.8586     C
H       0.2736   0.1739   0.2897     H
H       0.2772   0.0204   0.1809     H
H        0.279     0.15    0.819     H
C       0.2864    0.637   0.5961     C
H       0.2876   0.7532   0.8241     H
H       0.2915   0.8674   0.9935     H
H       0.2956   0.0751   0.9951     H
C       0.2958   0.5004   0.6161     C
H       0.3016   0.5257    0.312     H
O       0.3077   0.7147   0.1055     O
H       0.3078   0.9781   0.3456     H
H       0.3126   0.2459   0.9333     H
C       0.3177   0.6473   0.0684     C
H       0.3228   0.9286      0.7     H
H       0.3231   0.4482   0.0566     H
C       0.3239   0.5114   0.9172     C
C        0.324   0.0568   0.0378     C
H       0.3256   0.3822   0.4185     H
H       0.3264   0.4391   0.1372     H
H       0.3297   0.2981   0.4541     H
C        0.332   0.4114   0.0962     C
H       0.3334   0.2727   0.1559     H
H       0.3341   0.0492   0.4429     H
H        0.338   0.0915   0.1672     H
H       0.3383   0.0005   0.0435     H
H       0.3388   0.6004   0.0977     H
C       0.3396   0.7761   0.8427     C
H       0.3405   0.5948    0.754     H
O       0.3418   0.1407    0.785     O
C       0.3421   0.0882   0.4048     C
C       0.3423    0.846   0.9476     C
O       0.3471   0.6195   0.3972     O
H       0.3481   0.3631   0.4952     H
H       0.3488   0.9693   0.5715     H
H       0.3512   0.4569   0.9045     H
H       0.3619   0.7471   0.0865     H
H       0.3639   0.7473   0.6739     H
C       0.3655    0.342    0.449     C
H       0.3659   0.0271    0.801     H
H       0.3686   0.8147   0.8088     H
H       0.3729   0.8864    0.917     H
H       0.3743   0.1274   0.4181     H
O       0.3744   0.2101   0.6158     O
C       0.3762   0.5586   0.7886     C
O       0.3821   0.8364   0.3052     O
H       0.3855   0.6431   0.0244     H
H        0.393    0.244    0.616     H
H       0.3975   0.5257   0.9227     H
H       0.4022   0.0631   0.3622     H
H       0.4042    0.069   0.0341     H
C       0.4057    0.236   0.9246     C
H       0.4057   0.5057   0.7714     H
H       0.4145   0.7353   0.8509     H
H       0.4154    0.372   0.0837     H
H       0.4161   0.8029   0.9535     H
C       0.4197   0.6206   0.5939     C
C       0.4206    0.062   0.7885     C
Na      0.4241  0.25407  0.75676    Na
H       0.4245   0.2523   0.9648     H
H       0.4248   0.4714   0.3985     H
C       0.4256   0.4831   0.6142     C
H       0.4274   0.1253   0.5492     H
H       0.4468   0.7265   0.5516     H
H       0.4482   0.1805   0.9178     H
H       0.4488   0.5724   0.7961     H
O       0.4498   0.2766   0.8662     O
C       0.4569   0.7255   0.6554     C
H       0.4671   0.8297   0.4596     H
H       0.4674   0.0571   0.8241     H
C       0.4689   0.1492   0.5743     C
O       0.4761   0.3354   0.5884     O
O       0.4771   0.3684   0.7055     O
H        0.482   0.0483   0.7427     H
S       0.4848  0.61663  0.37121     S
C       0.4849   0.6862   0.5842     C
C       0.4866   0.5419    0.603     C
H       0.4888   0.8899   0.3952     H
H       0.4906   0.6868    0.689     H
H       0.4911   0.3141   0.8691     H
H       0.4986    0.767   0.6477     H
H       0.5014    0.233   0.3523     H
H       0.5089   0.6859   0.1309     H
H       0.5094   0.3132    0.311     H
H       0.5112   0.1101   0.6048     H
C       0.5134   0.4581    0.397     C
C       0.5151   0.3138   0.4158     C
S       0.5152  0.38337  0.62879     S
H        0.518   0.9517   0.2573     H
O       0.5229   0.6316   0.2945     O
O       0.5239   0.6646   0.4116     O
C       0.5311   0.8508   0.4257     C
H       0.5326   0.9429   0.1759     H
H       0.5329   0.1703   0.5404     H
C       0.5431   0.2745   0.3446     C
O       0.5502   0.7234   0.1338     O
H       0.5512   0.4276   0.2039     H
H       0.5518   0.8195   0.0822     H
H       0.5532   0.2735   0.4484     H
H       0.5726   0.8747   0.4508     H
C       0.5744   0.5169   0.3858     C
H       0.5752   0.5286   0.6015     H
H       0.5755   0.7477   0.0352     H
Na      0.5759  0.74593  0.24324    Na
C       0.5794    0.938   0.2115     C
C       0.5803   0.3794   0.4061     C
H       0.5839   0.1971   0.0465     H
H       0.5846    0.628   0.9163     H
H       0.5855   0.2647   0.1491     H
H       0.5943   0.4943   0.2286     H
C       0.5943    0.764   0.0754     C
H       0.5958    0.931   0.9659     H
H       0.5978   0.9369   0.6378     H
H       0.6025   0.4743   0.0773     H
H        0.607    0.756    0.384     H
H       0.6145   0.3569   0.9756     H
O       0.6179   0.1636   0.6948     O
C       0.6238   0.4414   0.2114     C
O       0.6256   0.7899   0.3842     O
H       0.6257   0.8726   0.5819     H
H       0.6271   0.1136    0.083     H
H       0.6314   0.1853   0.1912     H
H       0.6341   0.9729    0.199     H
C       0.6345    0.658    0.551     C
H       0.6361   0.2527   0.3261     H
H       0.6381   0.2529   0.9135     H
H       0.6488   0.5431   0.0955     H
H       0.6512   0.0307   0.4285     H
H       0.6519   0.6369   0.5048     H
O       0.6529   0.3805   0.6028     O
C       0.6577    0.154   0.0524     C
C       0.6579   0.9118   0.5952     C
O       0.6582   0.8593    0.215     O
H       0.6595   0.4052    0.246     H
C       0.6604   0.2239   0.1573     C
H       0.6612   0.3996   0.9023     H
H       0.6617   0.9995   0.9565     H
H        0.662   0.9085   0.8328     H
H       0.6633   0.3663    0.724     H
H       0.6659   0.9508   0.5571     H
H       0.6666   0.7273   0.8441     H
C        0.668   0.5886   0.9038     C
H       0.6703   0.7019   0.5459     H
H       0.6736   0.5609   0.8628     H
H       0.6744   0.6178   0.5815     H
C        0.676   0.9432   0.9622     C
C       0.6761   0.4886   0.0828     C
H       0.6769   0.5518   0.9434     H
H       0.6772   0.0714      0.3     H
C       0.6823   0.3527   0.9316     C
H       0.6874   0.7541   0.0667     H
H       0.6922   0.0219   0.6544     H
O       0.6923   0.2853   0.8945     O
H       0.6984   0.4743    0.688     H
C       0.7042   0.4996   0.3839     C
H       0.7044   0.9249   0.0049     H
H       0.7085   0.1326   0.0065     H
H       0.7124   0.2468   0.1759     H
C       0.7136    0.363   0.4039     C
H        0.721     0.85    0.181     H
H       0.7228   0.9796   0.8191     H
H       0.7264   0.8261   0.7103     H
C       0.7286    0.437   0.1414     C
O        0.739   0.3707   0.7329     O
H       0.7397    0.273   0.5281     H
C         0.74   0.9236   0.8286     C
C       0.7435   0.1839   0.0862     C
H       0.7436   0.7697   0.6496     H
H       0.7437   0.4811   0.0386     H
C       0.7444   0.0163   0.4221     C
S      0.74464  0.15128   0.7036     S
H       0.7452   0.5397   0.3743     H
H       0.7454   0.5672   0.1894     H
H       0.7462   0.4712    0.757     H
O       0.7467   0.1551   0.7768     O
C       0.7538   0.6925   0.8288     C
H       0.7591   0.3821   0.1261     H
C       0.7592   0.4441   0.7144     C
H       0.7625    0.026   0.4651     H
H       0.7634   0.6686    0.785     H
H       0.7645   0.3471   0.9418     H
H        0.768   0.1212   0.3732     H
H       0.7705    0.655   0.9291     H
C       0.7708    0.057   0.2917     C
H       0.7746   0.2242   0.0535     H
C       0.7756    0.422   0.3962     C
C       0.7778   0.6286   0.8859     C
C       0.7803   0.0041   0.6542     C
C       0.7808   0.9028   0.8979     C
H       0.7816   0.9612   0.4115     H
C       0.7817   0.8043   0.6653     C
N       0.7878   0.2826   0.4162     N
C       0.7889   0.2497   0.4847     C
H       0.7936    0.025    0.103     H
C       0.7948   0.8715   0.6095     C
H       0.7965   0.8455   0.9064     H
O       0.8001   0.6743   0.2591     O
C       0.8047   0.0655   0.3602     C
Na      0.8049  0.80053  0.29352    Na
H       0.8059   0.0911   0.2548     H
O       0.8062    0.704   0.1746     O
H        0.808   0.0032    0.277     H
H       0.8092    0.896   0.7901     H
H       0.8163   0.7221    0.821     H
O       0.8182   0.2002   0.6577     O
C       0.8294   0.5328   0.1744     C
C       0.8369   0.0531   0.6773     C
H       0.8435   0.0398   0.8714     H
C       0.8457   0.4581   0.1507     C
H       0.8473   0.4377   0.6853     H
H        0.852   0.7299   0.4515     H
H        0.854   0.8474   0.5648     H
Na      0.8542  0.25809   0.7811    Na
C       0.8551   0.9281   0.6306     C
O       0.8625    0.879   0.1032     O
C       0.8635   0.1194   0.0976     C
H       0.8644   0.4289   0.5075     H
C       0.8661   0.0394   0.1057     C
H       0.8669   0.7751    0.671     H
O       0.8671   0.6997   0.1328     O
H       0.8687   0.4783   0.8411     H
C       0.8732   0.2325    0.364     C
C       0.8752    0.178   0.4751     C
O        0.877   0.6537   0.2764     O
H       0.8902   0.5012   0.4576     H
H       0.8969   0.1414   0.5109     H
O       0.9021   0.1641    0.911     O
H       0.9064   0.5872   0.6655     H
C       0.9082   0.9215   0.8918     C
S      0.91049  0.65548   0.1968     S
C       0.9147   0.9999   0.8804     C
C       0.9161   0.5707   0.8653     C
C       0.9171   0.4045   0.4018     C
Ag     0.91744  0.25032  0.25191    Ag
C       0.9204   0.4449   0.4647     C
N       0.9269   0.1681   0.4016     N
O       0.9351   0.7849   0.3671     O
C       0.9361   0.5562   0.1759     C
C       0.9383   0.7232     0.42     C
C       0.9393    0.495   0.8432     C
O       0.9496   0.8622   0.2074     O
H       0.9504   0.3473   0.4099     H
C       0.9508   0.0437   0.3501     C
H        0.955    0.641   0.0066     H
O       0.9639   0.3303   0.8252     O
H       0.9673   0.6732   0.3973     H
H       0.9673   0.7719    0.024     H
C       0.9674   0.2676   0.1393     C
C       0.9691   0.0292   0.6759     C
S      0.97115  0.88177  0.13001     S
O       0.9739   0.3394   0.7905     O
C        0.974   0.9822   0.1177     C
C       0.9747   0.4074   0.1311     C
H       0.9748   0.4832   0.3224     H
C       0.9764   0.6777   0.9707     C
C       0.9784   0.1363   0.0995     C
C       0.9824   0.7491   0.9806     C
N       0.9841   0.2173   0.0874     N
H       0.9866   0.8189   0.3629     H
C       0.9882   0.9057   0.6289     C
H       0.9913   0.5696   0.5308     H
N       0.9928   0.3326   0.1015     N
C       0.9955   0.5728   0.6687     C
H       0.9958   0.9373   0.3074     H
H       0.9979   0.7246    0.447     H
H       0.9998   0.3998   0.2928     H
