data_I
_chemical_name_common  '/Users/gianmarcoterrones/Research/MOFs/MOF_structures/water_stability_work_extra_structs/cleaned_from_CCDC/SOCLIH'
_cell_length_a 15.91000
_cell_length_b 17.31500
_cell_length_c 17.52300
_cell_angle_alpha 90.00000
_cell_angle_beta  108.41000
_cell_angle_gamma 90.00000
_space_group_name_H-M_alt      'P 1'


loop_
_space_group_symop_operation_xyz
  'x, y, z' 

loop_
_atom_site_label
_atom_site_fract_x
_atom_site_fract_y
_atom_site_fract_z
_atom_site_type_symbol
C        0.004    0.257   0.2647     C
C       0.0078   0.6647   0.2307     C
C         0.01   0.1786   0.2335     C
C       0.0128    0.099   0.7201     C
H       0.0151   0.8468   0.5628     H
H       0.0171   0.2819   0.0538     H
O       0.0222   0.8176   0.0626     O
C       0.0233   0.4956   0.3519     C
C       0.0251   0.4201   0.3261     C
O       0.0257   0.2499   0.5536     O
N       0.0304   0.0333    0.173     N
N       0.0334   0.6822   0.3089     N
H       0.0352   0.6692    0.127     H
N       0.0393   0.1144    0.799     N
C       0.0401   0.7159    0.494     C
H       0.0424   0.9235   0.3036     H
Ni     0.04262  0.92163  0.13467    Ni
C       0.0447   0.1496    0.987     C
H       0.0458   0.1043    0.619     H
H        0.046   0.3606   0.7912     H
C        0.046   0.9287   0.8569     C
C       0.0516   0.6183   0.7173     C
N       0.0517    0.465   0.6629     N
Ni     0.05244  0.35246  0.62561    Ni
C       0.0537   0.6978   0.7493     C
H        0.056   0.2736   0.3029     H
C       0.0564   0.6821   0.1812     C
O        0.057   0.6467   0.4818     O
C       0.0589   0.8568   0.8283     C
O       0.0642   0.0812   0.9745     O
C       0.0657   0.1159   0.6736     C
C       0.0717   0.8279   0.5888     C
C       0.0721   0.2617   0.0828     C
H       0.0763   0.5194   0.3805     H
H       0.0791   0.3946   0.3381     H
C       0.0865   0.1374   0.2622     C
H       0.0916   0.9511   0.8979     H
C       0.0948   0.0677   0.2317     C
C       0.1004   0.7602   0.5638     C
C       0.1006   0.1935   0.0583     C
H       0.1021   0.9465   0.0234     H
H       0.1041   0.3452   0.1652     H
H       0.1076   0.7138    0.785     H
H       0.1098   0.9129   0.6721     H
H       0.1128   0.8317   0.8498     H
C       0.1129   0.7175   0.3386     C
C       0.1186   0.1478   0.8318     C
C       0.1242   0.2995   0.1491     C
C       0.1245   0.5029   0.7018     C
C       0.1251   0.5769   0.7291     C
O       0.1287   0.9555   0.0728     O
C       0.1292   0.8678   0.6541     C
H       0.1324   0.7289   0.3932     H
H       0.1333   0.0043   0.0776     H
H       0.1335   0.1578   0.3034     H
H       0.1365   0.3542    0.523     H
H       0.1367   0.1586   0.8866     H
C       0.1379   0.7191   0.2123     C
H       0.1389   0.4298   0.5508     H
O       0.1423   0.3824   0.5641     O
O       0.1459   0.8886   0.2295     O
C       0.1464   0.1493    0.706     C
H       0.1481   0.0418   0.2523     H
O       0.1561     0.32   0.7221     O
C        0.168   0.7381    0.294     C
H       0.1718   0.7309   0.1792     H
C       0.1755   0.1675   0.7884     C
H       0.1786   0.4779   0.7113     H
H       0.1792   0.5993   0.7571     H
H       0.1819     0.16   0.6742     H
C       0.1832   0.1641   0.1015     C
C       0.1858   0.7326   0.6034     C
H       0.2022   0.1181   0.0851     H
H        0.204   0.6863   0.5868     H
C       0.2078   0.2706   0.1934     C
C       0.2149   0.8415   0.6928     C
O       0.2214   0.3412   0.3116     O
C        0.227   0.8917   0.2401     C
O       0.2358   0.9339   0.7974     O
C       0.2382   0.2021   0.1689     C
C       0.2383   0.3134   0.7331     C
C       0.2441    0.773   0.6669     C
C       0.2559    0.773   0.3331     C
C       0.2617   0.3134   0.2669     C
C       0.2618   0.2021   0.8311     C
O       0.2642   0.9339   0.2026     O
C        0.273   0.8917   0.7599     C
O       0.2786   0.3412   0.6884     O
C       0.2851   0.8415   0.3072     C
C       0.2922   0.2706   0.8066     C
H        0.296   0.6863   0.4132     H
H       0.2978   0.1181   0.9149     H
C       0.3142   0.7326   0.3966     C
C       0.3168   0.1641   0.8985     C
H       0.3181     0.16   0.3258     H
H       0.3208   0.5993   0.2429     H
H       0.3214   0.4779   0.2887     H
C       0.3245   0.1675   0.2116     C
H       0.3282   0.7309   0.8208     H
C        0.332   0.7381    0.706     C
O       0.3439     0.32   0.2779     O
H       0.3519   0.0418   0.7477     H
C       0.3536   0.1493    0.294     C
O       0.3541   0.8886   0.7705     O
O       0.3577   0.3824   0.4359     O
H       0.3611   0.4298   0.4492     H
C       0.3621   0.7191   0.7877     C
H       0.3633   0.1586   0.1134     H
H       0.3635   0.3542    0.477     H
H       0.3665   0.1578   0.6966     H
H       0.3667   0.0043   0.9224     H
H       0.3676   0.7289   0.6068     H
C       0.3708   0.8678   0.3459     C
O       0.3713   0.9555   0.9272     O
C       0.3749   0.5769   0.2709     C
C       0.3755   0.5029   0.2982     C
C       0.3758   0.2995   0.8509     C
C       0.3814   0.1478   0.1682     C
C       0.3871   0.7175   0.6614     C
H       0.3872   0.8317   0.1502     H
H       0.3902   0.9129   0.3279     H
H       0.3924   0.7138    0.215     H
H       0.3959   0.3452   0.8348     H
H       0.3979   0.9465   0.9766     H
C       0.3994   0.1935   0.9417     C
C       0.3996   0.7602   0.4362     C
C       0.4052   0.0677   0.7683     C
H       0.4084   0.9511   0.1021     H
C       0.4135   0.1374   0.7378     C
H       0.4209   0.3946   0.6619     H
H       0.4237   0.5194   0.6195     H
C       0.4279   0.2617   0.9172     C
C       0.4283   0.8279   0.4112     C
C       0.4343   0.1159   0.3264     C
O       0.4358   0.0812   0.0255     O
C       0.4411   0.8568   0.1717     C
O        0.443   0.6467   0.5182     O
C       0.4436   0.6821   0.8188     C
H        0.444   0.2736   0.6971     H
C       0.4463   0.6978   0.2507     C
Ni     0.44756  0.35246  0.37439    Ni
N       0.4483    0.465   0.3371     N
C       0.4484   0.6183   0.2827     C
H        0.454   0.3606   0.2088     H
C        0.454   0.9287   0.1431     C
H       0.4542   0.1043    0.381     H
C       0.4553   0.1496    0.013     C
Ni     0.45738  0.92163  0.86533    Ni
H       0.4576   0.9235   0.6964     H
C       0.4599   0.7159    0.506     C
N       0.4607   0.1144    0.201     N
H       0.4648   0.6692    0.873     H
N       0.4666   0.6822   0.6911     N
N       0.4696   0.0333    0.827     N
O       0.4743   0.2499   0.4464     O
C       0.4749   0.4201   0.6739     C
C       0.4767   0.4956   0.6481     C
O       0.4778   0.8176   0.9374     O
H       0.4829   0.2819   0.9462     H
H       0.4849   0.8468   0.4372     H
C       0.4872    0.099   0.2799     C
C         0.49   0.1786   0.7665     C
C       0.4922   0.6647   0.7693     C
C        0.496    0.257   0.7353     C
C        0.504    0.743   0.2647     C
C       0.5078   0.3353   0.2307     C
C         0.51   0.8214   0.2335     C
C       0.5128    0.901   0.7201     C
H       0.5151   0.1532   0.5628     H
H       0.5171   0.7181   0.0538     H
O       0.5222   0.1824   0.0626     O
C       0.5233   0.5044   0.3519     C
C       0.5251   0.5799   0.3261     C
O       0.5257   0.7501   0.5536     O
N       0.5304   0.9667    0.173     N
N       0.5334   0.3178   0.3089     N
H       0.5352   0.3308    0.127     H
N       0.5393   0.8856    0.799     N
C       0.5401   0.2841    0.494     C
H       0.5424   0.0765   0.3036     H
Ni     0.54262  0.07837  0.13467    Ni
C       0.5447   0.8504    0.987     C
H       0.5458   0.8957    0.619     H
C        0.546   0.0713   0.8569     C
H        0.546   0.6394   0.7912     H
C       0.5516   0.3817   0.7173     C
N       0.5517    0.535   0.6629     N
Ni     0.55244  0.64754  0.62561    Ni
C       0.5537   0.3022   0.7493     C
H        0.556   0.7264   0.3029     H
C       0.5564   0.3179   0.1812     C
O        0.557   0.3533   0.4818     O
C       0.5589   0.1432   0.8283     C
O       0.5642   0.9188   0.9745     O
C       0.5657   0.8841   0.6736     C
C       0.5717   0.1721   0.5888     C
C       0.5721   0.7383   0.0828     C
H       0.5763   0.4806   0.3805     H
H       0.5791   0.6054   0.3381     H
C       0.5865   0.8626   0.2622     C
H       0.5916   0.0489   0.8979     H
C       0.5948   0.9323   0.2317     C
C       0.6004   0.2398   0.5638     C
C       0.6006   0.8065   0.0583     C
H       0.6021   0.0535   0.0234     H
H       0.6041   0.6548   0.1652     H
H       0.6076   0.2862    0.785     H
H       0.6098   0.0871   0.6721     H
H       0.6128   0.1683   0.8498     H
C       0.6129   0.2825   0.3386     C
C       0.6186   0.8522   0.8318     C
C       0.6242   0.7005   0.1491     C
C       0.6245   0.4971   0.7018     C
C       0.6251   0.4231   0.7291     C
O       0.6287   0.0445   0.0728     O
C       0.6292   0.1322   0.6541     C
H       0.6324   0.2711   0.3932     H
H       0.6333   0.9957   0.0776     H
H       0.6335   0.8422   0.3034     H
H       0.6365   0.6458    0.523     H
H       0.6367   0.8414   0.8866     H
C       0.6379   0.2809   0.2123     C
H       0.6389   0.5702   0.5508     H
O       0.6423   0.6176   0.5641     O
O       0.6459   0.1114   0.2295     O
C       0.6464   0.8507    0.706     C
H       0.6481   0.9582   0.2523     H
O       0.6561     0.68   0.7221     O
C        0.668   0.2619    0.294     C
H       0.6718   0.2691   0.1792     H
C       0.6755   0.8325   0.7884     C
H       0.6786   0.5221   0.7113     H
H       0.6792   0.4007   0.7571     H
H       0.6819     0.84   0.6742     H
C       0.6832   0.8359   0.1015     C
C       0.6858   0.2674   0.6034     C
H       0.7022   0.8819   0.0851     H
H        0.704   0.3137   0.5868     H
C       0.7078   0.7294   0.1934     C
C       0.7149   0.1585   0.6928     C
O       0.7214   0.6588   0.3116     O
C        0.727   0.1083   0.2401     C
O       0.7358   0.0661   0.7974     O
C       0.7382   0.7979   0.1689     C
C       0.7383   0.6866   0.7331     C
C       0.7441    0.227   0.6669     C
C       0.7559    0.227   0.3331     C
C       0.7617   0.6866   0.2669     C
C       0.7618   0.7979   0.8311     C
O       0.7642   0.0661   0.2026     O
C        0.773   0.1083   0.7599     C
O       0.7786   0.6588   0.6884     O
C       0.7851   0.1585   0.3072     C
C       0.7922   0.7294   0.8066     C
H        0.796   0.3137   0.4132     H
H       0.7978   0.8819   0.9149     H
C       0.8142   0.2674   0.3966     C
C       0.8168   0.8359   0.8985     C
H       0.8181     0.84   0.3258     H
H       0.8208   0.4007   0.2429     H
H       0.8214   0.5221   0.2887     H
C       0.8245   0.8325   0.2116     C
H       0.8282   0.2691   0.8208     H
C        0.832   0.2619    0.706     C
O       0.8439     0.68   0.2779     O
H       0.8519   0.9582   0.7477     H
C       0.8536   0.8507    0.294     C
O       0.8541   0.1114   0.7705     O
O       0.8577   0.6176   0.4359     O
H       0.8611   0.5702   0.4492     H
C       0.8621   0.2809   0.7877     C
H       0.8633   0.8414   0.1134     H
H       0.8635   0.6458    0.477     H
H       0.8665   0.8422   0.6966     H
H       0.8667   0.9957   0.9224     H
H       0.8676   0.2711   0.6068     H
C       0.8708   0.1322   0.3459     C
O       0.8713   0.0445   0.9272     O
C       0.8749   0.4231   0.2709     C
C       0.8755   0.4971   0.2982     C
C       0.8758   0.7005   0.8509     C
C       0.8814   0.8522   0.1682     C
C       0.8871   0.2825   0.6614     C
H       0.8872   0.1683   0.1502     H
H       0.8902   0.0871   0.3279     H
H       0.8924   0.2862    0.215     H
H       0.8959   0.6548   0.8348     H
H       0.8979   0.0535   0.9766     H
C       0.8994   0.8065   0.9417     C
C       0.8996   0.2398   0.4362     C
C       0.9052   0.9323   0.7683     C
H       0.9084   0.0489   0.1021     H
C       0.9135   0.8626   0.7378     C
H       0.9209   0.6054   0.6619     H
H       0.9237   0.4806   0.6195     H
C       0.9279   0.7383   0.9172     C
C       0.9283   0.1721   0.4112     C
C       0.9343   0.8841   0.3264     C
O       0.9358   0.9188   0.0255     O
C       0.9411   0.1432   0.1717     C
O        0.943   0.3533   0.5182     O
C       0.9436   0.3179   0.8188     C
H        0.944   0.7264   0.6971     H
C       0.9463   0.3022   0.2507     C
Ni     0.94756  0.64754  0.37439    Ni
N       0.9483    0.535   0.3371     N
C       0.9484   0.3817   0.2827     C
C        0.954   0.0713   0.1431     C
H        0.954   0.6394   0.2088     H
H       0.9542   0.8957    0.381     H
C       0.9553   0.8504    0.013     C
Ni     0.95738  0.07837  0.86533    Ni
H       0.9576   0.0765   0.6964     H
C       0.9599   0.2841    0.506     C
N       0.9607   0.8856    0.201     N
H       0.9648   0.3308    0.873     H
N       0.9666   0.3178   0.6911     N
N       0.9696   0.9667    0.827     N
O       0.9743   0.7501   0.4464     O
C       0.9749   0.5799   0.6739     C
C       0.9767   0.5044   0.6481     C
O       0.9778   0.1824   0.9374     O
H       0.9829   0.7181   0.9462     H
H       0.9849   0.1532   0.4372     H
C       0.9872    0.901   0.2799     C
C         0.99   0.8214   0.7665     C
C       0.9922   0.3353   0.7693     C
C        0.996    0.743   0.7353     C
