data_I
_chemical_name_common  '/Users/gianmarcoterrones/Research/MOFs/MOF_structures/water_stability_work_extra_structs/cleaned_from_CCDC/SUTJEY'
_cell_length_a  9.16040
_cell_length_b 11.94100
_cell_length_c 13.58200
_cell_angle_alpha 85.54000
_cell_angle_beta  80.32000
_cell_angle_gamma 76.61000
_space_group_name_H-M_alt      'P 1'


loop_
_space_group_symop_operation_xyz
  'x, y, z' 

loop_
_atom_site_label
_atom_site_fract_x
_atom_site_fract_y
_atom_site_fract_z
_atom_site_type_symbol
C       0.0113   0.0353   0.6312     C
H       0.0168   0.7698   0.8591     H
C       0.0187   0.2434   0.0705     C
H       0.0249   0.7087   0.1954     H
C       0.0305   0.9441   0.9725     C
C       0.0403   0.9168   0.6235     C
C       0.0423   0.6371   0.1678     C
H        0.047   0.2241   0.3457     H
C       0.0472   0.5295   0.8641     C
H       0.0642   0.9623   0.9028     H
C       0.0667   0.1447   0.3399     C
H       0.0667   0.7142   0.9606     H
C       0.0765    0.417   0.8298     C
C       0.0861   0.1301   0.0212     C
H       0.0869   0.0744   0.6049     H
C       0.0979   0.4174   0.0941     C
H       0.1181      0.9   0.0004     H
H       0.1248   0.1447   0.9516     H
H       0.1257   0.5681   0.8585     H
C       0.1263   0.9035   0.3232     C
H       0.1352   0.8783   0.5926     H
O       0.1363   0.3078   0.0585     O
H       0.1395   0.4811    0.449     H
H       0.1434   0.4925    0.617     H
H       0.1445   0.8242   0.3173     H
H       0.1707   0.0885   0.0534     H
C       0.1889   0.5837   0.1238     C
C       0.1981   0.5267    0.469     C
C       0.1985   0.5346   0.5707     C
C       0.2054   0.0842   0.2939     C
C       0.2154   0.4754   0.0849     C
C        0.236   0.3526   0.8005     C
C       0.2372   0.9643   0.2863     C
O       0.2636   0.2485  0.77852     O
H       0.2648   0.2875   0.2173     H
C       0.2798   0.6043   0.6034     C
H       0.2801   0.6109   0.6711     H
C        0.281   0.5838   0.3972     C
H       0.2816   0.5757   0.3296     H
H        0.297   0.2687   0.3881     H
H       0.3117   0.4415   0.0528     H
C       0.3147   0.6476   0.1137     C
O       0.3182   0.7032   0.1882     O
H       0.3347   0.1557   0.6406     H
N       0.3354    0.118    0.248     N
H       0.3411   0.1451   0.5256     H
H       0.3439   0.0504   0.8405     H
O       0.3452   0.4002  0.80317     O
H       0.3525   0.2215   0.9567     H
C       0.3546   0.2375   0.2384     C
C       0.3609    0.664   0.5311     C
C       0.3642   0.6543   0.4289     C
H       0.3663   0.9217   0.8132     H
H       0.3786   0.3606   0.3284     H
C         0.38   0.2789   0.3361     C
N       0.3848   0.9282   0.2357     N
H       0.3884   0.7747   0.6835     H
C       0.4008   0.1394   0.5782     C
O        0.405   0.6425    0.034     O
C       0.4087   0.9748   0.8428     C
H       0.4171   0.9506   0.9111     H
C       0.4388   0.0225   0.2132     C
H       0.4406   0.2429   0.1872     H
O        0.445    0.205  0.94033     O
N        0.448   0.7428   0.5376     N
N       0.4536   0.7257   0.3746     N
H       0.4627   0.0629    0.582     H
H       0.4703   0.8659   0.6229     H
C       0.4716   0.7843   0.6314     C
H        0.495     0.25    0.957     H
Ni     0.49875  0.75875  0.21846    Ni
C          0.5    0.224   0.5571     C
C          0.5    0.776   0.4429     C
Ni     0.50125  0.24125  0.78154    Ni
H        0.505     0.75    0.043     H
C       0.5284   0.2157   0.3686     C
H       0.5297   0.1341   0.3771     H
H       0.5373   0.9371    0.418     H
N       0.5464   0.2743   0.6254     N
N        0.552   0.2572   0.4624     N
O        0.555    0.795  0.05967     O
H       0.5594   0.7571   0.8128     H
C       0.5612   0.9775   0.7868     C
H       0.5829   0.0494   0.0889     H
C       0.5913   0.0252   0.1572     C
O        0.595   0.3575    0.966     O
C       0.5992   0.8606   0.4218     C
H       0.6116   0.2253   0.3165     H
N       0.6152   0.0718   0.7643     N
C         0.62   0.7211   0.6639     C
H       0.6214   0.6394   0.6716     H
H       0.6337   0.0783   0.1868     H
C       0.6358   0.3457   0.5711     C
C       0.6391    0.336   0.4689     C
C       0.6454   0.7625   0.7616     C
H       0.6475   0.7785   0.0433     H
O       0.6548   0.5998  0.19683     O
H       0.6561   0.9496   0.1595     H
H       0.6589   0.8549   0.4744     H
N       0.6646    0.882    0.752     N
H       0.6653   0.8443   0.3594     H
O       0.6818   0.2968   0.8118     O
C       0.6853   0.3524   0.8863     C
H       0.6883   0.5585   0.9472     H
H        0.703   0.7313   0.6119     H
H       0.7184   0.4243   0.6704     H
C        0.719   0.4162   0.6028     C
H       0.7199   0.3891   0.3289     H
C       0.7202   0.3957   0.3966     C
H       0.7352   0.7125   0.7827     H
O       0.7364   0.7515  0.22148     O
C       0.7628   0.0357   0.7137     C
C        0.764   0.6474   0.1995     C
C       0.7846   0.5246   0.9151     C
C       0.7946   0.9158   0.7061     C
C       0.8015   0.4654   0.4293     C
C       0.8019   0.4733    0.531     C
C       0.8111   0.4163   0.8762     C
H       0.8293   0.9115   0.9466     H
H       0.8555   0.1758   0.6827     H
H       0.8566   0.5075    0.383     H
H       0.8605   0.5189    0.551     H
O       0.8637   0.6922   0.9415     O
H       0.8648   0.1217   0.4074     H
C       0.8737   0.0965   0.6768     C
H       0.8743   0.4319   0.1415     H
H       0.8752   0.8553   0.0484     H
H       0.8819      0.1   0.9996     H
C       0.9021   0.5826   0.9059     C
H       0.9131   0.9256   0.3951     H
C       0.9139   0.8699   0.9788     C
C       0.9235    0.583   0.1702     C
H       0.9333   0.2858   0.0394     H
C       0.9333   0.8553   0.6601     C
H       0.9358   0.0377   0.0972     H
C       0.9528   0.4705   0.1359     C
H        0.953   0.7759   0.6543     H
C       0.9577   0.3629   0.8322     C
C       0.9597   0.0832   0.3765     C
C       0.9695   0.0559   0.0275     C
H       0.9751   0.2913   0.8046     H
C       0.9813   0.7566   0.9295     C
H       0.9832   0.2302   0.1409     H
C       0.9887   0.9647   0.3688     C
