data_I
_chemical_name_common  '/Users/gianmarcoterrones/Research/MOFs/MOF_structures/water_stability_work_extra_structs/cleaned_from_CCDC/TAQYIV'
_cell_length_a  3.53040
_cell_length_b  8.34141
_cell_length_c 15.96579
_cell_angle_alpha 88.26321
_cell_angle_beta  83.65232
_cell_angle_gamma 77.78277
_space_group_name_H-M_alt      'P 1'


loop_
_space_group_symop_operation_xyz
  'x, y, z' 

loop_
_atom_site_label
_atom_site_fract_x
_atom_site_fract_y
_atom_site_fract_z
_atom_site_type_symbol
O      0.01338  0.81015  0.16309     O
V      0.09723  0.98194   0.8236     V
H       0.1263   0.6421   0.7285     H
H       0.1497    0.702   0.5874     H
O      0.16323  0.94998  0.72356     O
O      0.18023   0.7585  0.88104     O
O      0.19638  0.48416  0.12308     O
H       0.2436   0.7571   0.4613     H
C        0.263   0.5604   0.6896     C
H        0.272   0.8067   0.3177     H
C       0.2793   0.5974   0.6056     C
V      0.31179  0.28773  0.08869     V
O      0.36215  0.28977  0.98593     O
C       0.3643    0.671   0.4234     C
C       0.3882   0.7007   0.3371     C
H       0.3964   0.1933   0.6823     H
Mn     0.39679  0.34958  0.85684    Mn
O      0.40096  0.05777  0.14031     O
C        0.426   0.2993   0.6629     C
N       0.4341  0.41191  0.71989     N
H       0.4391    0.298   0.4126     H
C       0.4587    0.329   0.5766     C
H        0.462   0.2429   0.5387     H
C       0.4823   0.4026   0.3944     C
C       0.4862    0.482   0.5456     C
C        0.487   0.5604   0.6896     C
H       0.4969   0.3579   0.2715     H
H       0.5031   0.6421   0.7285     H
C        0.513   0.4396   0.3104     C
C       0.5138    0.518   0.4544     C
C       0.5177   0.5974   0.6056     C
H        0.538   0.7571   0.4613     H
H       0.5609    0.702   0.5874     H
N       0.5659  0.58809  0.28011     N
O      0.59904  0.94223  0.85969     O
Mn     0.60321  0.65042  0.14316    Mn
H       0.6036   0.8067   0.3177     H
O      0.63785  0.71023  0.01407     O
V      0.68821  0.71227  0.91131     V
C       0.7207   0.4026   0.3944     C
H        0.728   0.1933   0.6823     H
C        0.737   0.4396   0.3104     C
H       0.7564   0.2429   0.5387     H
O      0.80362  0.51584  0.87692     O
O      0.81977   0.2415  0.11896     O
O      0.83677  0.05002  0.27644     O
H       0.8503    0.298   0.4126     H
H       0.8737   0.3579   0.2715     H
V      0.90277  0.01806   0.1764     V
O      0.98662  0.18985  0.83691     O
