data_I
_chemical_name_common  '/Users/gianmarcoterrones/Research/MOFs/MOF_structures/water_stability_work_extra_structs/cleaned_from_CCDC/TAVQAJ'
_cell_length_a  8.84277
_cell_length_b  8.84277
_cell_length_c 26.99238
_cell_angle_alpha 88.66411
_cell_angle_beta  88.66411
_cell_angle_gamma 87.07839
_space_group_name_H-M_alt      'P 1'


loop_
_space_group_symop_operation_xyz
  'x, y, z' 

loop_
_atom_site_label
_atom_site_fract_x
_atom_site_fract_y
_atom_site_fract_z
_atom_site_type_symbol
H       0.0339   0.6937   0.9504     H
O       0.0656   0.8942    0.141     O
H       0.0694   0.6062   0.5905     H
H       0.0704   0.8324    0.321     H
C        0.072   0.7248   0.6754     C
O       0.0725   0.8771   0.4486     O
O       0.0762   0.2274   0.0114     O
H       0.0773   0.7943   0.7042     H
O       0.0791   0.2785   0.6798     O
O       0.0881   0.6169   0.8004     O
O         0.09   0.8952   0.8025     O
H       0.0905   0.6445   0.2582     H
O       0.0933   0.2869   0.3414     O
O       0.0977   0.2101   0.5775     O
O       0.1005   0.6003   0.4724     O
O       0.1019   0.6239   0.1301     O
O       0.1226   0.2112   0.2408     O
H       0.1317   0.7601   0.9026     H
C       0.1319   0.6831   0.9307     C
O       0.1329   0.2069   0.9085     O
H       0.1437   0.5793   0.9172     H
H         0.17   0.7032   0.3531     H
C       0.1757   0.7943   0.3299     C
C       0.1796   0.6206   0.5962     C
O       0.1934   0.3782   0.0745     O
N       0.1947   0.7123   0.6388     N
H       0.2004   0.8868   0.0038     H
C       0.2031   0.6291   0.2608     C
O       0.2069   0.1329   0.4085     O
O       0.2101   0.0977   0.0775     O
P       0.2107   0.2361  0.04448     P
O       0.2112   0.1226   0.7408     O
Al      0.2235   0.9961   0.4537    Al
P       0.2248   0.2578   0.7089     P
H       0.2258    0.672   0.5664     H
O       0.2264   0.3618   0.5165     O
P       0.2269   0.2657  0.37504     P
O       0.2274   0.0762   0.5114     O
H       0.2276   0.5324   0.2802     H
H       0.2289   0.8765   0.3464     H
Al      0.2314   0.9758  0.12938    Al
H       0.2337   0.5187   0.6022     H
O        0.234    0.362   0.1749     O
Al      0.2346   0.4802  0.12275    Al
P       0.2361   0.2107  0.54448     P
O       0.2379   0.3695    0.844     O
O       0.2397   0.4083   0.4037     O
Al      0.2438   0.4962  0.79445    Al
Al      0.2454   0.9976  0.78974    Al
O       0.2487   0.4007   0.7379     O
H       0.2517   0.6233    0.227     H
N       0.2556    0.708   0.9625     N
P       0.2578   0.2248   0.2089     P
N       0.2596   0.7512   0.2861     N
P       0.2657   0.2269  0.87504     P
H       0.2737   0.9291   0.9487     H
Al      0.2742    0.476   0.4645    Al
O       0.2785   0.0791   0.1798     O
C       0.2801   0.8567   0.9784     C
O       0.2869   0.0933   0.8414     O
H       0.2888    0.917   0.6415     H
C       0.3251   0.8087    0.638     C
O       0.3552    0.459   0.9554     O
O       0.3618   0.2264   0.0165     O
O        0.362    0.234   0.6749     O
C       0.3665   0.5873   0.9731     C
O       0.3695   0.2379    0.344     O
O        0.371    0.839   0.1166     O
O       0.3782   0.1934   0.5745     O
H       0.3807   0.7971   0.6054     H
H       0.3823   0.8585    0.993     H
O       0.3918    0.626   0.4715     O
H       0.3941   0.7779   0.6655     H
O       0.3945   0.8925   0.4449     O
C       0.3955   0.8253   0.2723     C
O       0.4001   0.8733   0.7758     O
O       0.4002   0.5986   0.7983     O
O       0.4004    0.562   0.1105     O
O       0.4007   0.2487   0.2379     O
O       0.4083   0.2397   0.9037     O
H       0.4258   0.9082   0.2944     H
H       0.4574    0.608   0.9929     H
O        0.459   0.3552   0.4554     O
Al       0.476   0.2742   0.9645    Al
Al      0.4802   0.2346  0.62275    Al
O       0.4837   0.7921   0.2371     O
P       0.4841   0.7035  0.11716     P
P       0.4938    0.754  0.45852     P
Al      0.4962   0.2438  0.29445    Al
P       0.4983   0.7339  0.78934     P
H       0.5187   0.2337   0.1022     H
H       0.5324   0.2276   0.7802     H
O        0.562   0.4004   0.6105     O
O       0.5747   0.6849   0.1658     O
O        0.576   0.7644   0.8363     O
H       0.5793   0.1437   0.4172     H
C       0.5873   0.3665   0.4731     C
O       0.5874   0.7928   0.5024     O
O       0.5907   0.7089   0.4118     O
O       0.5927   0.7209   0.0738     O
O       0.5986   0.4002   0.2983     O
O       0.6003   0.1005   0.9724     O
H       0.6062   0.0694   0.0905     H
H        0.608   0.4574   0.4929     H
O       0.6097   0.7081   0.7466     O
O       0.6169   0.0881   0.3004     O
C       0.6206   0.1796   0.0962     C
H       0.6233   0.2517    0.727     H
O       0.6239   0.1019   0.6301     O
O        0.626   0.3918   0.9715     O
C       0.6291   0.2031   0.7608     C
H       0.6445   0.0905   0.7582     H
O       0.6532   0.9572   0.1699     O
H        0.672   0.2258   0.0664     H
C       0.6831   0.1319   0.4307     C
O       0.6849   0.5747   0.6658     O
Al        0.69     0.78   0.2102    Al
O       0.6921   0.9041   0.9163     O
H       0.6937   0.0339   0.4504     H
H       0.7032     0.17   0.8531     H
P       0.7035   0.4841  0.61716     P
N        0.708   0.2556   0.4625     N
O       0.7081   0.6097   0.2466     O
O       0.7089   0.5907   0.9118     O
N       0.7123   0.1947   0.1388     N
Al      0.7177   0.7537   0.8773    Al
O       0.7202    0.868   0.6753     O
O       0.7209   0.5927   0.5738     O
C       0.7248    0.072   0.1754     C
P       0.7339   0.4983  0.28934     P
P       0.7339   0.9939  0.95985     P
Al       0.736     0.76   0.5421    Al
P       0.7494   0.9818  0.63212     P
N       0.7512   0.2596   0.7861     N
Al      0.7537   0.7177   0.3773    Al
P        0.754   0.4938  0.95852     P
O       0.7563   0.9091   0.5814     O
Al        0.76    0.736   0.0421    Al
H       0.7601   0.1317   0.4026     H
O       0.7605   0.8921   0.0063     O
O       0.7644    0.576   0.3363     O
P       0.7646   0.9892  0.30016     P
O       0.7667   0.8873   0.3465     O
H       0.7779   0.3941   0.1655     H
Al        0.78     0.69   0.7102    Al
O        0.783   0.8926    0.254     O
O       0.7921   0.4837   0.7371     O
O       0.7928   0.5874   0.0024     O
H       0.7943   0.0773   0.2042     H
C       0.7943   0.1757   0.8299     C
H       0.7971   0.3807   0.1054     H
C       0.8087   0.3251    0.138     C
C       0.8253   0.3955   0.7723     C
H       0.8324   0.0704    0.821     H
O        0.839    0.371   0.6166     O
C       0.8567   0.2801   0.4784     C
H       0.8585   0.3823    0.493     H
O        0.868   0.7202   0.1753     O
O       0.8733   0.4001   0.2758     O
H       0.8765   0.2289   0.8464     H
O       0.8771   0.0725   0.9486     O
H       0.8868   0.2004   0.5038     H
O       0.8873   0.7667   0.8465     O
O       0.8921   0.7605   0.5063     O
O       0.8925   0.3945   0.9449     O
O       0.8926    0.783    0.754     O
O       0.8942   0.0656    0.641     O
O       0.8952     0.09   0.3025     O
O       0.9041   0.6921   0.4163     O
H       0.9082   0.4258   0.7944     H
O       0.9091   0.7563   0.0814     O
H        0.917   0.2888   0.1415     H
H       0.9291   0.2737   0.4487     H
O       0.9572   0.6532   0.6699     O
Al      0.9758   0.2314  0.62938    Al
P       0.9818   0.7494  0.13212     P
P       0.9892   0.7646  0.80016     P
P       0.9939   0.7339  0.45985     P
Al      0.9961   0.2235   0.9537    Al
Al      0.9976   0.2454  0.28974    Al
