data_I
_chemical_name_common  '/Users/gianmarcoterrones/Research/MOFs/MOF_structures/water_stability_work_extra_structs/cleaned_from_CCDC/TIFBEP'
_cell_length_a  7.89270
_cell_length_b 18.16632
_cell_length_c 26.85545
_cell_angle_alpha 85.57800
_cell_angle_beta  81.54991
_cell_angle_gamma 77.45335
_space_group_name_H-M_alt      'P 1'


loop_
_space_group_symop_operation_xyz
  'x, y, z' 

loop_
_atom_site_label
_atom_site_fract_x
_atom_site_fract_y
_atom_site_fract_z
_atom_site_type_symbol
F       0.0035   0.6426   0.5696     F
F       0.0082   0.4542   0.8168     F
Ag     0.01109  0.13887  0.31627    Ag
O       0.0129   0.5684    0.706     O
Ag     0.01455  0.27012   0.1599    Ag
C       0.0171   0.7781   0.7563     C
O       0.0201     0.03   0.3662     O
C       0.0275   0.1609   0.2225     C
F       0.0282   0.2594   0.9722     F
F       0.0355     0.67    0.379     F
F       0.0434   0.2971   0.9821     F
F       0.0441   0.1416   0.6142     F
C       0.0445   0.7454    0.609     C
F       0.0469   0.4703   0.8699     F
O        0.057   0.3981   0.1607     O
C       0.0606    0.966   0.3476     C
Ag     0.06475  0.03782  0.23758    Ag
F       0.0651   0.7339   0.5219     F
F       0.0693    0.456   0.7914     F
F       0.0703   0.6355   0.4179     F
F       0.0725   0.9131   0.4339     F
C       0.0744   0.9009   0.3855     C
N       0.0754   0.2993   0.7739     N
F       0.0819   0.1106   0.5936     F
O       0.0839    0.952   0.3034     O
F       0.0845     0.83    0.121     F
O       0.0892   0.2643   0.3653     O
C       0.0937   0.6971   0.5657     C
O       0.0948   0.2787   0.0765     O
C       0.0948   0.5701   0.8277     C
F       0.1035   0.4303   0.6633     F
Ag     0.10461   0.1139  0.14602    Ag
Ag     0.10811  0.31294  0.27048    Ag
C       0.1091   0.2825   0.8133     C
F       0.1237   0.8645   0.0821     F
C       0.1359   0.4868   0.8256     C
C        0.136   0.2248   0.0512     C
F       0.1428    0.475   0.6254     F
O       0.1439   0.7855   0.6133     O
F       0.1451   0.4205   0.6953     F
F       0.1466   0.9166   0.4242     F
N       0.1486   0.2007   0.7261     N
O        0.149     0.93   0.1904     O
F       0.1494   0.6948   0.3504     F
O       0.1506   0.1568   0.0642     O
Ag     0.15236  0.83161  0.25467    Ag
O       0.1558   0.9949   0.1169     O
F       0.1638   0.8332   0.3712     F
C       0.1691   0.5506   0.6856     C
C       0.1692   0.9367   0.1457     C
C       0.1708   0.2413   0.9955     C
F       0.1723   0.1859   0.9655     F
F       0.1793    0.459   0.8704     F
F       0.1946   0.8052   0.1496     F
F       0.1971   0.0697   0.8367     F
F       0.2001   0.6416   0.1142     F
C       0.2016   0.6351   0.3805     C
C       0.2049   0.2175   0.6867     C
C       0.2056   0.0844   0.4584     C
F       0.2139   0.6106   0.0936     F
F       0.2157   0.8574   0.9304     F
O       0.2167   0.6003   0.8129     O
C       0.2172   0.8649   0.1195     C
C       0.2196   0.4718    0.667     C
F       0.2229   0.6312    0.429     F
F       0.2262   0.8526    0.373     F
N       0.2364   0.4684   0.0194     N
Ag     0.23864  0.66839  0.24533    Ag
C       0.2392   0.5203   0.9933     C
F       0.2432    0.025   0.8746     F
C       0.2472   0.0203   0.4933     C
F       0.2477   0.3003   0.9843     F
C       0.2516   0.5633   0.3543     C
C       0.2516   0.5844   0.9584     C
Ag     0.25207   0.6891  0.72708    Ag
Ag     0.25453  0.38274  0.07884    Ag
F       0.2598   0.2406   0.5278     F
F         0.26   0.6605   0.5605     F
F       0.2609   0.0795   0.8047     F
C        0.265   0.2589   0.8391     C
O       0.2676   0.5051   0.3831     O
F        0.269   0.4592   0.7908     F
O       0.2694     0.57   0.3096     O
N       0.2758   0.9684   0.5194     N
F       0.2764   0.1847   0.9705     F
F       0.2792   0.0458   0.6832     F
O       0.2812   0.7643   0.8653     O
F       0.2831   0.8688    0.071     F
Ag     0.28389  0.88274  0.57884    Ag
O       0.2841   0.5879   0.6803     O
O       0.2873   0.9316    0.794     O
F       0.2966   0.4446   0.8262     F
F       0.2969   0.6836   0.3586     F
Ag     0.30847  0.81294  0.77048    Ag
F       0.3141   0.4761   0.6217     F
F        0.316   0.2663   0.9777     F
F       0.3167    0.044   0.7086     F
F       0.3209   0.7661   0.9781     F
F       0.3226   0.2029   0.5179     F
F       0.3237   0.3141   0.5345     F
Ag     0.33175   0.1891  0.22708    Ag
F       0.3323   0.6502   0.4012     F
F       0.3391   0.8164   0.1414     F
O       0.3393    0.548   0.1966     O
F       0.3399   0.4263   0.6919     F
Ag     0.34015  0.46218  0.26242    Ag
C       0.3565   0.8029   0.9343     C
C       0.3584   0.0282    0.833     C
C       0.3608   0.5991   0.1145     C
C        0.363   0.2411   0.6609     C
Ag     0.36453   0.3861  0.35398    Ag
F       0.3682   0.6668   0.1288     F
O       0.3701   0.1003   0.3129     O
O       0.3716   0.3432   0.4358     O
C       0.3742    0.534   0.1524     C
F       0.3837   0.8498   0.0988     F
O       0.3842   0.8981   0.6607     O
F       0.3856   0.4388   0.6542     F
F       0.3871   0.0297   0.6301     F
C       0.3989   0.7546    0.891     C
C       0.4053   0.9494   0.8144     C
C        0.407    0.281    0.803     C
C       0.4076   0.2587   0.5045     C
C       0.4109   0.3391   0.2775     C
F       0.4119   0.0239   0.8783     F
C        0.412   0.2752   0.4488     C
O       0.4163     0.47   0.1338     O
F       0.4195   0.5869   0.0661     F
F       0.4316   0.3153   0.5295     F
F       0.4326   0.9446   0.3262     F
N        0.436    0.289    0.761     N
F         0.44   0.7663   0.4777     F
Ag     0.44457  0.22988   0.3401    Ag
O       0.4477   0.0879   0.1803     O
C       0.4483   0.0132   0.6744     C
C       0.4485   0.2781   0.2563     C
O         0.45   0.2213   0.4235     O
F       0.4518   0.6474    0.127     F
O       0.4573   0.2855   0.1133     O
F       0.4581   0.0737   0.8081     F
Ag     0.46623  0.36113  0.18373    Ag
F       0.4677   0.8003   0.4843     F
F       0.4786   0.0612   0.8458     F
F        0.481   0.8395   0.9395     F
F        0.481   0.9592   0.2908     F
N        0.486    0.211    0.739     N
F       0.4874   0.5834   0.0758     F
C        0.491    0.219    0.697     C
F       0.4913    0.959   0.3704     F
C       0.4926   0.9299   0.6723     C
C       0.5074   0.0701   0.3277     C
F       0.5087    0.041   0.6296     F
C        0.509    0.781    0.303     C
F       0.5126   0.4166   0.9242     F
N        0.514    0.789    0.261     N
F        0.519   0.0408   0.7092     F
F        0.519   0.1605   0.0605     F
F       0.5214   0.9388   0.1542     F
F       0.5323   0.1997   0.5157     F
Ag     0.53377  0.63887  0.81627    Ag
F       0.5419   0.9263   0.1919     F
O       0.5427   0.7145   0.8867     O
F       0.5482   0.3526    0.873     F
O         0.55   0.7787   0.5765     O
C       0.5515   0.7219   0.7437     C
C       0.5517   0.9868   0.3256     C
O       0.5523   0.9121   0.8197     O
Ag     0.55543  0.77012   0.6599    Ag
F         0.56   0.2337   0.5223     F
N        0.564    0.711    0.239     N
F       0.5674   0.0554   0.6738     F
F       0.5684   0.6847   0.4705     F
F       0.5805   0.4131   0.9339     F
O       0.5837     0.53   0.8662     O
C        0.588   0.7248   0.5512     C
F       0.5881   0.9761   0.1217     F
C       0.5891   0.6609   0.7225     C
C       0.5924   0.7413   0.4955     C
C        0.593    0.719    0.197     C
C       0.5947   0.0506   0.1856     C
C       0.6011   0.2454    0.109     C
F       0.6129   0.9703   0.3699     F
F       0.6144   0.5612   0.3458     F
O       0.6158   0.1019   0.3393     O
F       0.6163   0.1502   0.9012     F
C       0.6258    0.466   0.8476     C
O       0.6284   0.6568   0.5642     O
O       0.6299   0.8997   0.6871     O
F       0.6318   0.3332   0.8712     F
Ag     0.63547   0.6139  0.64602    Ag
C        0.637   0.7589   0.3391     C
C       0.6392   0.4009   0.8855     C
C       0.6416   0.9718    0.167     C
C       0.6435   0.1971   0.0657     C
Ag     0.65985  0.53782  0.73758    Ag
F       0.6601   0.5737   0.3081     F
O       0.6607    0.452   0.8034     O
F       0.6609   0.1836   0.8586     F
F       0.6677   0.3498   0.5988     F
Ag     0.66825   0.8109  0.77292    Ag
F       0.6763   0.6859   0.4655     F
F       0.6774   0.7971   0.4821     F
F       0.6791   0.2339   0.0219     F
F       0.6833    0.956   0.2914     F
F        0.684   0.7337   0.0223     F
F       0.6859   0.5239   0.3783     F
Ag     0.69153  0.18706  0.22952    Ag
F       0.7031   0.3164   0.6414     F
F       0.7034   0.5554   0.1738     F
O       0.7127   0.0684    0.206     O
O       0.7159   0.4121   0.3197     O
Ag     0.71611  0.11726  0.42116    Ag
F       0.7169   0.1312    0.929     F
O       0.7188   0.2357   0.1347     O
F       0.7208   0.9542   0.3168     F
F       0.7236   0.8153   0.0295     F
N       0.7242   0.0316   0.4806     N
O       0.7306     0.43   0.6904     O
F        0.731   0.5408   0.2092     F
O       0.7324   0.4949   0.6169     O
C        0.735   0.7411   0.1609     C
F       0.7391   0.9205   0.1953     F
F         0.74   0.3395   0.4395     F
F       0.7402   0.7594   0.4722     F
Ag     0.74547  0.61726  0.92116    Ag
Ag     0.74793   0.3109  0.27292    Ag
C       0.7484   0.4156   0.0416     C
C       0.7484   0.4367   0.6457     C
F       0.7523   0.6997   0.0157     F
C       0.7528   0.9797   0.5067     C
F       0.7568    0.975   0.1254     F
C       0.7608   0.4797   0.0067     C
Ag     0.76136  0.33161  0.75467    Ag
N       0.7636   0.5316   0.9806     N
F       0.7738   0.1474    0.627     F
F       0.7771   0.3688    0.571     F
C       0.7804   0.5282    0.333     C
C       0.7828   0.1351   0.8805     C
O       0.7833   0.3997   0.1871     O
F       0.7843   0.1426   0.0696     F
F       0.7861   0.3894   0.9064     F
C       0.7944   0.9156   0.5416     C
C       0.7951   0.7825   0.3133     C
C       0.7984   0.3649   0.6195     C
F       0.7999   0.3584   0.8858     F
F       0.8029   0.9303   0.1633     F
F       0.8054   0.1948   0.8504     F
F       0.8207    0.541   0.1296     F
F       0.8277   0.8141   0.0345     F
C       0.8292   0.7587   0.0045     C
C       0.8308   0.0633   0.8543     C
C       0.8309   0.4494   0.3144     C
F       0.8362   0.1668   0.6288     F
O       0.8442   0.0051   0.8831     O
Ag     0.84764  0.16839  0.74533    Ag
O       0.8494   0.8432   0.9358     O
F       0.8506   0.3052   0.6496     F
O        0.851     0.07   0.8096     O
N       0.8514   0.7993   0.2739     N
F       0.8534   0.0834   0.5758     F
F       0.8549   0.5795   0.3047     F
O       0.8561   0.2145   0.3867     O
F       0.8572    0.525   0.3746     F
C        0.864   0.7752   0.9488     C
C       0.8641   0.5132   0.1744     C
F       0.8763   0.1355   0.9179     F
C       0.8909   0.7175   0.1867     C
Ag     0.89189  0.68706  0.72952    Ag
Ag     0.89539   0.8861  0.85398    Ag
F       0.8965   0.5697   0.3367     F
C       0.9052   0.4299   0.1723     C
O       0.9052   0.7213   0.9235     O
C       0.9063   0.3029   0.4343     C
O       0.9108   0.7357   0.6347     O
F       0.9155     0.17    0.879     F
O       0.9161    0.048   0.6966     O
F       0.9181   0.8894   0.4064     F
N       0.9246   0.7007   0.2261     N
C       0.9256   0.0991   0.6145     C
F       0.9275   0.0869   0.5661     F
F       0.9297   0.3645   0.5821     F
F       0.9307    0.544   0.2086     F
F       0.9349   0.2661   0.4781     F
Ag     0.93525  0.96218  0.76242    Ag
C       0.9394    0.034   0.6524     C
O        0.943   0.6019   0.8393     O
F       0.9531   0.5297   0.1301     F
C       0.9555   0.2546    0.391     C
F       0.9559   0.8584   0.3858     F
F       0.9566   0.7029   0.0179     F
F       0.9645     0.33    0.621     F
F       0.9718   0.7406   0.0278     F
C       0.9725   0.8391   0.7775     C
O       0.9799     0.97   0.6338     O
C       0.9829   0.2219   0.2437     C
Ag     0.98545  0.72988   0.8401    Ag
O       0.9871   0.4316    0.294     O
Ag     0.98891  0.86113  0.68373    Ag
F       0.9918   0.5458   0.1832     F
F       0.9965   0.3574   0.4304     F
