data_I
_chemical_name_common  '/Users/gianmarcoterrones/Research/MOFs/MOF_structures/water_stability_work_extra_structs/cleaned_from_CCDC/TIFCEQ'
_cell_length_a 15.60000
_cell_length_b 16.94940
_cell_length_c 17.14260
_cell_angle_alpha 111.71600
_cell_angle_beta  94.23800
_cell_angle_gamma 104.71900
_space_group_name_H-M_alt      'P 1'


loop_
_space_group_symop_operation_xyz
  'x, y, z' 

loop_
_atom_site_label
_atom_site_fract_x
_atom_site_fract_y
_atom_site_fract_z
_atom_site_type_symbol
F       0.0092   0.2798   0.6218     F
F       0.0148   0.9818   0.1332     F
C       0.0213   0.3391   0.4837     C
F       0.0276   0.1434   0.2351     F
F       0.0298    0.817   0.5494     F
C       0.0413   0.2556    0.484     C
F       0.0423   0.6797   0.7796     F
O       0.0549   0.6535   0.5022     O
F       0.0641     0.54   0.6529     F
C       0.0729   0.2682    0.576     C
F       0.0834    0.326   0.8614     F
O       0.0834   0.3954   0.4692     O
F       0.0861   0.0664   0.2882     F
F       0.0901   0.5746    0.322     F
C       0.0911   0.0468   0.1516     C
F       0.0914   0.9851   0.5004     F
Ag     0.09172  0.53324  0.48677    Ag
F       0.0918   0.0878   0.0992     F
F       0.0959   0.1986   0.5774     F
C       0.0991   0.1156   0.2423     C
F       0.1001   0.4718   0.1959     F
F       0.1114   0.2432   0.4461     F
F       0.1185   0.7204   0.6963     F
F        0.119   0.6127   0.1972     F
C       0.1196   0.6841   0.7525     C
F       0.1354    0.564   0.7757     F
C       0.1358   0.5933   0.7136     C
Ag      0.1393   0.3009   0.1564    Ag
Ag       0.143   0.2562    0.126    Ag
F       0.1437   0.3406   0.6144     F
C       0.1542   0.5528   0.2094     C
C       0.1556   0.3955   0.9033     C
F       0.1623   0.0181   0.1489     F
C       0.1663   0.9776   0.4717     C
F       0.1683   0.8955   0.4309     F
F       0.1744   0.4323   0.9875     F
C       0.1752   0.5901   0.3073     C
F       0.1781   0.0589    0.808     F
F       0.1835   0.7406   0.8188     F
F       0.1856   0.4487   0.8651     F
C       0.1886   0.1884   0.2697     C
F       0.1897   0.0042   0.9285     F
F       0.1903   0.2884   0.9167     F
F       0.1917   0.0273   0.4292     F
O       0.1919   0.2585   0.2586     O
F       0.2028   0.9712    0.596     F
F       0.2045   0.2975   0.8073     F
F       0.2162   0.9234   0.8006     F
C       0.2172   0.5305   0.3366     C
O       0.2173   0.5968   0.6044     O
C       0.2214   0.5994   0.6768     C
F       0.2272    0.672   0.3185     F
C       0.2292   0.3499   0.8897     C
O        0.233   0.5662   0.4158     O
F       0.2355   0.0995   0.5952     F
C       0.2383   0.0176   0.5524     C
F       0.2384   0.5619    0.195     F
O       0.2421   0.4616   0.2956     O
C       0.2476   0.9873   0.8777     C
O       0.2496   0.1764   0.3066     O
C       0.2543   0.0647   0.8512     C
O       0.2623   0.4152   0.4729     O
F        0.266   0.9461   0.2439     F
F       0.2817     0.14   0.9195     F
O       0.2884   0.6077   0.7275     O
O        0.291   0.3561   0.1331     O
F       0.3074   0.6351   0.9255     F
F       0.3094   0.8307   0.2101     F
O        0.311   0.1839   0.1199     O
C       0.3148   0.4223   0.9443     C
F       0.3167   0.0666   0.8043     F
F       0.3174   0.7685   0.9573     F
F       0.3216   0.7231    0.056     F
Ag     0.32267  0.38624  0.34532    Ag
C       0.3258   0.0055   0.5245     C
C        0.336   0.9182   0.2509     C
Ag      0.3384  0.57757  0.52719    Ag
C       0.3392   0.9961   0.9216     C
O       0.3487   0.9428   0.5315     O
O       0.3489   0.4212   0.0115     O
C       0.3489   0.7157   0.9835     C
F       0.3526   0.9297   0.3316     F
O       0.3546   0.8061   0.7079     O
O       0.3596   0.4568   0.9011     O
O         0.36   0.0459      0.0     O
O       0.3645   0.3788    0.578     O
O       0.3773   0.0675   0.5082     O
O       0.3781   0.9437   0.8757     O
F        0.385   0.9324    0.146     F
Ag      0.3895  0.23531  0.26214    Ag
F       0.3999   0.2481   0.6684     F
O       0.4011   0.7592   0.4789     O
F       0.4084   0.3118   0.7977     F
F       0.4155   0.7389   0.2984     F
C       0.4182   0.9702   0.2284     C
F       0.4202   0.6543    0.169     F
Ag     0.42154  0.69932   0.7123    Ag
O       0.4279   0.1042   0.2201     O
C       0.4366   0.0701   0.2705     C
F       0.4367   0.1907   0.7481     F
O       0.4381   0.6198   0.3519     O
C       0.4498   0.2671   0.7414     C
C       0.4501   0.6061   0.2793     C
C       0.4514     0.74   0.9901     C
C       0.4527   0.6808   0.2505     C
O       0.4567   0.5372   0.2241     O
O       0.4579   0.1054   0.3501     O
C       0.4668   0.3841   0.3647     C
Ag     0.46723  0.41869  0.25507    Ag
O       0.4715   0.7624    0.863     O
C       0.4757   0.7131   0.9023     C
F       0.4777   0.6969   0.0328     F
F       0.4806   0.9459   0.2605     F
C       0.4809   0.6135   0.5819     C
Ag     0.48384  0.92227   0.5183    Ag
F       0.4844   0.8269   0.0349     F
Ag     0.48614  0.54765  0.43765    Ag
Ag     0.49093  0.06765   0.0797    Ag
Ag     0.49272  0.47759  0.07219    Ag
Ag     0.49453  0.25369  0.42046    Ag
O       0.4987   0.6451   0.8766     O
O       0.5013   0.3549   0.1234     O
Ag     0.50547  0.74631  0.57954    Ag
Ag     0.50728  0.52241  0.92781    Ag
Ag     0.50907  0.93235   0.9203    Ag
Ag     0.51386  0.45235  0.56235    Ag
F       0.5156   0.1731   0.9651     F
Ag     0.51616  0.07773   0.4817    Ag
C       0.5191   0.3865   0.4181     C
F       0.5194   0.0541   0.7395     F
F       0.5223   0.3031   0.9672     F
C       0.5243   0.2869   0.0977     C
O       0.5285   0.2376    0.137     O
Ag     0.53277  0.58131  0.74493    Ag
C       0.5332   0.6159   0.6353     C
O       0.5421   0.8946   0.6499     O
O       0.5433   0.4628   0.7759     O
C       0.5473   0.3192   0.7495     C
C       0.5486     0.26   0.0099     C
C       0.5499   0.3939   0.7207     C
C       0.5502   0.7329   0.2586     C
O       0.5619   0.3802   0.6481     O
F       0.5633   0.8093   0.2519     F
C       0.5634   0.9299   0.7295     C
O       0.5721   0.8958   0.7799     O
Ag     0.57846  0.30068   0.2877    Ag
F       0.5798   0.3457    0.831     F
C       0.5818   0.0298   0.7716     C
F       0.5845   0.2611   0.7016     F
F       0.5916   0.6882   0.2023     F
O       0.5989   0.2408   0.5211     O
F       0.6001   0.7519   0.3316     F
Ag      0.6105  0.76469  0.73786    Ag
F        0.615   0.0676    0.854     F
O       0.6219   0.0563   0.1243     O
O       0.6227   0.9325   0.4918     O
O       0.6355   0.6212    0.422     O
O         0.64   0.9541      0.0     O
O       0.6404   0.5432   0.0989     O
O       0.6454   0.1939   0.2921     O
F       0.6474   0.0703   0.6684     F
C       0.6511   0.2843   0.0165     C
O       0.6511   0.5788   0.9885     O
O       0.6513   0.0572   0.4685     O
C       0.6608   0.0039   0.0784     C
Ag      0.6616  0.42243  0.47281    Ag
C        0.664   0.0818   0.7491     C
C       0.6742   0.9945   0.4755     C
Ag     0.67733  0.61376  0.65468    Ag
F       0.6784   0.2769    0.944     F
F       0.6826   0.2315   0.0427     F
F       0.6833   0.9334   0.1957     F
C       0.6852   0.5777   0.0557     C
O        0.689   0.8161   0.8801     O
F       0.6906   0.1693   0.7899     F
F       0.6926   0.3649   0.0745     F
O        0.709   0.6439   0.8669     O
O       0.7116   0.3923   0.2725     O
F       0.7183     0.86   0.0805     F
F        0.734   0.0539   0.7561     F
O       0.7377   0.5848   0.5271     O
C       0.7457   0.9353   0.1488     C
O       0.7504   0.8236   0.6934     O
C       0.7524   0.0127   0.1223     C
O       0.7579   0.5384   0.7044     O
F       0.7616   0.4381    0.805     F
C       0.7617   0.9824   0.4476     C
F       0.7645   0.9005   0.4048     F
O        0.767   0.4338   0.5842     O
C       0.7708   0.6501   0.1103     C
F       0.7728    0.328   0.6815     F
C       0.7786   0.4006   0.3232     C
O       0.7827   0.4032   0.3956     O
C       0.7828   0.4695   0.6634     C
F       0.7838   0.0766   0.1994     F
F       0.7955   0.7025   0.1927     F
F       0.7972   0.0288    0.404     F
O       0.8081   0.7415   0.7414     O
F       0.8083   0.9727   0.5708     F
F       0.8097   0.7116   0.0833     F
F       0.8103   0.9958   0.0715     F
C       0.8114   0.8116   0.7303     C
F       0.8144   0.5513   0.1349     F
F       0.8165   0.2594   0.1812     F
F       0.8219   0.9411    0.192     F
C       0.8248   0.4099   0.6927     C
F       0.8256   0.5677   0.0125     F
F       0.8317   0.1045   0.5691     F
C       0.8337   0.0224   0.5283     C
F       0.8377   0.9819   0.8511     F
C       0.8444   0.6045   0.0967     C
C       0.8458   0.4472   0.7906     C
F       0.8563   0.6594   0.3856     F
Ag       0.857   0.7438    0.874    Ag
Ag      0.8607   0.6991   0.8436    Ag
C       0.8642   0.4067   0.2864     C
F       0.8646    0.436   0.2243     F
C       0.8804   0.3159   0.2475     C
F        0.881   0.3873   0.8028     F
F       0.8815   0.2796   0.3037     F
F       0.8886   0.7568   0.5539     F
F       0.8999   0.5282   0.8041     F
C       0.9009   0.8844   0.7577     C
F       0.9041   0.8014   0.4226     F
F       0.9082   0.9122   0.9008     F
Ag     0.90828  0.46676  0.51323    Ag
F       0.9086   0.0149   0.4996     F
C       0.9089   0.9532   0.8484     C
F       0.9099   0.4254    0.678     F
F       0.9139   0.9336   0.7118     F
O       0.9166   0.6046   0.5308     O
F       0.9166    0.674   0.1386     F
C       0.9271   0.7318    0.424     C
F       0.9359     0.46   0.3471     F
O       0.9451   0.3465   0.4978     O
F       0.9577   0.3203   0.2204     F
C       0.9587   0.7444    0.516     C
F       0.9702    0.183   0.4506     F
F       0.9724   0.8566   0.7649     F
C       0.9787   0.6609   0.5163     C
F       0.9852   0.0182   0.8668     F
F       0.9908   0.7202   0.3782     F
