data_I
_chemical_name_common  '/Users/gianmarcoterrones/Research/MOFs/MOF_structures/water_stability_work_extra_structs/cleaned_from_CCDC/TIFCIU'
_cell_length_a 16.08300
_cell_length_b 19.97070
_cell_length_c 21.99400
_cell_angle_alpha 90.00000
_cell_angle_beta  94.93500
_cell_angle_gamma 90.00000
_space_group_name_H-M_alt      'P 1'


loop_
_space_group_symop_operation_xyz
  'x, y, z' 

loop_
_atom_site_label
_atom_site_fract_x
_atom_site_fract_y
_atom_site_fract_z
_atom_site_type_symbol
Ag     0.00891  0.02147  0.86542    Ag
F       0.0093   0.5248   0.2335     F
O       0.0115   0.6795   0.0927     O
O       0.0147   0.7673   0.3213     O
O       0.0156   0.7124   0.9578     O
C       0.0159   0.3185   0.8563     C
N       0.0162     0.39   0.3357     N
F       0.0167   0.3758   0.1318     F
Ag     0.01704  0.83919  0.15624    Ag
C       0.0186   0.1259   0.9459     C
F       0.0233     0.08   0.6389     F
O       0.0257   0.2693   0.8239     O
C       0.0296   0.5838   0.2125     C
C       0.0299   0.9181   0.0476     C
F       0.0321   0.6912   0.8053     F
F       0.0378   0.6251   0.2593     F
C       0.0392    0.386    0.831     C
C       0.0429   0.6685   0.8621     C
F       0.0441     0.64   0.4456     F
O       0.0458   0.0856   0.1224     O
C       0.0468   0.7243   0.9094     C
C       0.0507    0.624   0.6688     C
F       0.0547   0.4319   0.8731     F
F       0.0593   0.1998   0.5145     F
F       0.0628   0.9757   0.6554     F
O       0.0644   0.0203   0.7761     O
F        0.065    0.085    0.243     F
Ag     0.06671  0.37019  0.99946    Ag
Ag     0.06942  0.77512     0.05    Ag
Ag     0.07233  0.87033  0.95209    Ag
F       0.0787   0.5295   0.4621     F
O       0.0802   0.7778   0.8945     O
Ag     0.08453  0.01646  0.01828    Ag
C       0.0859   0.0374   0.6436     C
F       0.0882   0.2843   0.4434     F
C       0.0915   0.0724   0.7551     C
O       0.0925   0.1288    0.778     O
Ag     0.09498  0.18657   0.0191    Ag
C       0.0982   0.1258    0.147     C
F       0.0989   0.5799   0.1855     F
C       0.1012   0.5939   0.4631     C
F       0.1044   0.8841   0.5384     F
F       0.1067   0.3823   0.8011     F
F       0.1072    0.484   0.6226     F
F       0.1072   0.7749    0.551     F
C       0.1073   0.1321   0.2165     C
N       0.1094   0.4701   0.0238     N
F       0.1097   0.1868   0.2517     F
F       0.1116   0.3774   0.6375     F
Ag     0.11306  0.24228  0.73489    Ag
O       0.1146    0.848   0.2352     O
F        0.115   0.5791   0.8246     F
C       0.1154    0.839   0.7541     C
F       0.1178    0.573   0.3692     F
C       0.1203   0.6247   0.8681     C
F        0.124   0.5983   0.9226     F
O       0.1243   0.1773   0.1214     O
F       0.1323   0.0371   0.5969     F
C       0.1344   0.2207   0.5023     C
C       0.1384   0.6398   0.6744     C
F       0.1391   0.6099   0.5168     F
O         0.14   0.9644   0.9149     O
C       0.1404   0.0607      0.7     C
C        0.144   0.8278   0.5295     C
Ag     0.14574  0.12564  0.90946    Ag
Ag     0.14677  0.40897  0.35245    Ag
C       0.1476   0.2409   0.4367     C
C       0.1479    0.513   0.0403     C
F       0.1489   0.2649   0.5464     F
F       0.1523    0.178   0.4195     F
Ag     0.15613  0.90097  0.08736    Ag
C       0.1565   0.4332   0.6402     C
F       0.1604   0.8219   0.4728     F
O       0.1652   0.2758   0.9808     O
C       0.1672   0.5948   0.4171     C
F       0.1679   0.1176    0.679     F
F        0.176    0.661   0.4233     F
F       0.1786   0.9158     0.34     F
F        0.181   0.4249   0.5404     F
F       0.1818   0.3234   0.2185     F
F       0.1818   0.6657   0.8604     F
F       0.1837   0.1736   0.5284     F
C       0.1886   0.8714   0.2343     C
F       0.1899   0.0495   0.2066     F
C       0.1941   0.1061   0.2385     C
F       0.1958   0.1048   0.2993     F
F       0.1973   0.0126   0.7044     F
F       0.1973   0.4434   0.6946     F
C       0.1981   0.5726   0.0597     C
C       0.1993   0.8064    0.758     C
F       0.1994   0.3708   0.1215     F
O       0.2017   0.7393   0.0449     O
F       0.2074   0.4388   0.2063     F
O       0.2085   0.0673   0.0322     O
C       0.2098   0.9814   0.8994     C
F       0.2119   0.8351   0.6225     F
F       0.2157   0.7982   0.3318     F
O       0.2158   0.8917   0.1886     O
C       0.2163   0.2686   0.9432     C
C       0.2237   0.4267   0.5955     C
O       0.2273   0.2194   0.9116     O
C       0.2289    0.829   0.5656     C
O       0.2299   0.0397   0.8857     O
O       0.2324   0.3327   0.4276     O
C       0.2324    0.541   0.4361     C
C       0.2335   0.2734   0.4445     C
O       0.2347   0.4849   0.4129     O
N        0.238   0.2795   0.7403     N
C        0.239    0.839   0.2884     C
F       0.2399   0.1548   0.2176     F
F       0.2399   0.8679   0.8915     F
F       0.2409   0.3864   0.9519     F
C       0.2439   0.3986   0.1689     C
C       0.2561   0.8986   0.3311     C
F       0.2591   0.8864   0.5481     F
F       0.2601   0.3679   0.6085     F
F       0.2601   0.6548   0.2824     F
C        0.261    0.339   0.2116     C
N        0.262   0.7795   0.7597     N
O       0.2653   0.9849   0.0871     O
C       0.2665   0.7734   0.0555     C
C       0.2676    0.041   0.0639     C
O       0.2676   0.8327   0.0724     O
O       0.2701   0.5397   0.6143     O
C       0.2711    0.329   0.9344     C
O       0.2727   0.7194   0.5884     O
C       0.2763   0.9267   0.9045     C
C       0.2837   0.7686   0.5568     C
O       0.2842   0.3917   0.3114     O
F       0.2843   0.2982   0.1682     F
F       0.2881   0.3351   0.8775     F
C       0.2902   0.4814   0.6006     C
O       0.2915   0.5673   0.4678     O
F       0.2926   0.9388   0.2937     F
O       0.2983   0.2393   0.4551     O
F       0.3006   0.8708   0.3785     F
C       0.3007   0.3064    0.742     C
C       0.3019   0.0726   0.4403     C
F       0.3027   0.5126   0.7956     F
F       0.3027   0.9434   0.8054     F
F       0.3042   0.6048   0.2007     F
C       0.3059   0.6061   0.2615     C
F       0.3101   0.5495   0.2934     F
C       0.3114   0.3714   0.2657     C
F       0.3163   0.6736   0.9716     F
F       0.3182   0.1657   0.6396     F
F       0.3182   0.8234   0.2815     F
F        0.319   0.9249   0.9596     F
F       0.3214   0.4158     0.16     F
F        0.324    0.161   0.0767     F
F       0.3321   0.6176    0.821     F
C       0.3328   0.0948   0.0829     C
O       0.3348   0.7758   0.5192     O
F       0.3396   0.3219   0.0272     F
C       0.3435   0.9332   0.8598     C
Ag     0.34387  0.40097  0.41264    Ag
F       0.3477    0.678   0.0805     F
F       0.3511   0.7649   0.9536     F
C       0.3521    0.013   0.4597     C
C       0.3524   0.7409   0.0633     C
Ag     0.35323  0.90897  0.14755    Ag
Ag     0.35426  0.62564  0.59054    Ag
C        0.356   0.3278   0.9705     C
C       0.3596   0.5607      0.8     C
O         0.36   0.4644   0.5851     O
F       0.3609   0.1099   0.9832     F
C       0.3616   0.1398   0.8256     C
C       0.3656   0.7207   0.9977     C
F       0.3677   0.5371   0.9031     F
O       0.3757   0.6773   0.3786     O
F        0.376   0.0983   0.5774     F
C       0.3797   0.1247   0.6319     C
F       0.3822    0.073   0.1308     F
C       0.3846    0.339   0.7459     C
F        0.385   0.0791   0.6754     F
O       0.3854    0.348   0.2648     O
Ag     0.38694  0.74228  0.76511    Ag
F       0.3884   0.8774   0.8625     F
F       0.3903   0.6868   0.2483     F
N       0.3906   0.9701   0.4762     N
C       0.3927   0.6321   0.2835     C
F       0.3928   0.2749    0.949     F
F       0.3928    0.984   0.8774     F
F       0.3933   0.8823   0.6989     F
F       0.3956   0.3841   0.9616     F
C       0.3988   0.0939   0.0369     C
F       0.4011   0.0799   0.3145     F
C       0.4018   0.6258    0.353     C
Ag     0.40502  0.68657   0.4809    Ag
O       0.4075   0.6288    0.722     O
C       0.4085   0.5724   0.7449     C
F       0.4118   0.7843   0.0566     F
C       0.4141   0.5374   0.8564     C
Ag     0.41547  0.51646  0.48172    Ag
O       0.4198   0.2778   0.6055     O
F       0.4213   0.0295   0.0379     F
Ag     0.42767  0.37033  0.54791    Ag
Ag     0.43058  0.27512     0.45    Ag
Ag     0.43329  0.87019  0.50054    Ag
F        0.435    0.585    0.257     F
O       0.4356   0.5203   0.7239     O
F       0.4372   0.4757   0.8446     F
F       0.4407   0.6998   0.9855     F
F       0.4453   0.9319   0.6269     F
C       0.4493    0.124   0.8312     C
C       0.4532   0.2243   0.5906     C
O       0.4542   0.5856   0.3776     O
F       0.4559     0.14   0.0544     F
C       0.4571   0.1685   0.6379     C
C       0.4608    0.886    0.669     C
F       0.4622   0.1251   0.2407     F
F       0.4679   0.1912   0.6947     F
C       0.4701   0.4181   0.4524     C
C       0.4704   0.0838   0.2875     C
O       0.4743   0.7693   0.6761     O
F       0.4767     0.58   0.8611     F
C       0.4814   0.6259   0.5541     C
Ag     0.48296  0.33919  0.34376    Ag
F       0.4833   0.8758   0.3682     F
N       0.4838     0.89   0.1643     N
C       0.4841   0.8185   0.6437     C
O       0.4844   0.2124   0.5422     O
O       0.4853   0.2673   0.1787     O
O       0.4885   0.1795   0.4073     O
F       0.4907   0.0248   0.2665     F
Ag     0.49109  0.52147  0.63458    Ag
Ag     0.50891  0.47853  0.36542    Ag
F       0.5093   0.9752   0.7335     F
O       0.5115   0.8205   0.5927     O
O       0.5147   0.7327   0.8213     O
O       0.5156   0.7876   0.4578     O
C       0.5159   0.1815   0.3563     C
N       0.5162     0.11   0.8357     N
F       0.5167   0.1242   0.6318     F
Ag     0.51704  0.66081  0.65624    Ag
C       0.5186   0.3741   0.4459     C
F       0.5233     0.42   0.1389     F
O       0.5257   0.2307   0.3239     O
C       0.5296   0.9162   0.7125     C
C       0.5299   0.5819   0.5476     C
F       0.5321   0.8088   0.3053     F
F       0.5378   0.8749   0.7593     F
C       0.5392    0.114    0.331     C
C       0.5429   0.8315   0.3621     C
F       0.5441     0.86   0.9456     F
O       0.5458   0.4144   0.6224     O
C       0.5468   0.7757   0.4094     C
C       0.5507    0.876   0.1688     C
F       0.5547   0.0681   0.3731     F
F       0.5593   0.3002   0.0145     F
F       0.5628   0.5243   0.1554     F
O       0.5644   0.4797   0.2761     O
F        0.565    0.415    0.743     F
Ag     0.56671  0.12981  0.49946    Ag
Ag     0.56942  0.72488     0.55    Ag
Ag     0.57233  0.62967  0.45209    Ag
F       0.5787   0.9705   0.9621     F
O       0.5802   0.7222   0.3945     O
Ag     0.58453  0.48354  0.51828    Ag
C       0.5859   0.4626   0.1436     C
F       0.5882   0.2157   0.9434     F
C       0.5915   0.4276   0.2551     C
O       0.5925   0.3712    0.278     O
Ag     0.59498  0.31343   0.5191    Ag
C       0.5982   0.3742    0.647     C
F       0.5989   0.9201   0.6855     F
C       0.6012   0.9061   0.9631     C
F       0.6044   0.6159   0.0384     F
F       0.6067   0.1177   0.3011     F
F       0.6072    0.016   0.1226     F
F       0.6072   0.7251    0.051     F
C       0.6073   0.3679   0.7165     C
N       0.6094   0.0299   0.5238     N
F       0.6097   0.3132   0.7517     F
F       0.6116   0.1226   0.1375     F
Ag     0.61306  0.25772  0.23489    Ag
O       0.6146    0.652   0.7352     O
F        0.615   0.9209   0.3246     F
C       0.6154    0.661   0.2541     C
F       0.6178    0.927   0.8692     F
C       0.6203   0.8753   0.3681     C
F        0.624   0.9017   0.4226     F
O       0.6243   0.3227   0.6214     O
F       0.6323   0.4629   0.0969     F
C       0.6344   0.2793   0.0023     C
C       0.6384   0.8602   0.1744     C
F       0.6391   0.8901   0.0168     F
O         0.64   0.5356   0.4149     O
C       0.6404   0.4393      0.2     C
C        0.644   0.6722   0.0295     C
Ag     0.64574  0.37436  0.40946    Ag
Ag     0.64677  0.09103  0.85245    Ag
C       0.6476   0.2591   0.9367     C
C       0.6479    0.987   0.5403     C
F       0.6489   0.2351   0.0464     F
F       0.6523    0.322   0.9195     F
Ag     0.65613  0.59903  0.58736    Ag
C       0.6565   0.0668   0.1402     C
F       0.6604   0.6781   0.9728     F
O       0.6652   0.2242   0.4808     O
C       0.6672   0.9052   0.9171     C
F       0.6679   0.3824    0.179     F
F        0.676    0.839   0.9233     F
F       0.6786   0.5842     0.84     F
F        0.681   0.0751   0.0404     F
F       0.6818   0.1766   0.7185     F
F       0.6818   0.8343   0.3604     F
F       0.6837   0.3264   0.0284     F
C       0.6886   0.6286   0.7343     C
F       0.6899   0.4505   0.7066     F
C       0.6941   0.3939   0.7385     C
F       0.6958   0.3952   0.7993     F
F       0.6973   0.0566   0.1946     F
F       0.6973   0.4874   0.2044     F
C       0.6981   0.9274   0.5597     C
C       0.6993   0.6936    0.258     C
F       0.6994   0.1292   0.6215     F
O       0.7017   0.7607   0.5449     O
F       0.7074   0.0612   0.7063     F
O       0.7085   0.4327   0.5322     O
C       0.7098   0.5186   0.3994     C
F       0.7119   0.6649   0.1225     F
F       0.7157   0.7018   0.8318     F
O       0.7158   0.6083   0.6886     O
C       0.7163   0.2314   0.4432     C
C       0.7237   0.0733   0.0955     C
O       0.7273   0.2806   0.4116     O
C       0.7289    0.671   0.0656     C
O       0.7299   0.4603   0.3857     O
O       0.7324   0.1673   0.9276     O
C       0.7324    0.959   0.9361     C
C       0.7335   0.2266   0.9445     C
O       0.7347   0.0151   0.9129     O
N        0.738   0.2205   0.2403     N
C        0.739    0.661   0.7884     C
F       0.7399   0.3452   0.7176     F
F       0.7399   0.6321   0.3915     F
F       0.7409   0.1136   0.4519     F
C       0.7439   0.1014   0.6689     C
C       0.7561   0.6014   0.8311     C
F       0.7591   0.6136   0.0481     F
F       0.7601   0.1321   0.1085     F
F       0.7601   0.8452   0.7824     F
C        0.761    0.161   0.7116     C
N        0.762   0.7205   0.2597     N
O       0.7653   0.5151   0.5871     O
C       0.7665   0.7266   0.5555     C
C       0.7676    0.459   0.5639     C
O       0.7676   0.6673   0.5724     O
O       0.7701   0.9603   0.1143     O
C       0.7711    0.171   0.4344     C
O       0.7727   0.7806   0.0884     O
C       0.7763   0.5733   0.4045     C
C       0.7837   0.7314   0.0568     C
O       0.7842   0.1083   0.8114     O
F       0.7843   0.2018   0.6682     F
F       0.7881   0.1649   0.3775     F
C       0.7902   0.0186   0.1006     C
O       0.7915   0.9327   0.9678     O
F       0.7926   0.5612   0.7937     F
O       0.7983   0.2607   0.9551     O
F       0.8006   0.6292   0.8785     F
C       0.8007   0.1936    0.242     C
C       0.8019   0.4274   0.9403     C
F       0.8027   0.5566   0.3054     F
F       0.8027   0.9874   0.2956     F
F       0.8042   0.8952   0.7007     F
C       0.8059   0.8939   0.7615     C
F       0.8101   0.9505   0.7934     F
C       0.8114   0.1286   0.7657     C
F       0.8163   0.8264   0.4716     F
F       0.8182   0.3343   0.1396     F
F       0.8182   0.6766   0.7815     F
F        0.819   0.5751   0.4596     F
F       0.8214   0.0842     0.66     F
F        0.824    0.339   0.5767     F
F       0.8321   0.8824    0.321     F
C       0.8328   0.4052   0.5829     C
O       0.8348   0.7242   0.0192     O
F       0.8396   0.1781   0.5272     F
C       0.8435   0.5668   0.3598     C
Ag     0.84387  0.09903  0.91264    Ag
F       0.8477    0.822   0.5805     F
F       0.8511   0.7351   0.4536     F
C       0.8521    0.487   0.9597     C
C       0.8524   0.7591   0.5633     C
Ag     0.85323  0.59103  0.64755    Ag
Ag     0.85426  0.87436  0.09054    Ag
C        0.856   0.1722   0.4705     C
C       0.8596   0.9393      0.3     C
O         0.86   0.0356   0.0851     O
F       0.8609   0.3901   0.4832     F
C       0.8616   0.3602   0.3256     C
C       0.8656   0.7793   0.4977     C
F       0.8677   0.9629   0.4031     F
O       0.8757   0.8227   0.8786     O
F        0.876   0.4017   0.0774     F
C       0.8797   0.3753   0.1319     C
F       0.8822    0.427   0.6308     F
C       0.8846    0.161   0.2459     C
F        0.885   0.4209   0.1754     F
O       0.8854    0.152   0.7648     O
Ag     0.88694  0.75772  0.26511    Ag
F       0.8884   0.6226   0.3625     F
F       0.8903   0.8132   0.7483     F
N       0.8906   0.5299   0.9762     N
C       0.8927   0.8679   0.7835     C
F       0.8928   0.2251    0.449     F
F       0.8928    0.516   0.3774     F
F       0.8933   0.6177   0.1989     F
F       0.8956   0.1159   0.4616     F
C       0.8988   0.4061   0.5369     C
F       0.9011   0.4201   0.8145     F
C       0.9018   0.8742    0.853     C
Ag     0.90502  0.81343   0.9809    Ag
O       0.9075   0.8712    0.222     O
C       0.9085   0.9276   0.2449     C
F       0.9118   0.7157   0.5566     F
C       0.9141   0.9626   0.3564     C
Ag     0.91547  0.98354  0.98172    Ag
O       0.9198   0.2222   0.1055     O
F       0.9213   0.4705   0.5379     F
Ag     0.92767  0.12967  0.04791    Ag
Ag     0.93058  0.22488     0.95    Ag
Ag     0.93329  0.62981  0.00054    Ag
F        0.935    0.915    0.757     F
O       0.9356   0.9797   0.2239     O
F       0.9372   0.0243   0.3446     F
F       0.9407   0.8002   0.4855     F
F       0.9453   0.5681   0.1269     F
C       0.9493    0.376   0.3312     C
C       0.9532   0.2757   0.0906     C
O       0.9542   0.9144   0.8776     O
F       0.9559     0.36   0.5544     F
C       0.9571   0.3315   0.1379     C
C       0.9608    0.614    0.169     C
F       0.9622   0.3749   0.7407     F
F       0.9679   0.3088   0.1947     F
C       0.9701   0.0819   0.9524     C
C       0.9704   0.4162   0.7875     C
O       0.9743   0.7307   0.1761     O
F       0.9767     0.92   0.3611     F
C       0.9814   0.8741   0.0541     C
Ag     0.98296  0.16081  0.84376    Ag
F       0.9833   0.6242   0.8682     F
N       0.9838     0.61   0.6643     N
C       0.9841   0.6815   0.1437     C
O       0.9844   0.2876   0.0422     O
O       0.9853   0.2327   0.6787     O
O       0.9885   0.3205   0.9073     O
F       0.9907   0.4752   0.7665     F
Ag     0.99109  0.97853  0.13458    Ag
