data_I
_chemical_name_common  '/Users/gianmarcoterrones/Research/MOFs/MOF_structures/water_stability_work_extra_structs/cleaned_from_CCDC/TIRLEM'
_cell_length_a 11.35100
_cell_length_b 11.39100
_cell_length_c 11.48000
_cell_angle_alpha 112.83800
_cell_angle_beta  90.69600
_cell_angle_gamma 99.32800
_space_group_name_H-M_alt      'P 1'


loop_
_space_group_symop_operation_xyz
  'x, y, z' 

loop_
_atom_site_label
_atom_site_fract_x
_atom_site_fract_y
_atom_site_fract_z
_atom_site_type_symbol
C       0.0018   0.5435   0.7838     C
H       0.0148   0.5934   0.9717     H
C        0.055   0.5721   0.8983     C
S      0.10227   0.5123  0.66875     S
C       0.1281   0.4695   0.2548     C
O       0.1575   0.5064   0.3698     O
C       0.1782   0.5667   0.8969     C
O       0.1963   0.4426   0.1666     O
C       0.2167   0.5361   0.7788     C
H       0.2275   0.5823   0.9685     H
H       0.3056   0.5505   0.3974     H
C       0.3395   0.5194   0.7367     C
O       0.3568   0.5059   0.6265     O
H       0.3743   0.4405   0.9461     H
H       0.3817   0.6412   0.3992     H
O       0.3858   0.3765    0.971     O
H       0.3862   0.0165   0.0335     H
O       0.3871   0.2722   0.1827     O
O       0.3878   0.5623    0.389     O
Mn     0.38982   0.4583   0.1787    Mn
H       0.3941   0.8012   0.0263     H
H       0.3946    0.294    0.449     H
C       0.3958   0.9992   0.1055     C
C       0.4001   0.8746   0.1012     C
C       0.4071   0.0917   0.2257     C
C       0.4077   0.2326   0.2663     C
O       0.4109   0.6517   0.1653     O
C       0.4137   0.8735   0.2172     C
C       0.4148   0.7613    0.253     C
O       0.4152   0.5196    0.819     O
O       0.4192   0.7838   0.3682     O
S      0.42412  0.02528  0.33462     S
O       0.4271   0.2991   0.3838     O
H       0.4576   0.3534   0.9364     H
Mn         0.5      0.5      0.5    Mn
H       0.5424   0.6466   0.0636     H
O       0.5729   0.7009   0.6162     O
S      0.57588  0.97472  0.66538     S
O       0.5808   0.2162   0.6318     O
O       0.5848   0.4804    0.181     O
C       0.5852   0.2387    0.747     C
C       0.5863   0.1265   0.7828     C
O       0.5891   0.3483   0.8347     O
C       0.5923   0.7674   0.7337     C
C       0.5929   0.9083   0.7743     C
C       0.5999   0.1254   0.8988     C
C       0.6042   0.0008   0.8945     C
H       0.6054    0.706    0.551     H
H       0.6059   0.1988   0.9737     H
Mn     0.61018   0.5417   0.8213    Mn
O       0.6122   0.4377    0.611     O
O       0.6129   0.7278   0.8173     O
H       0.6138   0.9835   0.9665     H
O       0.6142   0.6235    0.029     O
H       0.6183   0.3588   0.6008     H
H       0.6257   0.5595   0.0539     H
O       0.6432   0.4941   0.3735     O
C       0.6605   0.4806   0.2633     C
H       0.6944   0.4495   0.6026     H
H       0.7725   0.4177   0.0315     H
C       0.7833   0.4639   0.2212     C
O       0.8037   0.5574   0.8334     O
C       0.8218   0.4333   0.1031     C
O       0.8425   0.4936   0.6302     O
C       0.8719   0.5305   0.7452     C
S      0.89773   0.4877  0.33125     S
C        0.945   0.4279   0.1017     C
H       0.9852   0.4066   0.0283     H
C       0.9982   0.4565   0.2162     C
