data_I
_chemical_name_common  '/Users/gianmarcoterrones/Research/MOFs/MOF_structures/water_stability_work_extra_structs/cleaned_from_CCDC/UFARUP'
_cell_length_a 14.42470
_cell_length_b 15.73090
_cell_length_c 16.20670
_cell_angle_alpha 90.00000
_cell_angle_beta  90.00000
_cell_angle_gamma 90.00000
_space_group_name_H-M_alt      'P 1'


loop_
_space_group_symop_operation_xyz
  'x, y, z' 

loop_
_atom_site_label
_atom_site_fract_x
_atom_site_fract_y
_atom_site_fract_z
_atom_site_type_symbol
C      0.00178   0.9824  0.20714     C
C      0.00178   0.9824  0.29286     C
C      0.01058  0.51125  0.20721     C
C      0.01058  0.51125  0.29279     C
O      0.02915  0.47489  0.56971     O
O      0.02915  0.47489  0.93029     O
H       0.0299   0.2784   0.5081     H
H       0.0299   0.2784   0.9919     H
H        0.031   0.7865     0.75     H
O      0.04054  0.00296  0.06957     O
O      0.04054  0.00296  0.43043     O
C      0.06103  0.47683  0.64209     C
C      0.06103  0.47683  0.85791     C
H       0.0657    0.644     0.75     H
C      0.06673  0.01505  0.14312     C
C      0.06673  0.01505  0.35688     C
H        0.073   0.6693     0.25     H
N      0.07676  0.05978  0.68091     N
N      0.07676  0.05978  0.81909     N
C       0.0924   0.7687     0.75     C
C      0.09306  0.27189  0.00135     C
C      0.09306  0.27189  0.49865     C
N      0.10034  0.49793  0.18083     N
N      0.10034  0.49793  0.31917     N
O      0.10448  0.82142  0.55216     O
O      0.10448  0.82142  0.94784     O
C       0.1047   0.7208     0.25     C
H        0.106   0.7674   0.5454     H
H        0.106   0.7674   0.9546     H
Cd    0.107377 0.059247 0.543274    Cd
Cd    0.107377 0.059247 0.956726    Cd
H       0.1127    0.734   0.1273     H
H       0.1127    0.734   0.3727     H
C       0.1141   0.6831     0.75     C
O      0.11987  0.66554  0.52549     O
O      0.11987  0.66554  0.97451     O
C       0.1199   0.0836     0.75     C
Cd     0.12266 0.475631 0.042909    Cd
Cd     0.12266 0.475631 0.457091    Cd
C       0.1282   0.7588   0.1775     C
C       0.1282   0.7588   0.3225     C
N      0.13662  0.19763  0.50752     N
N      0.13662  0.19763  0.99248     N
O      0.14068  0.05129  0.15989     O
O      0.14068  0.05129  0.34011     O
O      0.14452   0.4691  0.65608     O
O      0.14452   0.4691  0.84392     O
N       0.1476  0.33619  0.02497     N
N       0.1476  0.33619  0.47503     N
C       0.1496   0.4908     0.25     C
H       0.1506   0.8847     0.75     H
C       0.1627   0.8266     0.75     C
H       0.1711   0.1919     0.25     H
H       0.1751   0.1141     0.75     H
C       0.1751   0.8343   0.1804     C
C       0.1751   0.8343   0.3196     C
C      0.18644  0.85505   0.5506     C
C      0.18644  0.85505   0.9494     C
H       0.1911   0.8603    0.131     H
H       0.1911   0.8603    0.369     H
H       0.1983   0.3342     0.25     H
N       0.1983   0.8719     0.25     N
O       0.1985  0.93147  0.56407     O
O       0.1985  0.93147  0.93593     O
N       0.2001    0.654     0.75     N
C      0.20209  0.64902   0.5064     C
C      0.20209  0.64902   0.9936     C
H       0.2133   0.4816     0.25     H
C      0.22657  0.21558  0.01141     C
C      0.22657  0.21558  0.48859     C
O      0.22798  0.57734  0.02035     O
O      0.22798  0.57734  0.47965     O
C       0.2321   0.2111     0.25     C
C      0.23371  0.30062  0.03129     C
C      0.23371  0.30062  0.46871     C
Cd    0.246338 0.512756     0.75    Cd
C       0.2479   0.2965     0.25     C
C       0.2521   0.7965     0.75     C
Cd    0.253662 0.012756     0.25    Cd
C      0.26629  0.80062  0.53129     C
C      0.26629  0.80062  0.96871     C
C       0.2679   0.7111     0.75     C
O      0.27202  0.07734  0.52035     O
O      0.27202  0.07734  0.97965     O
C      0.27343  0.71558  0.51141     C
C      0.27343  0.71558  0.98859     C
H       0.2867   0.9816     0.75     H
C      0.29791  0.14902   0.0064     C
C      0.29791  0.14902   0.4936     C
N       0.2999    0.154     0.25     N
O       0.3015  0.43147  0.06407     O
O       0.3015  0.43147  0.43593     O
N       0.3017   0.3719     0.75     N
H       0.3017   0.8342     0.75     H
H       0.3089   0.3603    0.631     H
H       0.3089   0.3603    0.869     H
C      0.31356  0.35505   0.0506     C
C      0.31356  0.35505   0.4494     C
C       0.3249   0.3343   0.6804     C
C       0.3249   0.3343   0.8196     C
H       0.3249   0.6141     0.25     H
H       0.3289   0.6919     0.75     H
C       0.3373   0.3266     0.25     C
H       0.3494   0.3847     0.25     H
C       0.3504   0.9908     0.75     C
N       0.3524  0.83619  0.52497     N
N       0.3524  0.83619  0.97503     N
O      0.35548   0.9691  0.15608     O
O      0.35548   0.9691  0.34392     O
O      0.35932  0.55129  0.65989     O
O      0.35932  0.55129  0.84011     O
N      0.36338  0.69763  0.00752     N
N      0.36338  0.69763  0.49248     N
C       0.3718   0.2588   0.6775     C
C       0.3718   0.2588   0.8225     C
Cd     0.37734 0.975631 0.542909    Cd
Cd     0.37734 0.975631 0.957091    Cd
C       0.3801   0.5836     0.25     C
O      0.38013  0.16554  0.02549     O
O      0.38013  0.16554  0.47451     O
C       0.3859   0.1831     0.25     C
H       0.3873    0.234   0.6273     H
H       0.3873    0.234   0.8727     H
Cd    0.392623 0.559247 0.043274    Cd
Cd    0.392623 0.559247 0.456726    Cd
H        0.394   0.2674   0.0454     H
H        0.394   0.2674   0.4546     H
C       0.3953   0.2208     0.75     C
O      0.39552  0.32142  0.05216     O
O      0.39552  0.32142  0.44784     O
N      0.39966  0.99793  0.68083     N
N      0.39966  0.99793  0.81917     N
C      0.40694  0.77189  0.50135     C
C      0.40694  0.77189  0.99865     C
C       0.4076   0.2687     0.25     C
N      0.42324  0.55978  0.18091     N
N      0.42324  0.55978  0.31909     N
H        0.427   0.1693     0.75     H
C      0.43327  0.51505  0.64312     C
C      0.43327  0.51505  0.85688     C
H       0.4343    0.144     0.25     H
C      0.43897  0.97683  0.14209     C
C      0.43897  0.97683  0.35791     C
O      0.45946  0.50296  0.56957     O
O      0.45946  0.50296  0.93043     O
H        0.469   0.2865     0.25     H
H       0.4701   0.7784   0.0081     H
H       0.4701   0.7784   0.4919     H
O      0.47085  0.97489  0.06971     O
O      0.47085  0.97489  0.43029     O
C      0.48942  0.01125  0.70721     C
C      0.48942  0.01125  0.79279     C
C      0.49822   0.4824  0.70714     C
C      0.49822   0.4824  0.79286     C
C      0.50178   0.5176  0.20714     C
C      0.50178   0.5176  0.29286     C
C      0.51058  0.98875  0.20721     C
C      0.51058  0.98875  0.29279     C
O      0.52915  0.02511  0.56971     O
O      0.52915  0.02511  0.93029     O
H       0.5299   0.2216   0.5081     H
H       0.5299   0.2216   0.9919     H
H        0.531   0.7135     0.75     H
O      0.54054  0.49704  0.06957     O
O      0.54054  0.49704  0.43043     O
C      0.56103  0.02317  0.64209     C
C      0.56103  0.02317  0.85791     C
H       0.5657    0.856     0.75     H
C      0.56673  0.48495  0.14312     C
C      0.56673  0.48495  0.35688     C
H        0.573   0.8307     0.25     H
N      0.57676  0.44022  0.68091     N
N      0.57676  0.44022  0.81909     N
C       0.5924   0.7313     0.75     C
C      0.59306  0.22811  0.00135     C
C      0.59306  0.22811  0.49865     C
N      0.60034  0.00207  0.18083     N
N      0.60034  0.00207  0.31917     N
O      0.60448  0.67858  0.55216     O
O      0.60448  0.67858  0.94784     O
C       0.6047   0.7792     0.25     C
H        0.606   0.7326   0.5454     H
H        0.606   0.7326   0.9546     H
Cd    0.607377 0.440753 0.543274    Cd
Cd    0.607377 0.440753 0.956726    Cd
H       0.6127    0.766   0.1273     H
H       0.6127    0.766   0.3727     H
C       0.6141   0.8169     0.75     C
O      0.61987  0.83446  0.52549     O
O      0.61987  0.83446  0.97451     O
C       0.6199   0.4164     0.75     C
Cd     0.62266 0.024369 0.042909    Cd
Cd     0.62266 0.024369 0.457091    Cd
C       0.6282   0.7412   0.1775     C
C       0.6282   0.7412   0.3225     C
N      0.63662  0.30237  0.50752     N
N      0.63662  0.30237  0.99248     N
O      0.64068  0.44871  0.15989     O
O      0.64068  0.44871  0.34011     O
O      0.64452   0.0309  0.65608     O
O      0.64452   0.0309  0.84392     O
N       0.6476  0.16381  0.02497     N
N       0.6476  0.16381  0.47503     N
C       0.6496   0.0092     0.25     C
H       0.6506   0.6153     0.75     H
C       0.6627   0.6734     0.75     C
H       0.6711   0.3081     0.25     H
H       0.6751   0.3859     0.75     H
C       0.6751   0.6657   0.1804     C
C       0.6751   0.6657   0.3196     C
C      0.68644  0.64495   0.5506     C
C      0.68644  0.64495   0.9494     C
H       0.6911   0.6397    0.131     H
H       0.6911   0.6397    0.369     H
H       0.6983   0.1658     0.25     H
N       0.6983   0.6281     0.25     N
O       0.6985  0.56853  0.56407     O
O       0.6985  0.56853  0.93593     O
N       0.7001    0.846     0.75     N
C      0.70209  0.85098   0.5064     C
C      0.70209  0.85098   0.9936     C
H       0.7133   0.0184     0.25     H
C      0.72657  0.28442  0.01141     C
C      0.72657  0.28442  0.48859     C
O      0.72798  0.92266  0.02035     O
O      0.72798  0.92266  0.47965     O
C       0.7321   0.2889     0.25     C
C      0.73371  0.19938  0.03129     C
C      0.73371  0.19938  0.46871     C
Cd    0.746338 0.987244     0.75    Cd
C       0.7479   0.2035     0.25     C
C       0.7521   0.7035     0.75     C
Cd    0.753662 0.487244     0.25    Cd
C      0.76629  0.69938  0.53129     C
C      0.76629  0.69938  0.96871     C
C       0.7679   0.7889     0.75     C
O      0.77202  0.42266  0.52035     O
O      0.77202  0.42266  0.97965     O
C      0.77343  0.78442  0.51141     C
C      0.77343  0.78442  0.98859     C
H       0.7867   0.5184     0.75     H
C      0.79791  0.35098   0.0064     C
C      0.79791  0.35098   0.4936     C
N       0.7999    0.346     0.25     N
O       0.8015  0.06853  0.06407     O
O       0.8015  0.06853  0.43593     O
N       0.8017   0.1281     0.75     N
H       0.8017   0.6658     0.75     H
H       0.8089   0.1397    0.631     H
H       0.8089   0.1397    0.869     H
C      0.81356  0.14495   0.0506     C
C      0.81356  0.14495   0.4494     C
C       0.8249   0.1657   0.6804     C
C       0.8249   0.1657   0.8196     C
H       0.8249   0.8859     0.25     H
H       0.8289   0.8081     0.75     H
C       0.8373   0.1734     0.25     C
H       0.8494   0.1153     0.25     H
C       0.8504   0.5092     0.75     C
N       0.8524  0.66381  0.52497     N
N       0.8524  0.66381  0.97503     N
O      0.85548   0.5309  0.15608     O
O      0.85548   0.5309  0.34392     O
O      0.85932  0.94871  0.65989     O
O      0.85932  0.94871  0.84011     O
N      0.86338  0.80237  0.00752     N
N      0.86338  0.80237  0.49248     N
C       0.8718   0.2412   0.6775     C
C       0.8718   0.2412   0.8225     C
Cd     0.87734 0.524369 0.542909    Cd
Cd     0.87734 0.524369 0.957091    Cd
C       0.8801   0.9164     0.25     C
O      0.88013  0.33446  0.02549     O
O      0.88013  0.33446  0.47451     O
C       0.8859   0.3169     0.25     C
H       0.8873    0.266   0.6273     H
H       0.8873    0.266   0.8727     H
Cd    0.892623 0.940753 0.043274    Cd
Cd    0.892623 0.940753 0.456726    Cd
H        0.894   0.2326   0.0454     H
H        0.894   0.2326   0.4546     H
C       0.8953   0.2792     0.75     C
O      0.89552  0.17858  0.05216     O
O      0.89552  0.17858  0.44784     O
N      0.89966  0.50207  0.68083     N
N      0.89966  0.50207  0.81917     N
C      0.90694  0.72811  0.50135     C
C      0.90694  0.72811  0.99865     C
C       0.9076   0.2313     0.25     C
N      0.92324  0.94022  0.18091     N
N      0.92324  0.94022  0.31909     N
H        0.927   0.3307     0.75     H
C      0.93327  0.98495  0.64312     C
C      0.93327  0.98495  0.85688     C
H       0.9343    0.356     0.25     H
C      0.93897  0.52317  0.14209     C
C      0.93897  0.52317  0.35791     C
O      0.95946  0.99704  0.56957     O
O      0.95946  0.99704  0.93043     O
H        0.969   0.2135     0.25     H
H       0.9701   0.7216   0.0081     H
H       0.9701   0.7216   0.4919     H
O      0.97085  0.52511  0.06971     O
O      0.97085  0.52511  0.43029     O
C      0.98942  0.48875  0.70721     C
C      0.98942  0.48875  0.79279     C
C      0.99822   0.0176  0.70714     C
C      0.99822   0.0176  0.79286     C
