data_I
_chemical_name_common  '/Users/gianmarcoterrones/Research/MOFs/MOF_structures/water_stability_work_extra_structs/cleaned_from_CCDC/UFAROJ'
_cell_length_a 14.96380
_cell_length_b 14.96380
_cell_length_c 15.05600
_cell_angle_alpha 90.00000
_cell_angle_beta  90.00000
_cell_angle_gamma 100.97667
_space_group_name_H-M_alt      'P 1'


loop_
_space_group_symop_operation_xyz
  'x, y, z' 

loop_
_atom_site_label
_atom_site_fract_x
_atom_site_fract_y
_atom_site_fract_z
_atom_site_type_symbol
C          0.0   0.1208   0.7684     C
Cd         0.0      0.5      0.0    Cd
C          0.0   0.8792   0.2316     C
C       0.0006    0.877   0.9823     C
C       0.0009   0.8753   0.7309     C
N       0.0067   0.5067    0.146     N
C       0.0084   0.2208   0.5123     C
O       0.0108    0.684   0.4538     O
C       0.0305   0.9695   0.9908     C
C       0.0306   0.9694   0.2418     C
C       0.0314   0.9686   0.7381     C
N       0.0321   0.5321   0.2888     N
N       0.0335   0.2937   0.5701     N
O       0.0365   0.8331   0.4802     O
H       0.0387   0.7557    0.709     H
C       0.0391   0.5391   0.7183     C
H       0.0426   0.7546   0.9684     H
H       0.0433   0.7587   0.1958     H
O       0.0448   0.5448   0.5674     O
H       0.0465   0.1061   0.4625     H
H       0.0476   0.7856   0.5203     H
C        0.055    0.555   0.8098     C
C       0.0581   0.5581   0.2061     C
Cd     0.06018   0.5962   0.4245    Cd
C       0.0617   0.8191   0.7145     C
H       0.0621   0.1497   0.2627     H
H       0.0624   0.1468   0.7591     H
H       0.0627   0.1477   0.0157     H
C       0.0631   0.7601   0.4581     C
C       0.0637   0.1563    0.502     C
C       0.0643   0.8185   0.9706     C
C       0.0655   0.8217   0.2056     C
C       0.0814   0.5814   0.6376     C
H       0.0924    0.871   0.4747     H
Cd      0.0962  0.56018   0.4245    Cd
O       0.1016   0.3984      1.0     O
O       0.1039   0.3475   0.3766     O
H       0.1061   0.0465   0.5375     H
H       0.1068   0.6068   0.1922     H
C       0.1097   0.3023    0.615     C
O       0.1164   0.6164   0.9456     O
C       0.1195   0.6195   0.8621     C
C       0.1208      1.0   0.2316     C
H       0.1218    0.179   0.4608     H
C        0.123   0.9994   0.9823     C
C       0.1247   0.9991   0.7309     C
H       0.1271   0.3527   0.6546     H
H        0.129   0.9076   0.4747     H
C         0.14    0.166    0.546     C
O       0.1455   0.6455   0.6334     O
H       0.1468   0.0624   0.2409     H
H       0.1473   0.3729   0.3454     H
H       0.1477   0.0627   0.9843     H
N       0.1483   0.8517   0.1959     N
H       0.1497   0.0621   0.7373     H
N       0.1505   0.8495   0.9628     N
N       0.1513   0.8487   0.7059     N
O       0.1525   0.3961   0.6234     O
C       0.1563   0.0637    0.498     C
C       0.1568   0.7688   0.4351     C
C        0.166     0.14    0.454     C
O       0.1669   0.9635   0.4802     O
C       0.1677   0.2363    0.607     C
H       0.1781   0.8219   0.3808     H
C       0.1783   0.9345   0.2056     C
O       0.1784   0.6784   0.8255     O
H        0.179   0.1218   0.5392     H
C       0.1809   0.9383   0.7145     C
C       0.1815   0.9357   0.9706     C
O        0.184   0.5108   0.4538     O
N       0.1922   0.6922   0.4122     N
C       0.1977   0.3903    0.385     C
N       0.2063   0.4665   0.4299     N
H       0.2144   0.9524   0.5203     H
C       0.2183   0.7817    0.397     C
C       0.2208   0.0084   0.4877     C
H        0.221   0.2412   0.6425     H
C       0.2312   0.8432   0.4351     C
C       0.2363   0.1677    0.393     C
C       0.2399   0.9369   0.4581     C
H       0.2412    0.221   0.3575     H
H       0.2413   0.9567   0.1958     H
H       0.2443   0.9613    0.709     H
H       0.2454   0.9574   0.9684     H
O         0.25     0.75   0.1078     O
Cd        0.25     0.75  0.70347    Cd
Cd        0.25     0.75  0.95499    Cd
H       0.2546   0.5426   0.9684     H
H       0.2557   0.5387    0.709     H
H       0.2587   0.5433   0.1958     H
H       0.2588    0.279   0.3575     H
C       0.2601   0.5631   0.4581     C
C       0.2637   0.3323    0.393     C
C       0.2688   0.6568   0.4351     C
H        0.279   0.2588   0.6425     H
C       0.2792   0.4916   0.4877     C
C       0.2817   0.7183    0.397     C
H       0.2856   0.5476   0.5203     H
N       0.2937   0.0335   0.4299     N
C       0.3023   0.1097    0.385     C
N       0.3078   0.8078   0.4122     N
O        0.316   0.9892   0.4538     O
C       0.3185   0.5643   0.9706     C
C       0.3191   0.5617   0.7145     C
H        0.321   0.3782   0.5392     H
O       0.3216   0.8216   0.8255     O
C       0.3217   0.5655   0.2056     C
H       0.3219   0.6781   0.3808     H
C       0.3323   0.2637    0.607     C
O       0.3331   0.5365   0.4802     O
C        0.334     0.36    0.454     C
C       0.3432   0.7312   0.4351     C
C       0.3437   0.4363    0.498     C
O       0.3475   0.1039   0.6234     O
N       0.3487   0.6513   0.7059     N
N       0.3495   0.6505   0.9628     N
H       0.3503   0.4379   0.7373     H
N       0.3517   0.6483   0.1959     N
H       0.3523   0.4373   0.9843     H
H       0.3527   0.1271   0.3454     H
H       0.3532   0.4376   0.2409     H
O       0.3545   0.8545   0.6334     O
C         0.36    0.334    0.546     C
H        0.371   0.5924   0.4747     H
H       0.3729   0.1473   0.6546     H
C       0.3753   0.5009   0.7309     C
C        0.377   0.5006   0.9823     C
H       0.3782    0.321   0.4608     H
C       0.3792      0.5   0.2316     C
C       0.3805   0.8805   0.8621     C
O       0.3836   0.8836   0.9456     O
C       0.3903   0.1977    0.615     C
H       0.3932   0.8932   0.1922     H
H       0.3939   0.4535   0.5375     H
O       0.3961   0.1525   0.3766     O
O       0.3984   0.1016      0.0     O
Cd      0.4038  0.93982   0.4245    Cd
H       0.4076    0.629   0.4747     H
C       0.4186   0.9186   0.6376     C
C       0.4345   0.6783   0.2056     C
C       0.4357   0.6815   0.9706     C
C       0.4363   0.3437    0.502     C
C       0.4369   0.7399   0.4581     C
H       0.4373   0.3523   0.0157     H
H       0.4376   0.3532   0.7591     H
H       0.4379   0.3503   0.2627     H
C       0.4383   0.6809   0.7145     C
Cd     0.43982   0.9038   0.4245    Cd
C       0.4419   0.9419   0.2061     C
C        0.445    0.945   0.8098     C
H       0.4524   0.7144   0.5203     H
H       0.4535   0.3939   0.4625     H
O       0.4552   0.9552   0.5674     O
H       0.4567   0.7413   0.1958     H
H       0.4574   0.7454   0.9684     H
C       0.4609   0.9609   0.7183     C
H       0.4613   0.7443    0.709     H
O       0.4635   0.6669   0.4802     O
N       0.4665   0.2063   0.5701     N
N       0.4679   0.9679   0.2888     N
C       0.4686   0.5314   0.7381     C
C       0.4694   0.5306   0.2418     C
C       0.4695   0.5305   0.9908     C
O       0.4892    0.816   0.4538     O
C       0.4916   0.2792   0.5123     C
N       0.4933   0.9933    0.146     N
C       0.4991   0.6247   0.7309     C
C       0.4994    0.623   0.9823     C
C          0.5   0.3792   0.7684     C
C          0.5   0.6208   0.2316     C
Cd         0.5      1.0      1.0    Cd
C       0.5006    0.377   0.0177     C
C       0.5009   0.3753   0.2691     C
N       0.5067   0.0067    0.854     N
C       0.5084   0.7208   0.4877     C
O       0.5108    0.184   0.5462     O
C       0.5305   0.4695   0.0092     C
C       0.5306   0.4694   0.7582     C
C       0.5314   0.4686   0.2619     C
N       0.5321   0.0321   0.7112     N
N       0.5335   0.7937   0.4299     N
O       0.5365   0.3331   0.5198     O
H       0.5387   0.2557    0.291     H
C       0.5391   0.0391   0.2817     C
H       0.5426   0.2546   0.0316     H
H       0.5433   0.2587   0.8042     H
O       0.5448   0.0448   0.4326     O
H       0.5465   0.6061   0.5375     H
H       0.5476   0.2856   0.4797     H
C        0.555    0.055   0.1902     C
C       0.5581   0.0581   0.7939     C
Cd     0.56018   0.0962   0.5755    Cd
C       0.5617   0.3191   0.2855     C
H       0.5621   0.6497   0.7373     H
H       0.5624   0.6468   0.2409     H
H       0.5627   0.6477   0.9843     H
C       0.5631   0.2601   0.5419     C
C       0.5637   0.6563    0.498     C
C       0.5643   0.3185   0.0294     C
C       0.5655   0.3217   0.7944     C
C       0.5814   0.0814   0.3624     C
H       0.5924    0.371   0.5253     H
Cd      0.5962  0.06018   0.5755    Cd
O       0.6016   0.8984      1.0     O
O       0.6039   0.8475   0.6234     O
H       0.6061   0.5465   0.4625     H
H       0.6068   0.1068   0.8078     H
C       0.6097   0.8023    0.385     C
O       0.6164   0.1164   0.0544     O
C       0.6195   0.1195   0.1379     C
C       0.6208      0.5   0.7684     C
H       0.6218    0.679   0.5392     H
C        0.623   0.4994   0.0177     C
C       0.6247   0.4991   0.2691     C
H       0.6271   0.8527   0.3454     H
H        0.629   0.4076   0.5253     H
C         0.64    0.666    0.454     C
O       0.6455   0.1455   0.3666     O
H       0.6468   0.5624   0.7591     H
H       0.6473   0.8729   0.6546     H
H       0.6477   0.5627   0.0157     H
N       0.6483   0.3517   0.8041     N
H       0.6497   0.5621   0.2627     H
N       0.6505   0.3495   0.0372     N
N       0.6513   0.3487   0.2941     N
O       0.6525   0.8961   0.3766     O
C       0.6563   0.5637    0.502     C
C       0.6568   0.2688   0.5649     C
C        0.666     0.64    0.546     C
O       0.6669   0.4635   0.5198     O
C       0.6677   0.7363    0.393     C
H       0.6781   0.3219   0.6192     H
C       0.6783   0.4345   0.7944     C
O       0.6784   0.1784   0.1745     O
H        0.679   0.6218   0.4608     H
C       0.6809   0.4383   0.2855     C
C       0.6815   0.4357   0.0294     C
O        0.684   0.0108   0.5462     O
N       0.6922   0.1922   0.5878     N
C       0.6977   0.8903    0.615     C
N       0.7063   0.9665   0.5701     N
H       0.7144   0.4524   0.4797     H
C       0.7183   0.2817    0.603     C
C       0.7208   0.5084   0.5123     C
H        0.721   0.7412   0.3575     H
C       0.7312   0.3432   0.5649     C
C       0.7363   0.6677    0.607     C
C       0.7399   0.4369   0.5419     C
H       0.7412    0.721   0.6425     H
H       0.7413   0.4567   0.8042     H
H       0.7443   0.4613    0.291     H
H       0.7454   0.4574   0.0316     H
Cd        0.75     0.25  0.04501    Cd
Cd        0.75     0.25  0.29653    Cd
O         0.75     0.25   0.8922     O
H       0.7546   0.0426   0.0316     H
H       0.7557   0.0387    0.291     H
H       0.7587   0.0433   0.8042     H
H       0.7588    0.779   0.6425     H
C       0.7601   0.0631   0.5419     C
C       0.7637   0.8323    0.607     C
C       0.7688   0.1568   0.5649     C
H        0.779   0.7588   0.3575     H
C       0.7792   0.9916   0.5123     C
C       0.7817   0.2183    0.603     C
H       0.7856   0.0476   0.4797     H
N       0.7937   0.5335   0.5701     N
C       0.8023   0.6097    0.615     C
N       0.8078   0.3078   0.5878     N
O        0.816   0.4892   0.5462     O
C       0.8185   0.0643   0.0294     C
C       0.8191   0.0617   0.2855     C
H        0.821   0.8782   0.4608     H
O       0.8216   0.3216   0.1745     O
C       0.8217   0.0655   0.7944     C
H       0.8219   0.1781   0.6192     H
C       0.8323   0.7637    0.393     C
O       0.8331   0.0365   0.5198     O
C        0.834     0.86    0.546     C
C       0.8432   0.2312   0.5649     C
C       0.8437   0.9363    0.502     C
O       0.8475   0.6039   0.3766     O
N       0.8487   0.1513   0.2941     N
N       0.8495   0.1505   0.0372     N
H       0.8503   0.9379   0.2627     H
N       0.8517   0.1483   0.8041     N
H       0.8523   0.9373   0.0157     H
H       0.8527   0.6271   0.6546     H
H       0.8532   0.9376   0.7591     H
O       0.8545   0.3545   0.3666     O
C         0.86    0.834    0.454     C
H        0.871   0.0924   0.5253     H
H       0.8729   0.6473   0.3454     H
C       0.8753   0.0009   0.2691     C
C        0.877   0.0006   0.0177     C
H       0.8782    0.821   0.5392     H
C       0.8792      1.0   0.7684     C
C       0.8805   0.3805   0.1379     C
O       0.8836   0.3836   0.0544     O
C       0.8903   0.6977    0.385     C
H       0.8932   0.3932   0.8078     H
H       0.8939   0.9535   0.4625     H
O       0.8961   0.6525   0.6234     O
O       0.8984   0.6016      1.0     O
Cd      0.9038  0.43982   0.5755    Cd
H       0.9076    0.129   0.5253     H
C       0.9186   0.4186   0.3624     C
C       0.9345   0.1783   0.7944     C
C       0.9357   0.1815   0.0294     C
C       0.9363   0.8437    0.498     C
C       0.9369   0.2399   0.5419     C
H       0.9373   0.8523   0.9843     H
H       0.9376   0.8532   0.2409     H
H       0.9379   0.8503   0.7373     H
C       0.9383   0.1809   0.2855     C
Cd     0.93982   0.4038   0.5755    Cd
C       0.9419   0.4419   0.7939     C
C        0.945    0.445   0.1902     C
H       0.9524   0.2144   0.4797     H
H       0.9535   0.8939   0.5375     H
O       0.9552   0.4552   0.4326     O
H       0.9567   0.2413   0.8042     H
H       0.9574   0.2454   0.0316     H
C       0.9609   0.4609   0.2817     C
H       0.9613   0.2443    0.291     H
O       0.9635   0.1669   0.5198     O
N       0.9665   0.7063   0.4299     N
N       0.9679   0.4679   0.7112     N
C       0.9686   0.0314   0.2619     C
C       0.9694   0.0306   0.7582     C
C       0.9695   0.0305   0.0092     C
O       0.9892    0.316   0.5462     O
C       0.9916   0.7792   0.4877     C
N       0.9933   0.4933    0.854     N
C       0.9991   0.1247   0.2691     C
C       0.9994    0.123   0.0177     C
