data_I
_chemical_name_common  '/Users/gianmarcoterrones/Research/MOFs/MOF_structures/water_stability_work_extra_structs/cleaned_from_CCDC/UNINOV'
_cell_length_a 10.81760
_cell_length_b 13.68030
_cell_length_c 14.83580
_cell_angle_alpha 79.97400
_cell_angle_beta  83.66100
_cell_angle_gamma 67.60700
_space_group_name_H-M_alt      'P 1'


loop_
_space_group_symop_operation_xyz
  'x, y, z' 

loop_
_atom_site_label
_atom_site_fract_x
_atom_site_fract_y
_atom_site_fract_z
_atom_site_type_symbol
C       0.0021   0.1204   0.2252     C
O       0.0214   0.8065   0.5037     O
C       0.0277   0.1528   0.4238     C
O       0.0281   0.8507   0.2127     O
C        0.032    0.211   0.2491     C
C       0.0331   0.2318   0.3393     C
Cd     0.04575  0.04836   0.6127    Cd
H       0.0466   0.2706   0.1167     H
C       0.0483   0.2836   0.1759     C
C       0.0511   0.3223   0.3522     C
H       0.0515   0.3356   0.4115     H
O       0.0603   0.0812   0.1551     O
C       0.0672   0.3755    0.188     C
C       0.0692   0.3956   0.2773     C
O       0.0746   0.0551   0.4207     O
Cd     0.07547  0.99463  0.88492    Cd
H       0.0755   0.2286   0.9228     H
H       0.0758   0.2653   0.6602     H
H       0.0866   0.4369   0.0539     H
C       0.0872   0.4492   0.1135     C
H       0.0885   0.5037   0.3487     H
O       0.0887   0.9058   0.7288     O
C       0.0889    0.489   0.2898     C
C       0.1074   0.5374   0.1273     C
C       0.1084   0.5575   0.2156     C
H       0.1207   0.5845   0.0774     H
H       0.1224   0.6181   0.2245     H
O        0.125   0.9096   0.0319     O
O       0.1398   0.7588   0.9848     O
C       0.1401   0.8282    0.247     C
O       0.1527   0.8591    0.318     O
C       0.1664   0.2231   0.6567     C
C       0.1673   0.1925   0.9151     C
C       0.1677   0.8072   0.0363     C
N       0.2027   0.1261   0.6346     N
N       0.2115   0.0934   0.8974     N
H       0.2165   0.3159   0.9339     H
H       0.2186   0.5957   0.8772     H
H       0.2313   0.3336   0.6895     H
H       0.2363   0.5799   0.7243     H
H        0.241    0.816   0.5412     H
C       0.2515   0.2455   0.9226     C
C       0.2598   0.2646   0.6752     C
C       0.2635   0.7541   0.2006     C
C       0.2726   0.7408   0.1065     C
N       0.2727   0.9311   0.5826     N
H       0.2832   0.1092   0.1414     H
H        0.289   0.7659   0.8172     H
C       0.2937   0.5447   0.8531     C
H       0.3042    0.109    0.387     H
C       0.3052   0.5349   0.7617     C
N       0.3059   0.8906   0.8508     N
C       0.3076   0.8361   0.5575     C
H       0.3313   0.2672   0.1748     H
C       0.3329   0.0651    0.629     C
C       0.3466   0.0413    0.886     C
C       0.3511    0.794   0.8277     C
H       0.3603   0.9415   0.1089     H
H       0.3613   0.6968   0.3161     H
H       0.3644   0.9467   0.3449     H
C       0.3667   0.6884   0.2547     C
C       0.3707   0.9616   0.6031     C
H       0.3739   0.2518   0.4277     H
C        0.375   0.0722   0.1352     C
C       0.3832   0.6657   0.0734     C
C       0.3859   0.1929   0.9132     C
H       0.3861   0.4835   0.9699     H
H       0.3885   0.6587   0.0117     H
C       0.3903   0.2038   0.6719     C
C        0.394   0.4783   0.9077     C
C       0.3944   0.0661   0.3822     C
C       0.3956   0.9343   0.8634     C
C       0.4135   0.4619    0.724     C
H       0.4179   0.4582   0.6616     H
C       0.4212   0.9724   0.1158     C
C       0.4223   0.2269   0.1688     C
C       0.4305   0.9692   0.3582     C
C        0.433   0.1008   0.6479     C
C       0.4386   0.0887   0.8949     C
C       0.4397   0.7643   0.5541     C
H       0.4432   0.2274   0.9191     H
H       0.4528   0.2298   0.6857     H
H       0.4603   0.6969   0.5381     H
C       0.4627   0.2051   0.4254     C
C       0.4651   0.1233   0.1465     C
C       0.4803   0.6087   0.2211     C
C       0.4863   0.7315   0.8183     C
H       0.4864   0.3372   0.1966     H
C       0.4902   0.5981   0.1276     C
C       0.4943   0.1047   0.4009     C
C       0.5057   0.8953   0.5991     C
C       0.5098   0.4019   0.8724     C
H       0.5136   0.6628   0.8034     H
C       0.5137   0.2685   0.1817     C
C       0.5197   0.3913   0.7789     C
C       0.5349   0.8767   0.8535     C
C       0.5373   0.7949   0.5746     C
H       0.5397   0.3031   0.4619     H
H       0.5472   0.7702   0.3143     H
H       0.5568   0.7726   0.0809     H
C       0.5603   0.2357   0.4459     C
C       0.5614   0.9113   0.1051     C
C        0.567   0.8992   0.3521     C
C       0.5695   0.0308   0.6418     C
C       0.5777   0.7731   0.8312     C
C       0.5788   0.0276   0.8842     C
H       0.5821   0.5418   0.3384     H
C       0.5865   0.5381    0.276     C
C       0.6044   0.0657   0.1366     C
C       0.6056   0.9339   0.6178     C
C        0.606   0.5217   0.0923     C
C       0.6097   0.7962   0.3281     C
H       0.6115   0.3413   0.9883     H
H       0.6139   0.5165   0.0301     H
C       0.6141   0.8071   0.0868     C
C       0.6168   0.3343   0.9266     C
C        0.625   0.9278   0.8648     C
H       0.6261   0.7482   0.5723     H
C       0.6293   0.0384   0.3969     C
C       0.6333   0.3116   0.7453     C
H       0.6356   0.0533   0.6551     H
H       0.6387   0.3032   0.6839     H
H       0.6397   0.0585   0.8911     H
C       0.6489    0.206   0.1723     C
C       0.6534   0.9587    0.114     C
C       0.6671   0.9349    0.371     C
H       0.6687   0.7328   0.8252     H
C       0.6924   0.1639   0.4425     C
N       0.6941   0.1094   0.1492     N
C       0.6948   0.4651   0.2383     C
H       0.6958    0.891    0.613     H
C       0.7063   0.4553   0.1469     C
H        0.711   0.2341   0.1828     H
H       0.7168   0.8908   0.8586     H
N       0.7273   0.0689   0.4174     N
C       0.7274   0.2592   0.8935     C
C       0.7365   0.2459   0.7994     C
C       0.7402   0.7354   0.3248     C
C       0.7485   0.7545   0.0774     C
H        0.759    0.184   0.4588     H
H       0.7637   0.4201   0.2757     H
H       0.7687   0.6664   0.3105     H
H       0.7814   0.4043   0.1228     H
H       0.7835   0.6841   0.0661     H
N       0.7885   0.9066   0.1026     N
N       0.7973   0.8739   0.3654     N
C       0.8323   0.1928   0.9637     C
C       0.8327   0.8075   0.0849     C
C       0.8336   0.7769   0.3433     C
O       0.8473   0.1409    0.682     O
C       0.8599   0.1718    0.753     C
O       0.8602   0.2412   0.0152     O
O        0.875   0.0904   0.9681     O
H       0.8776   0.3819   0.7755     H
H       0.8793   0.4155   0.9226     H
C       0.8916   0.4425   0.7844     C
C       0.8926   0.4626   0.8727     C
C       0.9111    0.511   0.7102     C
O       0.9113   0.0942   0.2712     O
H       0.9115   0.4963   0.6513     H
C       0.9128   0.5508   0.8865     C
H       0.9134   0.5631   0.9461     H
H       0.9242   0.7347   0.3398     H
H       0.9245   0.7714   0.0772     H
Cd     0.92453  0.00537  0.11508    Cd
O       0.9254   0.9449   0.5793     O
C       0.9308   0.6044   0.7227     C
C       0.9328   0.6245    0.812     C
O       0.9397   0.9188   0.8449     O
H       0.9485   0.6644   0.5885     H
C       0.9489   0.6777   0.6478     C
C       0.9517   0.7164   0.8241     C
H       0.9534   0.7294   0.8833     H
Cd     0.95425  0.95164   0.3873    Cd
C       0.9669   0.7682   0.6607     C
C        0.968    0.789   0.7509     C
O       0.9719   0.1493   0.7873     O
C       0.9723   0.8472   0.5762     C
O       0.9786   0.1935   0.4963     O
C       0.9979   0.8796   0.7748     C
