data_I
_chemical_name_common  '/Users/gianmarcoterrones/Downloads/ValZnCl_no_solvent'
_cell_length_a 17.73361
_cell_length_b 17.73361
_cell_length_c 10.34338
_cell_angle_alpha 90.00000
_cell_angle_beta  90.00000
_cell_angle_gamma 120.00000
_space_group_name_H-M_alt      'P 1'


loop_
_space_group_symop_operation_xyz
  'x, y, z' 

loop_
_atom_site_label
_atom_site_fract_x
_atom_site_fract_y
_atom_site_fract_z
_atom_site_type_symbol
Zn    -0.071253 0.455535 0.822479    Zn
O     -0.02525  0.48534  1.01884     O
H       0.0201   0.3726 0.720467     H
H     0.043067   0.3764 0.867867     H
C      0.05536  0.53274  1.02787     C
N      0.05805  0.49144  0.80085     N
C      0.06097  0.40855  0.78727     C
H       0.0688   0.6401 0.765867     H
Zn    0.071267 0.544475 1.322479    Zn
H       0.0746   0.6797 0.903467     H
O      0.09745  0.57124  1.12864     O
C      0.10788  0.67765  0.83178     C
C      0.11316  0.54634  0.90965     C
H       0.1431   0.7351 0.797167     H
C      0.15174  0.42655  0.75227     C
H       0.1542   0.5267 0.932367     H
H       0.1589   0.4788   0.5733     H
C      0.16548  0.64275  0.87627     C
H       0.1807    0.382   0.9151     H
C      0.19105  0.46857  0.63467     C
H       0.1939   0.6737 0.955867     H
C      0.20354  0.41074  0.83737     C
H       0.2121   0.6293 0.701067     H
C      0.23729  0.66327  0.77797     C
H       0.2649    0.408   0.1305     H
H        0.266    0.724 0.756667     H
H        0.276    0.542     0.09     H
C      0.27755  0.49427  0.61087     C
H       0.2785   0.6491 0.813967     H
C      0.28954  0.43835  0.80447     C
H       0.3034    0.524   0.5349     H
H       0.3203   0.3949   0.2368     H
C      0.32245  0.43025  0.16508     C
H       0.3234   0.4286   0.8632     H
N      0.32544  0.47704  0.69605     N
H       0.3263   0.5202   0.2892     H
C      0.33687  0.57407  0.11127     C
H       0.3509   0.6294   0.1473     H
C      0.35735  0.52275  0.20957     C
H       0.3599   0.4287   0.0992     H
H       0.3707   0.5828   0.0344     H
H       0.3726   0.3525   0.5538     H
H       0.3764 0.333333   0.7012     H
H        0.382   0.2013 0.748433     H
H       0.3949   0.0746 1.070133     H
H        0.408   0.1431 0.963833     H
C      0.40855  0.34764  0.62057     C
C      0.41074  0.20726  0.67067     C
C      0.42655  0.27487  0.58557     C
H       0.4286   0.1052 0.696533     H
H       0.4287   0.0688 0.932533     H
O      0.42884  0.52624  0.46194     O
C      0.43025  0.10788  0.99838     C
N      0.43344 -0.05795  0.46745     N
C      0.43835  0.14887  0.63777     C
C      0.45374  0.56684  0.24295     C
Zn    0.455535 0.526794 0.655809    Zn
C      0.46734  0.52264  0.36117     C
C      0.46857  0.27759  0.46797     C
Zn    0.473214 -0.071253 0.989139    Zn
Zn    0.473214 0.928747 -0.010861    Zn
H       0.4733   0.6275   0.2657     H
H        0.476   0.7794 -0.131767     H
N      0.47704  0.15166  0.52935     N
Cl     0.47705  0.34834  0.17485    Cl
H       0.4788   0.3199 0.406633     H
O      0.48534  0.51064  0.85214     O
O      0.48944 -0.02525  1.18544     O
N      0.49144  0.43344  0.63415     N
C      0.49427  0.21678  0.44417     C
C      0.50587  0.78338 -0.05583     C
N      0.50864  0.56664  0.13415     N
O      0.51064  0.02535  0.68544     O
O      0.51474  0.48944  0.35214     O
H       0.5202   0.1939 1.122533     H
H       0.5212   0.6801 -0.093367     H
C      0.52264  0.05536  1.19447     C
C      0.52275  0.16548  1.04287     C
N      0.52304  0.84846  0.02935     N
Cl     0.52305  0.65174  0.67485    Cl
H        0.524   0.2206 0.368233     H
O      0.52624  0.09745  0.29524     O
H       0.5267   0.3725   0.7657     H
Zn    0.526794 0.071267 0.489139    Zn
Zn    0.526794 0.071267 1.489139    Zn
C      0.53157  0.72259 -0.03203     C
C      0.53274  0.47744  0.86117     C
H        0.542    0.266 0.923333     H
Zn    0.544475 0.473214 0.155809    Zn
Zn    0.544475 0.473214 1.155809    Zn
C      0.54634  0.43324  0.74295     C
C      0.56175  0.85127  0.13777     C
N      0.56664  0.05805  0.96745     N
C      0.56684  0.11316  1.07625     C
O      0.57124  0.47384 -0.03806     O
H       0.5714   0.8948 0.196533     H
C      0.57355  0.72527  0.08557     C
C      0.57407  0.23729  0.94457     C
H       0.5828   0.2121 0.867733     H
C      0.58934  0.79286  0.17067     C
C      0.59155  0.65244  0.12057     C
H        0.618   0.7987 0.248433     H
H       0.6236 0.666667   0.2012     H
H       0.6274   0.6475   0.0538     H
H       0.6275   0.1542 1.099033     H
H       0.6293   0.4172   0.5344     H
H       0.6294   0.2785 0.980633     H
H       0.6401   0.5713   0.5992     H
C      0.64275  0.47735  0.70957     C
H       0.6475   0.0201 0.887133     H
H       0.6491   0.3706   0.6473     H
Cl     0.65174  0.12877  0.50815    Cl
C      0.65244  0.06097  0.95387     C
C      0.66327  0.42607  0.61127     C
H     0.666667 0.043067 1.034533     H
H       0.6737   0.4798   0.7892     H
N      0.67464  0.52304  0.19605     N
H       0.6766   0.5714   0.3632     H
C      0.67765  0.56985  0.66508     C
H       0.6797   0.6051   0.7368     H
H       0.6801   0.1589 0.739967     H
H       0.6966    0.476   0.0349     H
C      0.71054  0.56175  0.30447     C
H       0.7215   0.3509 0.313967     H
C      0.72255  0.50587  0.11087     C
C      0.72259  0.19105  0.80137     C
H        0.724    0.458     0.59     H
C      0.72527  0.15174  0.91897     C
H        0.734    0.276 0.256667     H
H       0.7351    0.592   0.6305     H
C      0.76289  0.33687  0.27797     C
H       0.7794   0.3034 0.701567     H
C      0.78338  0.27755  0.77757     C
H       0.7879   0.3707 0.201067     H
C      0.79286  0.20354  1.00407     C
C      0.79654  0.58934  0.33737     C
H       0.7987   0.1807 1.081767     H
H       0.8061   0.3263 0.455867     H
C      0.80905  0.53157  0.13467     C
H       0.8193    0.618   0.4151     H
C      0.83468  0.35735  0.37627     C
H       0.8411   0.5212   0.0733     H
H       0.8458   0.4733 0.432367     H
C      0.84834  0.57355  0.25227     C
N      0.84846  0.32544  0.86275     N
C      0.85127  0.28954  0.97117     C
H       0.8569   0.2649 0.297167     H
Cl     0.87137  0.52305  0.84155    Cl
C      0.88696  0.45374  0.40965     C
C      0.89228  0.32245  0.33178     C
H       0.8948   0.3234 1.029867     H
O      0.90265  0.42884  0.62864     O
H       0.9254   0.3203 0.403467     H
Zn    0.928747 0.455535 0.822479    Zn
H       0.9312   0.3599 0.265867     H
C      0.93917  0.59155  0.28727     C
N      0.94205  0.50864  0.30085     N
C      0.94476  0.46734  0.52787     C
H     0.956933   0.6236 0.367867     H
H       0.9799   0.6274 0.220467     H
O      1.02535  0.51474  0.51884     O
Zn    1.071267 0.544475 0.322479    Zn
H       1.1052   0.6766 0.529867     H
Cl     1.12877  0.47705  0.34155    Cl
C      1.14887  0.71054  0.47117     C
N      1.15166  0.67464  0.36275     N
H       1.2013   0.8193 0.581767     H
C      1.20726  0.79654  0.50407     C
C      1.21678  0.72255  0.27757     C
H       1.2206   0.6966 0.201567     H
C      1.27487  0.84834  0.41897     C
C      1.27759  0.80905  0.30137     C
H       1.3199   0.8411 0.239967     H
H     1.333333 0.956933 0.534533     H
C      1.34764  0.93917  0.45387     C
Cl     1.34834  0.87137  1.00815    Cl
H       1.3525   0.9799 0.387133     H
H       1.3706   0.7215 0.480633     H
H       1.3725   0.8458 0.599033     H
H       1.4172   0.7879 0.367733     H
C      1.42607  0.76289  0.44457     C
C      1.43324  0.88696  0.57625     C
H        1.458    0.734 0.423333     H
Zn    1.473214 0.928747 0.989139    Zn
O      1.47384  0.90265  0.79524     O
C      1.47735  0.83468  0.54287     C
C      1.47744  0.94476  0.69447     C
H       1.4798   0.8061 0.622533     H
Zn    1.526794 1.071267 0.489139    Zn
C      1.56985  0.89228  0.49838     C
H       1.5713   0.9312 0.432533     H
H        1.592   0.8569 0.463833     H
H       1.6051   0.9254 0.570133     H
