data_I
_chemical_name_common  '/Users/gianmarcoterrones/Research/MOFs/MOF_structures/water_stability_work_extra_structs/cleaned_from_CoRE/VASGOO_clean'
_cell_length_a 14.98330
_cell_length_b 18.87490
_cell_length_c 24.02420
_cell_angle_alpha 90.00000
_cell_angle_beta  90.00000
_cell_angle_gamma 106.38100
_space_group_name_H-M_alt      'P 1'


loop_
_space_group_symop_operation_xyz
  'x, y, z' 

loop_
_atom_site_label
_atom_site_fract_x
_atom_site_fract_y
_atom_site_fract_z
_atom_site_type_symbol
In         0.0      0.0      0.0    In
In         0.0      0.5      0.5    In
O       0.0015   0.3666   0.5939     O
O       0.0015   0.8666   0.9061     O
H       0.0114    0.439   0.9582     H
H       0.0114    0.939   0.5418     H
C        0.012   0.4314   0.7114     C
C        0.012   0.9314   0.7886     C
H       0.0147   0.3676   0.1174     H
H       0.0147   0.8676   0.3826     H
O        0.019   0.1901   0.9759     O
O        0.019   0.6901   0.5241     O
C       0.0213   0.4872   0.9422     C
C       0.0213   0.9872   0.5578     C
H        0.027   0.1165   0.2092     H
H        0.027   0.6165   0.2908     H
C       0.0271    0.482    0.879     C
C       0.0271    0.982    0.621     C
H       0.0295   0.4936   0.0481     H
H       0.0295   0.9936   0.4519     H
C       0.0299   0.4981   0.2129     C
C       0.0299   0.9981   0.2871     C
H        0.031   0.2272   0.2985     H
H        0.031   0.7272   0.2015     H
C       0.0326    0.431   0.6097     C
C       0.0326    0.931   0.8903     C
C       0.0338   0.4934   0.1557     C
C       0.0338   0.9934   0.3443     C
C       0.0358   0.4703   0.7633     C
C       0.0358   0.9703   0.7367     C
C        0.043   0.4211   0.6678     C
C        0.043   0.9211   0.8322     C
C       0.0454    0.356   0.4546     C
C       0.0454    0.856   0.0454     C
C       0.0462   0.4778   0.6967     C
C       0.0462   0.9778   0.8033     C
H       0.0472   0.3769   0.6831     H
H       0.0472   0.8769   0.8169     H
H       0.0508   0.2263    0.425     H
H       0.0508   0.7263    0.075     H
H       0.0544   0.0234   0.8203     H
O       0.0544   0.4855   0.5802     O
H       0.0544   0.5234   0.6797     H
O       0.0544   0.9855   0.9198     O
O       0.0621   0.4231   0.4597     O
O       0.0621   0.9231   0.0403     O
C       0.0772   0.3922   0.1118     C
C       0.0772   0.8922   0.3882     C
H       0.0783   0.0195   0.5438     H
H       0.0783   0.5195   0.9562     H
H       0.0822     0.48   0.2874     H
H       0.0822     0.98   0.2126     H
H       0.0825   0.0148   0.8241     H
H       0.0825   0.5148   0.6759     H
O       0.0868   0.2853   0.0707     O
O       0.0868   0.7853   0.4293     O
H       0.0875    0.421   0.2426     H
H       0.0875    0.921   0.2574     H
C       0.0925    0.255   0.2875     C
C       0.0925    0.755   0.2125     C
C       0.0951   0.4558   0.8545     C
C       0.0951   0.9558   0.6455     C
C       0.0952   0.4725   0.2491     C
C       0.0952   0.9725   0.2509     C
C       0.0984   0.4453   0.7986     C
C       0.0984   0.9453   0.7014     C
H       0.1004   0.2482   0.2484     H
H       0.1004   0.7482   0.2516     H
H       0.1011   0.3064    0.295     H
H       0.1011   0.8064    0.205     H
C       0.1019   0.4571   0.1286     C
C       0.1019   0.9571   0.3714     C
C       0.1022   0.2605   0.4097     C
C       0.1022   0.7605   0.0903     C
C       0.1102   0.3292   0.4182     C
C       0.1102   0.8292   0.0818     C
In     0.11182  0.18658  0.04245    In
In     0.11182  0.68658  0.45755    In
O       0.1226   0.0828   0.0173     O
O       0.1226   0.5828   0.4827     O
C       0.1321    0.348   0.0844     C
C       0.1321    0.848   0.4156     C
H       0.1518   0.3863   0.9042     H
H       0.1518   0.8863   0.5958     H
H        0.158   0.0001   0.2594     H
H        0.158   0.5001   0.2406     H
H       0.1587   0.3641   0.4009     H
H       0.1587   0.8641   0.0991     H
H         0.16   0.4093   0.7331     H
H         0.16   0.9093   0.7669     H
H       0.1608   0.3635   0.7874     H
H       0.1608   0.8635   0.7126     H
H       0.1638   0.4843   0.1245     H
H       0.1638   0.9843   0.3755     H
C       0.1641   0.2282     0.32     C
C       0.1641   0.7282     0.18     C
H        0.165   0.1693    0.214     H
H        0.165   0.6693    0.286     H
C       0.1655   0.4348   0.8915     C
C       0.1655   0.9348   0.6085     C
C       0.1687   0.4121   0.7727     C
C       0.1687   0.9121   0.7273     C
C       0.1689   0.2313   0.3771     C
C       0.1689   0.7313   0.1229     C
H        0.178   0.2345   0.9192     H
H        0.178   0.7345   0.5808     H
H       0.1832   0.2258   0.4818     H
H       0.1832   0.7258   0.0182     H
O       0.1963   0.1899   0.1142     O
O       0.1963   0.6899   0.3858     O
C       0.2118   0.0701   0.0194     C
C       0.2118   0.5701   0.4806     C
H       0.2119   0.0342   0.0477     H
H       0.2119   0.5342   0.4523     H
O       0.2153   0.3751   0.0746     O
O       0.2153   0.8751   0.4254     O
C       0.2207   0.1976   0.2292     C
C       0.2207   0.6976   0.2708     C
H       0.2216   0.1567    0.483     H
H       0.2216   0.6567    0.017     H
H       0.2255    0.052    0.984     H
H       0.2255    0.552    0.516     H
O       0.2261   0.2435   0.9949     O
O       0.2261   0.7435   0.5051     O
C       0.2277   0.2002   0.2905     C
C       0.2277   0.7002   0.2095     C
H       0.2293   0.1754   0.9346     H
H       0.2293   0.6754   0.5654     H
H       0.2303   0.4425    0.781     H
H       0.2303   0.9425    0.719     H
C       0.2304   0.2263   0.9384     C
C       0.2304   0.7263   0.5616     C
C       0.2321   0.2061   0.4692     C
C       0.2321   0.7061   0.0308     C
C        0.233    0.205   0.4062     C
C        0.233    0.705   0.0938     C
C        0.241   0.4788    0.906     C
C        0.241   0.9788    0.594     C
H       0.2554   0.0267    0.608     H
H       0.2554   0.5267    0.892     H
H        0.258   0.1155    0.028     H
H        0.258   0.6155    0.472     H
C       0.2693   0.2323    0.134     C
C       0.2693   0.7323    0.366     C
C       0.2848   0.2311   0.1949     C
C       0.2848   0.7311   0.3051     C
H       0.2869   0.2571   0.9226     H
H       0.2869   0.7571   0.5774     H
O       0.2903   0.3948   0.9608     O
O       0.2903   0.8948   0.5392     O
H       0.2908   0.2364   0.4826     H
H       0.2908   0.7364   0.0174     H
C       0.2933    0.175   0.3187     C
C       0.2933    0.675   0.1813     C
C       0.2967   0.1791   0.3768     C
C       0.2967   0.6791   0.1232     C
C       0.3097   0.4599   0.9441     C
C       0.3097   0.9599   0.5559     C
In     0.32057  0.33558  0.03082    In
In     0.32057  0.83558  0.46918    In
H       0.3282    0.101   0.2664     H
H       0.3282    0.601   0.2336     H
O       0.3291   0.2757   0.1053     O
O       0.3291   0.7757   0.3947     O
H       0.3432   0.2555   0.2089     H
H       0.3432   0.7555   0.2911     H
C       0.3618   0.1432   0.2876     C
C       0.3618   0.6432   0.2124     C
H       0.3631    0.103   0.4045     H
H       0.3631    0.603   0.0955     H
C       0.3694   0.1534   0.4059     C
C       0.3694   0.6534   0.0941     C
H       0.3747   0.4519    0.133     H
H       0.3747   0.9519    0.367     H
O       0.3789   0.0108   0.5438     O
O       0.3789   0.5108   0.9562     O
H       0.3987   0.1799   0.2629     H
H       0.3987   0.6799   0.2371     H
H       0.4017   0.1287   0.3138     H
H       0.4017   0.6287   0.1862     H
O       0.4184     0.43   0.0597     O
O       0.4184     0.93   0.4403     O
O       0.4315   0.3006   0.9915     O
O       0.4315   0.8006   0.5085     O
C       0.4316   0.4471   0.1173     C
C       0.4316   0.9471   0.3827     C
C       0.4407   0.1934   0.4332     C
C       0.4407   0.6934   0.0668     C
H       0.4493   0.4083    0.136     H
H       0.4493   0.9083    0.364     H
H       0.4502   0.2442   0.4355     H
H       0.4502   0.7442   0.0645     H
H       0.4797   0.4927   0.1217     H
H       0.4797   0.9927   0.3783     H
C       0.4924   0.3405   0.9608     C
C       0.4924   0.8405   0.5392     C
O       0.4968   0.0928   0.4516     O
O       0.4968   0.5928   0.0484     O
In         0.5      0.0      0.5    In
In         0.5      0.5      0.0    In
O       0.5032   0.4072   0.9516     O
O       0.5032   0.9072   0.5484     O
C       0.5076   0.1595   0.4608     C
C       0.5076   0.6595   0.0392     C
H       0.5203   0.0073   0.6217     H
H       0.5203   0.5073   0.8783     H
H       0.5498   0.2558   0.9355     H
H       0.5498   0.7558   0.5645     H
H       0.5507   0.0917    0.636     H
H       0.5507   0.5917    0.864     H
C       0.5593   0.3066   0.9332     C
C       0.5593   0.8066   0.5668     C
C       0.5684   0.0529   0.6173     C
C       0.5684   0.5529   0.8827     C
O       0.5685   0.1994   0.4915     O
O       0.5685   0.6994   0.0085     O
O       0.5816     0.07   0.5597     O
O       0.5816     0.57   0.9403     O
H       0.5983   0.3713   0.8138     H
H       0.5983   0.8713   0.6862     H
H       0.6013   0.3201   0.7629     H
H       0.6013   0.8201   0.7371     H
O       0.6211   0.4892   0.0438     O
O       0.6211   0.9892   0.4562     O
H       0.6253   0.0481    0.633     H
H       0.6253   0.5481    0.867     H
C       0.6306   0.3466   0.9059     C
C       0.6306   0.8466   0.5941     C
H       0.6369    0.397   0.9045     H
H       0.6369    0.897   0.5955     H
C       0.6382   0.3568   0.7876     C
C       0.6382   0.8568   0.7124     C
H       0.6568   0.2445   0.7089     H
H       0.6568   0.7445   0.7911     H
O       0.6709   0.2243   0.6053     O
O       0.6709   0.7243   0.8947     O
H       0.6718    0.399   0.7664     H
H       0.6718    0.899   0.7336     H
In     0.67943  0.16442  0.53082    In
In     0.67943  0.66442  0.96918    In
C       0.6903   0.0401   0.4441     C
C       0.6903   0.5401   0.0559     C
C       0.7033   0.3209   0.8768     C
C       0.7033   0.8209   0.6232     C
C       0.7067    0.325   0.8187     C
C       0.7067    0.825   0.6813     C
H       0.7092   0.2636   0.9826     H
H       0.7092   0.7636   0.5174     H
O       0.7097   0.1052   0.4608     O
O       0.7097   0.6052   0.0392     O
H       0.7131   0.2429   0.4226     H
H       0.7131   0.7429   0.0774     H
C       0.7152   0.2689   0.6949     C
C       0.7152   0.7689   0.8051     C
C       0.7307   0.2677    0.634     C
C       0.7307   0.7677    0.866     C
H        0.742   0.3845    0.528     H
H        0.742   0.8845    0.972     H
H       0.7446   0.4733    0.108     H
H       0.7446   0.9733    0.392     H
C        0.759   0.0212    0.406     C
C        0.759   0.5212    0.094     C
C        0.767    0.295   0.9062     C
C        0.767    0.795   0.5938     C
C       0.7679   0.2939   0.9692     C
C       0.7679   0.7939   0.5308     C
C       0.7696   0.2737   0.4384     C
C       0.7696   0.7737   0.0616     C
H       0.7697   0.0575    0.281     H
H       0.7697   0.5575    0.219     H
H       0.7707   0.3246   0.4346     H
H       0.7707   0.8246   0.0654     H
C       0.7723   0.2998   0.7905     C
C       0.7723   0.7998   0.7095     C
O       0.7739   0.2565   0.4949     O
O       0.7739   0.7565   0.0051     O
H       0.7745    0.448    0.484     H
H       0.7745    0.948    0.016     H
H       0.7784   0.3433    0.983     H
H       0.7784   0.8433    0.517     H
C       0.7793   0.3024   0.7292     C
C       0.7793   0.8024   0.7708     C
O       0.7847   0.1249   0.5746     O
O       0.7847   0.6249   0.9254     O
H       0.7881   0.4658   0.5477     H
H       0.7881   0.9658   0.9523     H
C       0.7882   0.4299   0.5194     C
C       0.7882   0.9299   0.9806     C
O       0.8037   0.3101   0.6142     O
O       0.8037   0.8101   0.8858     O
H       0.8168   0.2742   0.9818     H
H       0.8168   0.7742   0.5182     H
H        0.822   0.2655   0.4192     H
H        0.822   0.7655   0.0808     H
C       0.8311   0.2687   0.8771     C
C       0.8311   0.7687   0.6229     C
C       0.8313   0.0879   0.2727     C
C       0.8313   0.5879   0.2273     C
C       0.8345   0.0652   0.3915     C
C       0.8345   0.5652   0.1085     C
H        0.835   0.3307    0.714     H
H        0.835   0.8307    0.786     H
C       0.8359   0.2718     0.82     C
C       0.8359   0.7718     0.68     C
H       0.8362   0.0157   0.6245     H
H       0.8362   0.5157   0.8755     H
H       0.8392   0.1365   0.2874     H
H       0.8392   0.6365   0.2126     H
H         0.84   0.0907   0.2331     H
H         0.84   0.5907   0.2669     H
H       0.8413   0.1359   0.9009     H
H       0.8413   0.6359   0.5991     H
H        0.842   0.4999   0.7594     H
H        0.842   0.9999   0.7406     H
H       0.8482   0.1137   0.4042     H
H       0.8482   0.6137   0.0958     H
C       0.8679    0.152   0.5844     C
C       0.8679    0.652   0.9156     C
O       0.8774   0.4172   0.5173     O
O       0.8774   0.9172   0.9827     O
In     0.88818  0.31342  0.54245    In
In     0.88818  0.81342  0.95755    In
C       0.8898   0.1708   0.9182     C
C       0.8898   0.6708   0.5818     C
C       0.8978   0.2395   0.9097     C
C       0.8978   0.7395   0.5903     C
C       0.8981   0.0429   0.6286     C
C       0.8981   0.5429   0.8714     C
H       0.8989   0.1936    0.795     H
H       0.8989   0.6936    0.705     H
H       0.8996   0.2518   0.7484     H
H       0.8996   0.7518   0.7516     H
C       0.9016   0.0547   0.2986     C
C       0.9016   0.5547   0.2014     C
C       0.9048   0.0275   0.7491     C
C       0.9048   0.5275   0.7509     C
C       0.9049   0.0442   0.3545     C
C       0.9049   0.5442   0.1455     C
C       0.9075    0.245   0.7875     C
C       0.9075    0.745   0.7125     C
H       0.9125    0.079   0.7426     H
H       0.9125    0.579   0.7574     H
O       0.9132   0.2147   0.5707     O
O       0.9132   0.7147   0.9293     O
H       0.9175   0.4852   0.3241     H
H       0.9175   0.9852   0.1759     H
H       0.9178     0.02   0.7874     H
H       0.9178     0.52   0.7126     H
H       0.9217   0.4805   0.0438     H
H       0.9217   0.9805   0.4562     H
C       0.9228   0.1078   0.6118     C
C       0.9228   0.6078   0.8882     C
O       0.9379   0.0769   0.9597     O
O       0.9379   0.5769   0.5403     O
O       0.9456   0.0145   0.0802     O
H       0.9456   0.4766   0.3203     H
O       0.9456   0.5145   0.4198     O
H       0.9456   0.9766   0.1797     H
H       0.9492   0.2737    0.925     H
H       0.9492   0.7737    0.575     H
H       0.9528   0.1231   0.1831     H
H       0.9528   0.6231   0.3169     H
C        0.953    0.034   0.1713     C
C        0.953    0.534   0.3287     C
C       0.9546    0.144   0.9546     C
C       0.9546    0.644   0.5454     C
C        0.957   0.0789   0.1678     C
C        0.957   0.5789   0.3322     C
C       0.9642   0.0297   0.2633     C
C       0.9642   0.5297   0.2367     C
C       0.9662   0.0066   0.6557     C
C       0.9662   0.5066   0.8443     C
C       0.9674    0.069   0.1097     C
C       0.9674    0.569   0.3903     C
H        0.969   0.2728   0.7985     H
H        0.969   0.7728   0.7015     H
C       0.9701   0.0019   0.7129     C
C       0.9701   0.5019   0.7871     C
H       0.9705   0.0064   0.5481     H
H       0.9705   0.5064   0.9519     H
C       0.9729    0.018    0.379     C
C       0.9729    0.518    0.121     C
H        0.973   0.3835   0.7092     H
H        0.973   0.8835   0.7908     H
C       0.9787   0.0128   0.4422     C
C       0.9787   0.5128   0.0578     C
O        0.981   0.3099   0.4759     O
O        0.981   0.8099   0.0241     O
H       0.9853   0.1324   0.6174     H
H       0.9853   0.6324   0.8826     H
C        0.988   0.0686   0.2114     C
C        0.988   0.5686   0.2886     C
H       0.9886    0.061   0.4582     H
H       0.9886    0.561   0.0418     H
O       0.9985   0.1334   0.0939     O
O       0.9985   0.6334   0.4061     O
