data_I
_chemical_name_common  '/Users/gianmarcoterrones/Research/MOFs/MOF_structures/water_stability_work_extra_structs/cleaned_from_CCDC/VOFSAM'
_cell_length_a 14.67550
_cell_length_b 17.06040
_cell_length_c 20.12620
_cell_angle_alpha 103.72000
_cell_angle_beta  94.69300
_cell_angle_gamma 92.82200
_space_group_name_H-M_alt      'P 1'


loop_
_space_group_symop_operation_xyz
  'x, y, z' 

loop_
_atom_site_label
_atom_site_fract_x
_atom_site_fract_y
_atom_site_fract_z
_atom_site_type_symbol
C       0.0005   0.8007  0.36594     C
C       0.0048   0.8148   0.6713     C
H       0.0063   0.9197   0.4901     H
C       0.0082   0.5936  0.08663     C
C       0.0093   0.2229   0.7051     C
C       0.0121   0.1112  0.04907     C
C       0.0124   0.6936   0.8209     C
C       0.0127   0.2523   0.3813     C
H       0.0185   0.4073   0.0149     H
C       0.0187   0.4548   0.8703     C
H       0.0229   0.5067   0.2152     H
C       0.0289   0.1789  0.11306     C
C        0.029   0.6144  0.54872     C
C       0.0291   0.7586   0.8768     C
H       0.0305   0.7412   0.2725     H
H       0.0336   0.4748   0.3771     H
H       0.0348   0.0623   0.0589     H
H       0.0354   0.1442   0.3235     H
C       0.0397   0.5402  0.18725     C
H       0.0429   0.7289   0.4282     H
H       0.0456   0.1597   0.5027     H
C       0.0457  0.68529  0.61021     C
H       0.0466   0.1246   0.0136     H
H       0.0486   0.9783   0.8754     H
H       0.0497   0.5664   0.5615     H
C       0.0505   0.1141   0.5234     C
H       0.0525   0.6525   0.8143     H
C       0.0538   0.4056  0.97593     C
C       0.0598   0.1459   0.6014     C
C       0.0621   0.3109   0.2246     C
H       0.0647   0.2564    0.412     H
H        0.065   0.6242   0.5129     H
O      0.06591  0.40042  0.47802     O
C       0.0715   0.7665   0.4055     C
H       0.0738   0.3557   0.2616     H
H       0.0754   0.4838   0.8798     H
C       0.0771   0.1946   0.7441     C
H       0.0799   0.7606   0.9082     H
C       0.0811   0.8224   0.7165     C
O      0.08288  0.90419  0.97646     O
H        0.084   0.2118   0.7918     H
H       0.0851   0.7069    0.033     H
H       0.0935   0.8689   0.7518     H
C       0.0939   0.6346  0.10127     C
C       0.0947  0.48028  0.39511     C
H       0.0953   0.9313   0.2214     H
H       0.0978   0.4522    0.987     H
O      0.10084  0.33137  0.96058     O
C       0.1046  0.18236  0.16031     C
C       0.1099  0.98371  0.89262     C
H       0.1122   0.4393    0.716     H
H        0.113   0.7376   0.3748     H
O      0.12042  0.83144  0.45485     O
C       0.1207   0.5849   0.2013     C
C       0.1209   0.2491  0.21607     C
C       0.1233  0.69161   0.6565     C
C       0.1236  0.44275  0.44679     C
O       0.1243   0.0681   0.4958     O
C       0.1256   0.1174   0.6405     C
O       0.1304  0.04815  0.17136     O
C       0.1326   0.6798  0.05325     C
C       0.1327   0.1408   0.7098     C
C       0.1385    0.947  0.94414     C
H       0.1402   0.5522   0.3375     H
C       0.1403   0.7605  0.70968     C
C       0.1472   0.6308  0.15892     C
O      0.15011  0.55852  0.67024     O
H       0.1505   0.4183   0.0867     H
H        0.153   0.0541   0.8329     H
C        0.154  0.92959  0.20722     C
H       0.1585    0.584   0.2405     H
C       0.1593  0.52595  0.37125     C
C       0.1618   0.3181  0.01166     C
H       0.1655   0.9198    0.572     H
H       0.1658   0.0815   0.6188     H
O      0.16906  0.61845  0.00054     O
C       0.1711  0.11718   0.1515     C
H       0.1716   0.2522   0.2478     H
C       0.1719   0.4381  0.70365     C
C       0.1729  0.02855  0.86687     C
H        0.177   0.1194   0.7349     H
C       0.1796   0.8135  0.50427     C
C       0.1807   0.3709  0.07564     C
H       0.1808   0.7198   0.0774     H
C       0.1822   0.1019   0.4573     C
H       0.1847   0.1016    0.104     H
H       0.1853   0.9975   0.3884     H
H       0.1862   0.8302    0.239     H
C       0.1868  0.98785  0.17587     C
C       0.1901  0.62739  0.64895     C
H       0.1917   0.7653    0.741     H
H       0.1941   0.2118   0.9526     H
C       0.1975   0.8733  0.56495     C
H       0.2001   0.2141    0.518     H
H       0.2007   0.3374   0.7341     H
H       0.2035   0.6606   0.1695     H
H       0.2037   0.6109   0.6015     H
C       0.2065   0.2472  0.99574     C
C       0.2069  0.49799  0.67473     C
C       0.2071   0.0516   0.4003     C
C       0.2084  0.86883  0.21749     C
H       0.2118    0.703   0.4543     H
C       0.2148  0.45059  0.47221     C
C       0.2151   0.1809   0.4771     C
C       0.2227   0.6443  0.95549     C
C       0.2247  0.37696  0.71427     C
C       0.2251  0.74361  0.49444     C
H       0.2279    0.137   0.1801     H
H       0.2288   0.5293   0.9008     H
C       0.2305  0.95375  0.96805     C
H       0.2332   0.7645   0.9947     H
H       0.2337   0.4258   0.5069     H
C       0.2447   0.3528  0.12295     C
H       0.2469   0.6482   0.6773     H
C       0.2482   0.5827  0.90331     C
H       0.2501   0.9284   0.0023     H
C       0.2503  0.53411  0.39537     C
C       0.2506   0.7233  0.95986     C
H       0.2577   0.3887   0.1658     H
C       0.2633    0.863  0.61471     C
C       0.2649   0.0808  0.35977     C
C       0.2652  0.03644   0.8905     C
C       0.2694  0.22911  0.04385     C
C       0.2725   0.2116   0.4344     C
C       0.2729  0.98318  0.15275     C
H       0.2752   0.9026   0.6556     H
C       0.2775  0.49474  0.44647     C
H       0.2821   0.0458   0.3207     H
O      0.28705  0.62764  0.32944     O
C       0.2895   0.2828  0.10805     C
C       0.2904  0.73436  0.54434     C
H       0.2928    0.266   0.4461     H
C       0.2928  0.99748  0.94162     C
C       0.2944  0.49448  0.65439     C
H       0.2948   0.0214   0.1307     H
C      0.29616  0.86483  0.19601     C
C       0.2983   0.1617  0.37597     C
H       0.2984    0.181   0.0334     H
O      0.30079  0.12775  0.82267     O
C       0.3027  0.60076  0.85491     C
C       0.3044   0.7404  0.91208     C
C       0.3116   0.7943  0.60415     C
H       0.3137   0.8422   0.3656     H
C      0.31399  0.37399  0.69546     C
H       0.3151   0.4381   0.9639     H
H       0.3167   0.3375   0.8667     H
C       0.3178  0.58296  0.36674     C
H       0.3182   0.9463   0.4609     H
H       0.3183   0.5337   0.6342     H
H       0.3198   0.5598   0.8197     H
H        0.321    0.687   0.5378     H
H       0.3234    0.794   0.9149     H
C       0.3261  0.92188   0.1624     C
O      0.33084  0.75699  0.24678     O
C       0.3311  0.68049   0.8598     C
C       0.3312   0.0856  0.86186     C
H       0.3336   0.0459   0.5443     H
H       0.3339   0.1404   0.6456     H
H        0.339   0.4986   0.4632     H
C       0.3461  0.43235  0.66423     C
O      0.34664  0.26688  0.74798     O
H       0.3544   0.0013    0.958     H
C       0.3576   0.2633   0.1605     C
H       0.3588   0.6485   0.1393     H
C        0.359  0.84464  0.40129     C
C       0.3591  0.40043  0.96164     C
C       0.3592   0.8038  0.21168     C
H       0.3599    0.552   0.0392     H
C       0.3611  0.34007  0.90303     C
C       0.3611  0.90769  0.45877     C
C       0.3612   0.1909  0.33005     C
C       0.3723  0.04197   0.5821     C
C       0.3731  0.09879  0.64327     C
C       0.3743  0.31182  0.71144     C
O      0.37809   0.3168  0.21549     O
C        0.383  0.59952  0.14102     C
H       0.3836   0.9187    0.146     H
C       0.3843   0.5421  0.08037     C
O       0.3856  0.26513  0.34662     O
O       0.3862  0.14074  0.28056     O
C       0.3862   0.7848  0.65584     C
O      0.38969  0.19456  0.14724     O
C       0.3953   0.7025  0.81158     C
O      0.40272  0.58028  0.37998     O
H       0.4045   0.4296   0.6494     H
Mn     0.40614  0.68443 0.299787    Mn
O      0.41194  0.84511  0.70492     O
N      0.41439  0.58916  0.20219     N
O      0.41657  0.08659  0.87848     O
N      0.41724  0.78767  0.39381     N
O      0.41818  0.77586  0.82077     O
Mn      0.4191   0.1895 0.797532    Mn
O      0.42054  0.71689  0.64634     O
C      0.42213  0.46929  0.08093     C
C       0.4226  0.40487  0.01706     C
N      0.42286  0.28537  0.89535     N
O      0.42306  0.64633  0.76661     O
C       0.4268  0.91356  0.51319     C
N      0.42687  0.09735  0.69922     N
C      0.42907  0.97886  0.57679     C
O      0.43644  0.80233  0.18915     O
H       0.4396   0.4655   0.3647     H
O      0.45172   0.3078   0.6878     O
C       0.4521  0.51976  0.20217     C
C       0.4574  0.45967    0.144     C
H       0.4656   0.1452   0.4601     H
H       0.4707    0.654   0.9537     H
H       0.4713     0.99   0.8678     H
H       0.4733   0.0616   0.3666     H
H       0.4735   0.7496   0.0551     H
H       0.4754   0.2459   0.5584     H
H       0.4761   0.5115    0.244     H
Mn     0.47771  0.32911  0.29809    Mn
H       0.4789   0.9642   0.2677     H
H       0.4812   0.4302   0.4119     H
C        0.482  0.79314  0.44573     C
C       0.4824  0.03775  0.69385     C
C       0.4833  0.28896  0.94894     C
O      0.48349  0.44008  0.37255     O
H       0.4848   0.4125    0.147     H
C       0.4858  0.34639  0.01012     C
C       0.4859  0.97862  0.63451     C
Mn     0.48657  0.15272  0.21402    Mn
C       0.4884  0.85386  0.50506     C
O      0.49313  0.04819  0.13453     O
H       0.4992   0.0611   0.0983     H
H       0.5008   0.9389   0.9017     H
O      0.50687  0.95181  0.86547     O
C       0.5116  0.14614  0.49494     C
Mn     0.51343  0.84728  0.78598    Mn
C       0.5141  0.02138  0.36549     C
C       0.5142  0.65361  0.98988     C
H       0.5152   0.5875    0.853     H
O      0.51651  0.55992  0.62745     O
C       0.5167  0.71104  0.05106     C
C       0.5176  0.96225  0.30615     C
C        0.518  0.20686  0.55427     C
H       0.5188   0.5698   0.5881     H
H       0.5211   0.0358   0.7323     H
Mn     0.52229  0.67089  0.70191    Mn
H       0.5239   0.4885    0.756     H
H       0.5246   0.7541   0.4416     H
H       0.5265   0.2504   0.9449     H
H       0.5267   0.9384   0.6334     H
H       0.5287     0.01   0.1322     H
H       0.5293    0.346   0.0463     H
H       0.5344   0.8548   0.5399     H
C       0.5426  0.54033    0.856     C
C       0.5479  0.48024  0.79783     C
O      0.54828   0.6922   0.3122     O
H       0.5604   0.5345   0.6353     H
O      0.56356  0.19767  0.81085     O
C      0.57093  0.02114  0.42321     C
N      0.57313  0.90265  0.30078     N
C       0.5732  0.08644  0.48681     C
O      0.57694  0.35367  0.23339     O
N      0.57714  0.71463  0.10465     N
C       0.5774  0.59513  0.98294     C
C      0.57787  0.53071  0.91907     C
O      0.57946  0.28311  0.35366     O
Mn      0.5809   0.8105 0.202468    Mn
O      0.58182  0.22414  0.17923     O
N      0.58276  0.21233  0.60619     N
O      0.58343  0.91341  0.12152     O
N      0.58561  0.41084  0.79781     N
O      0.58806  0.15489  0.29508     O
Mn     0.59386  0.31557 0.700213    Mn
H       0.5955   0.5704   0.3506     H
O      0.59728  0.41972  0.62002     O
C       0.6047   0.2975  0.18842     C
O      0.61031  0.80544  0.85276     O
C       0.6138   0.2152  0.34416     C
O       0.6138  0.85926  0.71944     O
O       0.6144  0.73487  0.65338     O
C       0.6157   0.4579  0.91963     C
H       0.6164   0.0813    0.854     H
C        0.617  0.40048  0.85898     C
O      0.62191   0.6832  0.78451     O
C       0.6257  0.68818  0.28856     C
C       0.6269  0.90121  0.35673     C
C       0.6277  0.95803   0.4179     C
C       0.6388   0.8091  0.66995     C
C       0.6389  0.09231  0.54123     C
C       0.6389  0.65993  0.09697     C
H       0.6401    0.448   0.9608     H
C       0.6408   0.1962  0.78832     C
C       0.6409  0.59957  0.03836     C
C        0.641  0.15536  0.59871     C
H       0.6412   0.3515   0.8607     H
C       0.6424   0.7367   0.8395     C
H       0.6456   0.9987    0.042     H
O      0.65336  0.73312  0.25202     O
C       0.6539  0.56765  0.33577     C
H        0.661   0.5014   0.5368     H
H       0.6661   0.8596   0.3544     H
H       0.6664   0.9541   0.4557     H
C       0.6688   0.9144  0.13814     C
C       0.6689  0.31951   0.1402     C
O      0.66916  0.24301  0.75322     O
C       0.6739  0.07812   0.8376     C
H       0.6766    0.206   0.0851     H
H        0.679    0.313   0.4622     H
H       0.6802   0.4402   0.1803     H
H       0.6817   0.4663   0.3658     H
H       0.6818   0.0537   0.5391     H
C       0.6822  0.41704  0.63326     C
H       0.6833   0.6625   0.1333     H
H       0.6849   0.5619   0.0361     H
C      0.68601  0.62601  0.30454     C
H       0.6863   0.1578   0.6344     H
C       0.6884   0.2057  0.39585     C
C       0.6956   0.2596  0.08792     C
C       0.6973  0.39924  0.14509     C
O      0.69921  0.87225  0.17733     O
H       0.7016    0.819   0.9666     H
C       0.7017   0.8383  0.62403     C
C      0.70384  0.13517  0.80399     C
H       0.7052   0.9786   0.8693     H
C       0.7056  0.50552  0.34561     C
C       0.7072  0.00252  0.05838     C
H       0.7072    0.734   0.5539     H
C       0.7096  0.26564  0.45566     C
C       0.7105   0.7172  0.89195     C
O      0.71295  0.37236  0.67056     O
H       0.7179   0.9542   0.6793     H
C       0.7225  0.50526  0.55353     C
H       0.7248   0.0974   0.3444     H
C       0.7271  0.01682  0.84725     C
C       0.7275   0.7884   0.5656     C
C       0.7306  0.77089  0.95615     C
C       0.7348  0.96356   0.1095     C
C       0.7351   0.9192  0.64023     C
C       0.7367    0.137  0.38529     C
H       0.7423   0.6113   0.8342     H
C       0.7494   0.2767  0.04014     C
C       0.7497  0.46589  0.60463     C
H       0.7499   0.0716   0.9977     H
C       0.7518   0.4173  0.09669     C
H       0.7531   0.3518   0.3227     H
C       0.7553   0.6472  0.87705     C
H       0.7663   0.5742   0.4931     H
H       0.7668   0.2355   0.0053     H
C       0.7695  0.04625  0.03195     C
H       0.7712   0.4707   0.0992     H
H       0.7721    0.863   0.8199     H
C       0.7749  0.25639  0.50556     C
C       0.7753  0.62304  0.28573     C
C       0.7773   0.3557  0.04451     C
C       0.7849   0.8191   0.5229     C
C       0.7852  0.54941  0.52779     C
H       0.7882    0.297   0.5457     H
C       0.7916  0.13117  0.78251     C
C       0.7929   0.9484   0.5997     C
C       0.7931  0.50201  0.32527     C
C       0.7935   0.7528  0.00426     C
H       0.7963   0.3891   0.3985     H
H       0.7965   0.3394   0.8305     H
H       0.7993   0.6626   0.2659     H
H       0.7999   0.7859    0.482     H
C       0.8025   0.1267  0.43505     C
H       0.8059   0.7882   0.0474     H
H       0.8083   0.2347    0.259     H
C       0.8099  0.37261  0.35105     C
C       0.8132  0.01215  0.82413     C
H       0.8138   0.1698    0.761     H
H       0.8147   0.0025   0.6116     H
H       0.8153   0.8984    0.896     H
C       0.8178   0.8981   0.5427     C
H       0.8192   0.2802   0.9226     H
C       0.8193   0.6291  0.92436     C
C       0.8204   0.1865  0.49573     C
H        0.823   0.8806   0.2651     H
C       0.8271  0.97145  0.13313     C
C       0.8281   0.5619  0.29635     C
H       0.8284   0.7478   0.7522     H
C       0.8289  0.88282   0.8485     C
O      0.83094  0.38155  0.99946     O
H       0.8342   0.9185   0.3812     H
H       0.8345   0.0802    0.428     H
C       0.8382   0.6819  0.98834     C
C       0.8407  0.47405  0.62875     C
H       0.8415    0.416   0.7595     H
C        0.846  0.07041  0.79278     C
H        0.847   0.9459   0.1671     H
H       0.8495   0.5817   0.9133     H
O      0.84989  0.44148  0.32976     O
C       0.8528   0.3692  0.84108     C
C       0.8597   0.2395  0.29032     C
H       0.8598   0.4478   0.6625     H
C       0.8615    0.053  0.05586     C
C       0.8673   0.8592   0.2902     C
C       0.8674   0.3202  0.94675     C
O       0.8696  0.95185  0.82864     O
C       0.8744   0.8826   0.3595     C
O       0.8757   0.9319   0.5042     O
C       0.8764  0.55725  0.55321     C
C       0.8767  0.30839   0.3435     C
C       0.8791   0.7509  0.78393     C
C       0.8793   0.4151   0.7987     C
O      0.87958  0.16856  0.54515     O
H        0.887   0.2624   0.6252     H
H       0.8878   0.5607    0.284     H
C       0.8901  0.01629  0.10738     C
C       0.8954  0.81764  0.83969     C
O      0.89916  0.66863  0.03942     O
H       0.9022   0.5478    0.013     H
H       0.9047   0.0687   0.7786     H
C       0.9053  0.51972  0.60489     C
C       0.9061   0.3654  0.89873     C
H       0.9065   0.1311   0.2482     H
H       0.9149   0.2931    0.967     H
H        0.916   0.7882   0.2082     H
O      0.91712  0.09581  0.02354     O
C       0.9189   0.1776   0.2835     C
H       0.9201   0.2394   0.0918     H
C       0.9229   0.8054   0.2559     C
H       0.9246   0.5162   0.1202     H
H       0.9262   0.6443   0.7384     H
C       0.9285   0.2335   0.5945     C
O      0.93409  0.59958  0.52198     O
H        0.935   0.3758   0.4871     H
H       0.9353   0.7436    0.588     H
C       0.9379   0.6891   0.7754     C
C       0.9402   0.8541   0.3986     C
C       0.9462   0.5944  0.02407     C
H       0.9475   0.3475   0.1857     H
C       0.9495   0.8859   0.4766     C
H       0.9503   0.4336   0.4385     H
H       0.9514   0.0217   0.1246     H
H       0.9534   0.8754   0.9864     H
C       0.9543  0.31471  0.38979     C
H       0.9544   0.8403   0.4973     H
H       0.9571   0.2711   0.5718     H
C       0.9603   0.4598  0.81275     C
H       0.9646   0.8558   0.6765     H
H       0.9652   0.9377   0.9411     H
H       0.9664   0.5252   0.6229     H
H       0.9695   0.2588   0.7275     H
C       0.9709   0.2414   0.1232     C
C        0.971   0.3856  0.45128     C
C       0.9711   0.8211  0.88694     C
H       0.9771   0.4933   0.7848     H
C       0.9813   0.5452   0.1297     C
H       0.9815   0.5927   0.9851     H
C       0.9873   0.7477   0.6187     C
C       0.9876   0.3064   0.1791     C
C       0.9879   0.8888  0.95093     C
C       0.9907   0.7771   0.2949     C
C       0.9918   0.4064  0.91337     C
H       0.9937   0.0803   0.5099     H
C       0.9952   0.1852   0.3287     C
C       0.9995   0.1993  0.63406     C
