data_I
_chemical_name_common  '/Users/gianmarcoterrones/Research/MOFs/MOF_structures/water_stability_work_extra_structs/cleaned_from_CCDC/VOFSEQ'
_cell_length_a 12.39610
_cell_length_b 21.00590
_cell_length_c 22.86990
_cell_angle_alpha 90.00000
_cell_angle_beta  90.00000
_cell_angle_gamma 90.00000
_space_group_name_H-M_alt      'P 1'


loop_
_space_group_symop_operation_xyz
  'x, y, z' 

loop_
_atom_site_label
_atom_site_fract_x
_atom_site_fract_y
_atom_site_fract_z
_atom_site_type_symbol
Cu     0.00608 0.254124 0.635542    Cu
Cu     0.00608 0.745876 0.135542    Cu
C       0.0089  0.39507  0.60244     C
C       0.0089  0.60493  0.10244     C
C        0.009  0.11178  0.88196     C
C        0.009  0.88822  0.38196     C
H       0.0097   0.3567   0.4747     H
H       0.0097   0.6433   0.9747     H
C       0.0102   0.1496  0.33383     C
C       0.0102   0.8504  0.83383     C
C       0.0162   0.3195  0.16128     C
C       0.0162   0.6805  0.66128     C
H       0.0211    0.167   0.4736     H
H       0.0211    0.833   0.9736     H
H       0.0224   0.3175   0.3039     H
H       0.0224   0.6825   0.8039     H
C       0.0235    0.343  0.05949     C
C       0.0235    0.657  0.55949     C
C       0.0268  0.15102  0.10947     C
C       0.0268  0.84898  0.60947     C
C       0.0351  0.33788  0.38924     C
C       0.0351  0.66212  0.88924     C
H       0.0363   0.1375   0.1961     H
H       0.0363   0.8625   0.6961     H
H       0.0372    0.111    0.586     H
H       0.0372    0.889    0.086     H
H       0.0399   0.4904   0.6093     H
H       0.0399   0.5096   0.1093     H
N       0.0419   0.1654  0.85287     N
N       0.0419   0.8346  0.35287     N
H       0.0436   0.3926   0.9265     H
H       0.0436   0.6074   0.4265     H
C       0.0442  0.16695  0.43494     C
C       0.0442  0.83305  0.93494     C
H       0.0455   0.0183   0.8679     H
H       0.0455   0.9817   0.3679     H
N        0.052  0.34428  0.63183     N
N        0.052  0.65572  0.13183     N
C       0.0545  0.06052   0.8567     C
C       0.0545  0.93948   0.3567     C
C       0.0547  0.44929  0.62203     C
C       0.0547  0.55071  0.12203     C
C       0.1067  0.14627  0.81134     C
C       0.1067  0.85373  0.31134     C
C       0.1143  0.16563  0.32073     C
C       0.1143  0.83437  0.82073     C
N       0.1166  0.08247  0.81124     N
N       0.1166  0.91753  0.31124     N
C       0.1232  0.36798  0.66834     C
C       0.1232  0.63202  0.16834     C
C       0.1241  0.30403  0.16089     C
C       0.1241  0.69597  0.66089     C
N       0.1275  0.43185  0.66455     N
N       0.1275  0.56815  0.16455     N
C       0.1323  0.32741  0.05969     C
C       0.1323  0.67259  0.55969     C
O      0.13362   0.1368  0.10289     O
O      0.13362   0.8632  0.60289     O
H       0.1371   0.0266   0.0708     H
H       0.1371   0.9734   0.5708     H
H       0.1373    0.165    0.282     H
H       0.1373    0.835    0.782     H
O      0.13947  0.27973  0.89069     O
O      0.13947  0.72027  0.39069     O
H       0.1399   0.1752   0.0241     H
H       0.1399   0.8248   0.5241     H
H       0.1415   0.1733   0.7852     H
H       0.1415   0.8267   0.2852     H
O       0.1437  0.34895  0.38554     O
O       0.1437  0.65105  0.88554     O
C       0.1496  0.18281  0.42151     C
C       0.1496  0.81719  0.92151     C
O      0.15066    0.213  0.56005     O
O      0.15066    0.787  0.06005     O
O       0.1558  0.22818  0.65576     O
O       0.1558  0.77182  0.15576     O
H       0.1574   0.2913   0.1954     H
H       0.1574   0.7087   0.6954     H
H       0.1653   0.3437   0.6936     H
H       0.1653   0.6563   0.1936     H
H       0.1658   0.3209   0.4671     H
H       0.1658   0.6791   0.9671     H
H       0.1664   0.4636   0.4006     H
H       0.1664   0.5364   0.9006     H
H       0.1714   0.3307   0.0251     H
H       0.1714   0.6693   0.5251     H
O       0.1721   0.2995  0.79751     O
O       0.1721   0.7005  0.29751     O
C       0.1767  0.02891  0.03636     C
C       0.1767  0.97109  0.53636     C
H       0.1808   0.0655   0.5217     H
H       0.1808   0.9345   0.0217     H
C       0.1822  0.04539  0.77286     C
C       0.1822  0.95461  0.27286     C
C       0.1838  0.30725  0.10976     C
C       0.1838  0.69275  0.60976     C
C       0.1856  0.14821   0.0479     C
C       0.1856  0.85179   0.5479     C
C       0.1864  0.18292  0.36462     C
C       0.1864  0.81708  0.86462     C
H       0.1879   0.1068   0.7084     H
H       0.1879   0.8932   0.2084     H
C        0.192  0.47185  0.70059     C
C        0.192  0.52815  0.20059     C
H       0.1926   0.4107   0.7683     H
H       0.1926   0.5893   0.2683     H
H       0.1968   0.1936   0.4515     H
H       0.1968   0.8064   0.9515     H
H       0.1972   0.0289   0.3289     H
H       0.1972   0.9711   0.8289     H
C       0.1995  0.21245  0.60739     C
C       0.1995  0.78755  0.10739     C
C       0.2005  0.29801  0.84918     C
C       0.2005  0.70199  0.34918     C
C       0.2026   0.0262   0.5071     C
C       0.2026   0.9738   0.0071     C
H       0.2044   0.4537   0.1475     H
H       0.2044   0.5463   0.6475     H
C       0.2059  0.34512  0.43827     C
C       0.2059  0.65488  0.93827     C
C       0.2067  0.46526  0.43487     C
C       0.2067  0.53474  0.93487     C
C       0.2086  0.08765  0.01533     C
C       0.2086  0.91235  0.51533     C
C        0.211  0.06678  0.72056     C
C        0.211  0.93322  0.22056     C
C        0.217  0.01389   0.2922     C
C        0.217  0.98611   0.7922     C
C       0.2184   0.4499  0.75568     C
C       0.2184   0.5501  0.25568     C
H       0.2216   0.4399    0.936     H
H       0.2216   0.5601    0.436     H
C       0.2248  0.46961  0.18377     C
C       0.2248  0.53039  0.68377     C
H       0.2276   0.1776   0.9303     H
H       0.2276   0.8224   0.4303     H
C       0.2328  0.40923   0.4632     C
C       0.2328  0.59077   0.9632     C
C       0.2391  0.47703   0.9561     C
C       0.2391  0.52297   0.4561     C
H       0.2472   0.3293   0.5546     H
H       0.2472   0.6707   0.0546     H
H       0.2528   0.1707   0.0546     H
H       0.2528   0.8293   0.5546     H
C       0.2609  0.02297   0.4561     C
C       0.2609  0.97703   0.9561     C
C       0.2672  0.09077   0.9632     C
C       0.2672  0.90923   0.4632     C
H       0.2724   0.3224   0.4303     H
H       0.2724   0.6776   0.9303     H
C       0.2752  0.03039  0.68377     C
C       0.2752  0.96961  0.18377     C
H       0.2784   0.0601    0.436     H
H       0.2784   0.9399    0.936     H
C       0.2816   0.0501  0.25568     C
C       0.2816   0.9499  0.75568     C
C        0.283  0.48611   0.7922     C
C        0.283  0.51389   0.2922     C
C        0.289  0.43322  0.22056     C
C        0.289  0.56678  0.72056     C
C       0.2914  0.41235  0.51533     C
C       0.2914  0.58765  0.01533     C
C       0.2933  0.03474  0.93487     C
C       0.2933  0.96526  0.43487     C
C       0.2941  0.15488  0.93827     C
C       0.2941  0.84512  0.43827     C
H       0.2956   0.0463   0.6475     H
H       0.2956   0.9537   0.1475     H
C       0.2974   0.4738   0.0071     C
C       0.2974   0.5262   0.5071     C
C       0.2995  0.20199  0.34918     C
C       0.2995  0.79801  0.84918     C
C       0.3005  0.28755  0.10739     C
C       0.3005  0.71245  0.60739     C
H       0.3028   0.4711   0.8289     H
H       0.3028   0.5289   0.3289     H
H       0.3032   0.3064   0.9515     H
H       0.3032   0.6936   0.4515     H
H       0.3074   0.0893   0.2683     H
H       0.3074   0.9107   0.7683     H
C        0.308  0.02815  0.20059     C
C        0.308  0.97185  0.70059     C
H       0.3121   0.3932   0.2084     H
H       0.3121   0.6068   0.7084     H
C       0.3136  0.31708  0.86462     C
C       0.3136  0.68292  0.36462     C
C       0.3144  0.35179   0.5479     C
C       0.3144  0.64821   0.0479     C
C       0.3162  0.19275  0.60976     C
C       0.3162  0.80725  0.10976     C
C       0.3178  0.45461  0.27286     C
C       0.3178  0.54539  0.77286     C
H       0.3192   0.4345   0.0217     H
H       0.3192   0.5655   0.5217     H
C       0.3233  0.47109  0.53636     C
C       0.3233  0.52891  0.03636     C
O       0.3279   0.2005  0.29751     O
O       0.3279   0.7995  0.79751     O
H       0.3286   0.1693   0.5251     H
H       0.3286   0.8307   0.0251     H
H       0.3336   0.0364   0.9006     H
H       0.3336   0.9636   0.4006     H
H       0.3342   0.1791   0.9671     H
H       0.3342   0.8209   0.4671     H
H       0.3347   0.1563   0.1936     H
H       0.3347   0.8437   0.6936     H
H       0.3426   0.2087   0.6954     H
H       0.3426   0.7913   0.1954     H
O       0.3442  0.27182  0.15576     O
O       0.3442  0.72818  0.65576     O
O      0.34934    0.287  0.06005     O
O      0.34934    0.713  0.56005     O
C       0.3504  0.31719  0.92151     C
C       0.3504  0.68281  0.42151     C
O       0.3563  0.15105  0.88554     O
O       0.3563  0.84895  0.38554     O
H       0.3585   0.3267   0.2852     H
H       0.3585   0.6733   0.7852     H
H       0.3601   0.3248   0.5241     H
H       0.3601   0.6752   0.0241     H
O      0.36053  0.22027  0.39069     O
O      0.36053  0.77973  0.89069     O
H       0.3627    0.335    0.782     H
H       0.3627    0.665    0.282     H
H       0.3629   0.4734   0.5708     H
H       0.3629   0.5266   0.0708     H
O      0.36638   0.3632  0.60289     O
O      0.36638   0.6368  0.10289     O
C       0.3677  0.17259  0.55969     C
C       0.3677  0.82741  0.05969     C
N       0.3725  0.06815  0.16455     N
N       0.3725  0.93185  0.66455     N
C       0.3759  0.19597  0.66089     C
C       0.3759  0.80403  0.16089     C
C       0.3768  0.13202  0.16834     C
C       0.3768  0.86798  0.66834     C
N       0.3834  0.41753  0.31124     N
N       0.3834  0.58247  0.81124     N
C       0.3857  0.33437  0.82073     C
C       0.3857  0.66563  0.32073     C
C       0.3933  0.35373  0.31134     C
C       0.3933  0.64627  0.81134     C
C       0.4453  0.05071  0.12203     C
C       0.4453  0.94929  0.62203     C
C       0.4455  0.43948   0.3567     C
C       0.4455  0.56052   0.8567     C
N        0.448  0.15572  0.13183     N
N        0.448  0.84428  0.63183     N
H       0.4545   0.4817   0.3679     H
H       0.4545   0.5183   0.8679     H
C       0.4558  0.33305  0.93494     C
C       0.4558  0.66695  0.43494     C
H       0.4564   0.1074   0.4265     H
H       0.4564   0.8926   0.9265     H
N       0.4581   0.3346  0.35287     N
N       0.4581   0.6654  0.85287     N
H       0.4601   0.0096   0.1093     H
H       0.4601   0.9904   0.6093     H
H       0.4628    0.389    0.086     H
H       0.4628    0.611    0.586     H
H       0.4637   0.3625   0.6961     H
H       0.4637   0.6375   0.1961     H
C       0.4649  0.16212  0.88924     C
C       0.4649  0.83788  0.38924     C
C       0.4732  0.34898  0.60947     C
C       0.4732  0.65102  0.10947     C
C       0.4765    0.157  0.55949     C
C       0.4765    0.843  0.05949     C
H       0.4776   0.1825   0.8039     H
H       0.4776   0.8175   0.3039     H
H       0.4789    0.333   0.9736     H
H       0.4789    0.667   0.4736     H
C       0.4838   0.1805  0.66128     C
C       0.4838   0.8195  0.16128     C
C       0.4898   0.3504  0.83383     C
C       0.4898   0.6496  0.33383     C
H       0.4903   0.1433   0.9747     H
H       0.4903   0.8567   0.4747     H
C        0.491  0.38822  0.38196     C
C        0.491  0.61178  0.88196     C
C       0.4911  0.10493  0.10244     C
C       0.4911  0.89507  0.60244     C
Cu     0.49392 0.245876 0.135542    Cu
Cu     0.49392 0.754124 0.635542    Cu
Cu     0.50608 0.245876 0.364458    Cu
Cu     0.50608 0.754124 0.864458    Cu
C       0.5089  0.10493  0.39756     C
C       0.5089  0.89507  0.89756     C
C        0.509  0.38822  0.11804     C
C        0.509  0.61178  0.61804     C
H       0.5097   0.1433   0.5253     H
H       0.5097   0.8567   0.0253     H
C       0.5102   0.3504  0.66617     C
C       0.5102   0.6496  0.16617     C
C       0.5162   0.1805  0.83872     C
C       0.5162   0.8195  0.33872     C
H       0.5211    0.333   0.5264     H
H       0.5211    0.667   0.0264     H
H       0.5224   0.1825   0.6961     H
H       0.5224   0.8175   0.1961     H
C       0.5235    0.157  0.94051     C
C       0.5235    0.843  0.44051     C
C       0.5268  0.34898  0.89053     C
C       0.5268  0.65102  0.39053     C
C       0.5351  0.16212  0.61076     C
C       0.5351  0.83788  0.11076     C
H       0.5363   0.3625   0.8039     H
H       0.5363   0.6375   0.3039     H
H       0.5372    0.389    0.414     H
H       0.5372    0.611    0.914     H
H       0.5399   0.0096   0.3907     H
H       0.5399   0.9904   0.8907     H
N       0.5419   0.3346  0.14713     N
N       0.5419   0.6654  0.64713     N
H       0.5436   0.1074   0.0735     H
H       0.5436   0.8926   0.5735     H
C       0.5442  0.33305  0.56506     C
C       0.5442  0.66695  0.06506     C
H       0.5455   0.4817   0.1321     H
H       0.5455   0.5183   0.6321     H
N        0.552  0.15572  0.36817     N
N        0.552  0.84428  0.86817     N
C       0.5545  0.43948   0.1433     C
C       0.5545  0.56052   0.6433     C
C       0.5547  0.05071  0.37797     C
C       0.5547  0.94929  0.87797     C
C       0.6067  0.35373  0.18866     C
C       0.6067  0.64627  0.68866     C
C       0.6143  0.33437  0.67927     C
C       0.6143  0.66563  0.17927     C
N       0.6166  0.41753  0.18876     N
N       0.6166  0.58247  0.68876     N
C       0.6232  0.13202  0.33166     C
C       0.6232  0.86798  0.83166     C
C       0.6241  0.19597  0.83911     C
C       0.6241  0.80403  0.33911     C
N       0.6275  0.06815  0.33545     N
N       0.6275  0.93185  0.83545     N
C       0.6323  0.17259  0.94031     C
C       0.6323  0.82741  0.44031     C
O      0.63362   0.3632  0.89711     O
O      0.63362   0.6368  0.39711     O
H       0.6371   0.4734   0.9292     H
H       0.6371   0.5266   0.4292     H
H       0.6373    0.335    0.718     H
H       0.6373    0.665    0.218     H
O      0.63947  0.22027  0.10931     O
O      0.63947  0.77973  0.60931     O
H       0.6399   0.3248   0.9759     H
H       0.6399   0.6752   0.4759     H
H       0.6415   0.3267   0.2148     H
H       0.6415   0.6733   0.7148     H
O       0.6437  0.15105  0.61446     O
O       0.6437  0.84895  0.11446     O
C       0.6496  0.31719  0.57849     C
C       0.6496  0.68281  0.07849     C
O      0.65066    0.287  0.43995     O
O      0.65066    0.713  0.93995     O
O       0.6558  0.27182  0.34424     O
O       0.6558  0.72818  0.84424     O
H       0.6574   0.2087   0.8046     H
H       0.6574   0.7913   0.3046     H
H       0.6653   0.1563   0.3064     H
H       0.6653   0.8437   0.8064     H
H       0.6658   0.1791   0.5329     H
H       0.6658   0.8209   0.0329     H
H       0.6664   0.0364   0.5994     H
H       0.6664   0.9636   0.0994     H
H       0.6714   0.1693   0.9749     H
H       0.6714   0.8307   0.4749     H
O       0.6721   0.2005  0.20249     O
O       0.6721   0.7995  0.70249     O
C       0.6767  0.47109  0.96364     C
C       0.6767  0.52891  0.46364     C
H       0.6808   0.4345   0.4783     H
H       0.6808   0.5655   0.9783     H
C       0.6822  0.45461  0.22714     C
C       0.6822  0.54539  0.72714     C
C       0.6838  0.19275  0.89024     C
C       0.6838  0.80725  0.39024     C
C       0.6856  0.35179   0.9521     C
C       0.6856  0.64821   0.4521     C
C       0.6864  0.31708  0.63538     C
C       0.6864  0.68292  0.13538     C
H       0.6879   0.3932   0.2916     H
H       0.6879   0.6068   0.7916     H
C        0.692  0.02815  0.29941     C
C        0.692  0.97185  0.79941     C
H       0.6926   0.0893   0.2317     H
H       0.6926   0.9107   0.7317     H
H       0.6968   0.3064   0.5485     H
H       0.6968   0.6936   0.0485     H
H       0.6972   0.4711   0.6711     H
H       0.6972   0.5289   0.1711     H
C       0.6995  0.28755  0.39261     C
C       0.6995  0.71245  0.89261     C
C       0.7005  0.20199  0.15082     C
C       0.7005  0.79801  0.65082     C
C       0.7026   0.4738   0.4929     C
C       0.7026   0.5262   0.9929     C
H       0.7044   0.0463   0.8525     H
H       0.7044   0.9537   0.3525     H
C       0.7059  0.15488  0.56173     C
C       0.7059  0.84512  0.06173     C
C       0.7067  0.03474  0.56513     C
C       0.7067  0.96526  0.06513     C
C       0.7086  0.41235  0.98467     C
C       0.7086  0.58765  0.48467     C
C        0.711  0.43322  0.27944     C
C        0.711  0.56678  0.77944     C
C        0.717  0.48611   0.7078     C
C        0.717  0.51389   0.2078     C
C       0.7184   0.0501  0.24432     C
C       0.7184   0.9499  0.74432     C
H       0.7216   0.0601    0.064     H
H       0.7216   0.9399    0.564     H
C       0.7248  0.03039  0.81623     C
C       0.7248  0.96961  0.31623     C
H       0.7276   0.3224   0.0697     H
H       0.7276   0.6776   0.5697     H
C       0.7328  0.09077   0.5368     C
C       0.7328  0.90923   0.0368     C
C       0.7391  0.02297   0.0439     C
C       0.7391  0.97703   0.5439     C
H       0.7472   0.1707   0.4454     H
H       0.7472   0.8293   0.9454     H
H       0.7528   0.3293   0.9454     H
H       0.7528   0.6707   0.4454     H
C       0.7609  0.47703   0.5439     C
C       0.7609  0.52297   0.0439     C
C       0.7672  0.40923   0.0368     C
C       0.7672  0.59077   0.5368     C
H       0.7724   0.1776   0.5697     H
H       0.7724   0.8224   0.0697     H
C       0.7752  0.46961  0.31623     C
C       0.7752  0.53039  0.81623     C
H       0.7784   0.4399    0.564     H
H       0.7784   0.5601    0.064     H
C       0.7816   0.4499  0.74432     C
C       0.7816   0.5501  0.24432     C
C        0.783  0.01389   0.2078     C
C        0.783  0.98611   0.7078     C
C        0.789  0.06678  0.77944     C
C        0.789  0.93322  0.27944     C
C       0.7914  0.08765  0.48467     C
C       0.7914  0.91235  0.98467     C
C       0.7933  0.46526  0.06513     C
C       0.7933  0.53474  0.56513     C
C       0.7941  0.34512  0.06173     C
C       0.7941  0.65488  0.56173     C
H       0.7956   0.4537   0.3525     H
H       0.7956   0.5463   0.8525     H
C       0.7974   0.0262   0.9929     C
C       0.7974   0.9738   0.4929     C
C       0.7995  0.29801  0.65082     C
C       0.7995  0.70199  0.15082     C
C       0.8005  0.21245  0.89261     C
C       0.8005  0.78755  0.39261     C
H       0.8028   0.0289   0.1711     H
H       0.8028   0.9711   0.6711     H
H       0.8032   0.1936   0.0485     H
H       0.8032   0.8064   0.5485     H
H       0.8074   0.4107   0.7317     H
H       0.8074   0.5893   0.2317     H
C        0.808  0.47185  0.79941     C
C        0.808  0.52815  0.29941     C
H       0.8121   0.1068   0.7916     H
H       0.8121   0.8932   0.2916     H
C       0.8136  0.18292  0.13538     C
C       0.8136  0.81708  0.63538     C
C       0.8144  0.14821   0.4521     C
C       0.8144  0.85179   0.9521     C
C       0.8162  0.30725  0.39024     C
C       0.8162  0.69275  0.89024     C
C       0.8178  0.04539  0.72714     C
C       0.8178  0.95461  0.22714     C
H       0.8192   0.0655   0.9783     H
H       0.8192   0.9345   0.4783     H
C       0.8233  0.02891  0.46364     C
C       0.8233  0.97109  0.96364     C
O       0.8279   0.2995  0.70249     O
O       0.8279   0.7005  0.20249     O
H       0.8286   0.3307   0.4749     H
H       0.8286   0.6693   0.9749     H
H       0.8336   0.4636   0.0994     H
H       0.8336   0.5364   0.5994     H
H       0.8342   0.3209   0.0329     H
H       0.8342   0.6791   0.5329     H
H       0.8347   0.3437   0.8064     H
H       0.8347   0.6563   0.3064     H
H       0.8426   0.2913   0.3046     H
H       0.8426   0.7087   0.8046     H
O       0.8442  0.22818  0.84424     O
O       0.8442  0.77182  0.34424     O
O      0.84934    0.213  0.93995     O
O      0.84934    0.787  0.43995     O
C       0.8504  0.18281  0.07849     C
C       0.8504  0.81719  0.57849     C
O       0.8563  0.34895  0.11446     O
O       0.8563  0.65105  0.61446     O
H       0.8585   0.1733   0.7148     H
H       0.8585   0.8267   0.2148     H
H       0.8601   0.1752   0.4759     H
H       0.8601   0.8248   0.9759     H
O      0.86053  0.27973  0.60931     O
O      0.86053  0.72027  0.10931     O
H       0.8627    0.165    0.218     H
H       0.8627    0.835    0.718     H
H       0.8629   0.0266   0.4292     H
H       0.8629   0.9734   0.9292     H
O      0.86638   0.1368  0.39711     O
O      0.86638   0.8632  0.89711     O
C       0.8677  0.32741  0.44031     C
C       0.8677  0.67259  0.94031     C
N       0.8725  0.43185  0.83545     N
N       0.8725  0.56815  0.33545     N
C       0.8759  0.30403  0.33911     C
C       0.8759  0.69597  0.83911     C
C       0.8768  0.36798  0.83166     C
C       0.8768  0.63202  0.33166     C
N       0.8834  0.08247  0.68876     N
N       0.8834  0.91753  0.18876     N
C       0.8857  0.16563  0.17927     C
C       0.8857  0.83437  0.67927     C
C       0.8933  0.14627  0.68866     C
C       0.8933  0.85373  0.18866     C
C       0.9453  0.44929  0.87797     C
C       0.9453  0.55071  0.37797     C
C       0.9455  0.06052   0.6433     C
C       0.9455  0.93948   0.1433     C
N        0.948  0.34428  0.86817     N
N        0.948  0.65572  0.36817     N
H       0.9545   0.0183   0.6321     H
H       0.9545   0.9817   0.1321     H
C       0.9558  0.16695  0.06506     C
C       0.9558  0.83305  0.56506     C
H       0.9564   0.3926   0.5735     H
H       0.9564   0.6074   0.0735     H
N       0.9581   0.1654  0.64713     N
N       0.9581   0.8346  0.14713     N
H       0.9601   0.4904   0.8907     H
H       0.9601   0.5096   0.3907     H
H       0.9628    0.111    0.914     H
H       0.9628    0.889    0.414     H
H       0.9637   0.1375   0.3039     H
H       0.9637   0.8625   0.8039     H
C       0.9649  0.33788  0.11076     C
C       0.9649  0.66212  0.61076     C
C       0.9732  0.15102  0.39053     C
C       0.9732  0.84898  0.89053     C
C       0.9765    0.343  0.44051     C
C       0.9765    0.657  0.94051     C
H       0.9776   0.3175   0.1961     H
H       0.9776   0.6825   0.6961     H
H       0.9789    0.167   0.0264     H
H       0.9789    0.833   0.5264     H
C       0.9838   0.3195  0.33872     C
C       0.9838   0.6805  0.83872     C
C       0.9898   0.1496  0.16617     C
C       0.9898   0.8504  0.66617     C
H       0.9903   0.3567   0.0253     H
H       0.9903   0.6433   0.5253     H
C        0.991  0.11178  0.61804     C
C        0.991  0.88822  0.11804     C
C       0.9911  0.39507  0.89756     C
C       0.9911  0.60493  0.39756     C
Cu     0.99392 0.254124 0.864458    Cu
Cu     0.99392 0.745876 0.364458    Cu
