data_I
_chemical_name_common  '/Users/gianmarcoterrones/Research/MOFs/MOF_structures/water_stability_work_extra_structs/cleaned_from_CCDC/VOFSUG'
_cell_length_a 13.97420
_cell_length_b 14.07790
_cell_length_c 15.77920
_cell_angle_alpha 90.00000
_cell_angle_beta  90.00000
_cell_angle_gamma 116.13200
_space_group_name_H-M_alt      'P 1'


loop_
_space_group_symop_operation_xyz
  'x, y, z' 

loop_
_atom_site_label
_atom_site_fract_x
_atom_site_fract_y
_atom_site_fract_z
_atom_site_type_symbol
H       0.0023   0.0784   0.5856     H
H       0.0023   0.5784   0.9144     H
O       0.0027   0.3836   0.7529     O
O       0.0027   0.8836   0.7471     O
C       0.0032   0.2031   0.9278     C
C       0.0032   0.7031   0.5722     C
C       0.0132   0.4465   0.8102     C
C       0.0132   0.9465   0.6898     C
C       0.0157   0.0483   0.9708     C
C       0.0157   0.5483   0.5292     C
C       0.0263   0.3833   0.4826     C
C       0.0263   0.8833   0.0174     C
H       0.0274   0.2507   0.4359     H
H       0.0274   0.7507   0.0641     H
C       0.0523   0.4379   0.1249     C
C       0.0523   0.9379   0.3751     C
C       0.0599   0.0032   0.3164     C
C       0.0599   0.5032   0.1836     C
N       0.0722   0.2229   0.8649     N
N       0.0722   0.7229   0.6351     N
H       0.0742   0.3932   0.5265     H
H       0.0742   0.8932   0.9735     H
O       0.0753   0.4563   0.8654     O
O       0.0753   0.9563   0.6346     O
C       0.0844   0.0655   0.9059     C
C       0.0844   0.5655   0.5941     C
H       0.1121   0.0175   0.8952     H
H       0.1121   0.5175   0.6048     H
C       0.1138   0.1548   0.8552     C
C       0.1138   0.6548   0.6448     C
H       0.1144   0.3491   0.0671     H
H       0.1144   0.8491   0.4329     H
C       0.1191   0.3893   0.1151     C
C       0.1191   0.8893   0.3849     C
C        0.134   0.0182    0.258     C
C        0.134   0.5182    0.242     C
Zn     0.13509  0.36119  0.79334    Zn
Zn     0.13509  0.86119  0.70666    Zn
H       0.1436   0.0651   0.2136     H
H       0.1436   0.5651   0.2864     H
H       0.1572   0.1935   0.1538     H
H       0.1572   0.6935   0.3462     H
H       0.1643   0.1673   0.8129     H
H       0.1643   0.6673   0.6871     H
O        0.175   0.2994   0.6946     O
O        0.175   0.7994   0.8054     O
H         0.18   0.1969   0.5688     H
H         0.18   0.6969   0.9312     H
C       0.1897    0.401   0.1754     C
C       0.1897    0.901   0.3246     C
H       0.1948   0.2547   0.0666     H
H       0.1948   0.7547   0.4334     H
C       0.1979   0.4645   0.2378     C
C       0.1979   0.9645   0.2622     C
C       0.2164    0.248   0.1239     C
C       0.2164    0.748   0.3761     C
C       0.2232   0.3737   0.6476     C
C       0.2232   0.8737   0.8524     C
C       0.2276   0.2511   0.5348     C
C       0.2276   0.7511   0.9652     C
H       0.2285   0.2462   0.2038     H
H       0.2285   0.7462   0.2962     H
H       0.2321   0.2719   0.1082     H
H       0.2321   0.7719   0.3918     H
H       0.2339   0.1538   0.4405     H
H       0.2339   0.6538   0.0595     H
H       0.2391   0.0071   0.5608     H
H       0.2391   0.5071   0.9392     H
H       0.2414   0.1946   0.2792     H
H       0.2414   0.6946   0.2208     H
O       0.2472   0.4677    0.664     O
O       0.2472   0.9677    0.836     O
H       0.2473   0.4745   0.2806     H
H       0.2473   0.9745   0.2194     H
C       0.2593   0.2237   0.4583     C
C       0.2593   0.7237   0.0417     C
C       0.2616    0.351   0.5622     C
C       0.2616    0.851   0.9378     C
O       0.2635   0.3612   0.1745     O
O       0.2635   0.8612   0.3255     O
C       0.2707   0.2968    0.161     C
C       0.2707   0.7968    0.339     C
N       0.2789   0.4275   0.8623     N
N       0.2789   0.9275   0.6377     N
C       0.2908   0.4843   0.9274     C
C       0.2908   0.9843   0.5726     C
H       0.3074   0.1362   0.3112     H
H       0.3074   0.6362   0.1888     H
C        0.312   0.2299   0.1254     C
C        0.312   0.7299   0.3746     C
C        0.313    0.201   0.2854     C
C        0.313    0.701   0.2146     C
H       0.3145   0.2418   0.9976     H
H       0.3145   0.7418   0.5024     H
H       0.3248   0.2117   0.0355     H
H       0.3248   0.7117   0.4645     H
C       0.3312   0.4306   0.5121     C
C       0.3312   0.9306   0.9879     C
C       0.3314   0.3082   0.4103     C
C       0.3314   0.8082   0.0897     C
C        0.349   0.2294   0.0437     C
C        0.349   0.7294   0.4563     C
H       0.3523   0.3619   0.7981     H
H       0.3523   0.8619   0.7019     H
H       0.3537   0.0004   0.9708     H
H       0.3537   0.5004   0.5292     H
C       0.3571   0.4019   0.8462     C
C       0.3571   0.9019   0.6538     C
C       0.3636   0.2115   0.1943     C
C       0.3636   0.7115   0.3057     C
O       0.3669   0.2813   0.3383     O
O       0.3669   0.7813   0.1617     O
C       0.3678   0.2791   0.1511     C
C       0.3678   0.7791   0.3489     C
C       0.3683   0.4109   0.4384     C
C       0.3683   0.9109   0.0616     C
C       0.3774   0.0144   0.5177     C
C       0.3774   0.5144   0.9823     C
H       0.3803    0.055   0.4704     H
H       0.3803    0.555   0.0296     H
H       0.4023    0.283   0.6217     H
H       0.4023    0.783   0.8783     H
H        0.414   0.4091   0.2815     H
H        0.414   0.9091   0.2185     H
H       0.4169   0.2001   0.7448     H
H       0.4169   0.7001   0.7552     H
H       0.4184   0.4663   0.4069     H
H       0.4184   0.9663   0.0931     H
C       0.4363    0.354   0.2926     C
C       0.4363    0.854   0.2074     C
C       0.4375   0.2104   0.0309     C
C       0.4375   0.7104   0.4691     C
C       0.4452   0.3055   0.2139     C
C       0.4452   0.8055   0.2861     C
C       0.4461   0.4315   0.8977     C
C       0.4461   0.9315   0.6023     C
H       0.4518   0.3207   0.5912     H
H       0.4518   0.8207   0.9088     H
C        0.452   0.1925   0.1815     C
C        0.452   0.6925   0.3185     C
C       0.4552   0.4875   0.9697     C
C       0.4552   0.9875   0.5303     C
C       0.4599   0.2674   0.6291     C
C       0.4599   0.7674   0.8709     C
H       0.4622   0.2101   0.9762     H
H       0.4622   0.7101   0.5238     H
H       0.4685    0.173   0.0171     H
H       0.4685    0.673   0.4829     H
C       0.4687   0.2178   0.7028     C
C       0.4687   0.7178   0.7972     C
H       0.4865   0.1802   0.2275     H
H       0.4865   0.6802   0.2725     H
C        0.489    0.192   0.0998     C
C        0.489    0.692   0.4002     C
H       0.4955   0.1146   0.8215     H
H       0.4955   0.6146   0.6785     H
H          0.5    0.087   0.3826     H
H          0.5    0.413   0.8826     H
H          0.5    0.587   0.1174     H
H          0.5    0.913   0.6174     H
H       0.5045   0.3854   0.3215     H
H       0.5045   0.8854   0.1785     H
C        0.511    0.308   0.5998     C
C        0.511    0.808   0.9002     C
H       0.5135   0.3198   0.7275     H
H       0.5135   0.8198   0.7725     H
C       0.5313   0.2822   0.2028     C
C       0.5313   0.7822   0.2972     C
H       0.5315    0.327   0.5171     H
H       0.5315    0.827   0.9829     H
H       0.5378   0.2899   0.4762     H
H       0.5378   0.7899   0.0238     H
C       0.5401   0.2326   0.1291     C
C       0.5401   0.7326   0.3709     C
C       0.5448   0.0125   0.4697     C
C       0.5448   0.5125   0.0303     C
C        0.548   0.3075   0.6815     C
C        0.548   0.8075   0.8185     C
H       0.5482   0.1793   0.0912     H
H       0.5482   0.6793   0.4088     H
C       0.5539   0.0685   0.3977     C
C       0.5539   0.5685   0.1023     C
C       0.5548   0.1945   0.7139     C
C       0.5548   0.6945   0.7861     C
C       0.5625   0.2896   0.5309     C
C       0.5625   0.7896   0.9691     C
C       0.5637    0.146   0.7926     C
C       0.5637    0.646   0.7074     C
H       0.5816   0.0337   0.9069     H
H       0.5816   0.5337   0.5931     H
H       0.5831   0.2999   0.2448     H
H       0.5831   0.7999   0.2552     H
H        0.586   0.0909   0.7815     H
H        0.586   0.5909   0.7185     H
H       0.5977    0.217   0.1217     H
H       0.5977    0.717   0.3783     H
H       0.6197    0.445   0.9704     H
H       0.6197    0.945   0.5296     H
C       0.6226   0.4856   0.0177     C
C       0.6226   0.9856   0.4823     C
C       0.6234   0.2706   0.5774     C
C       0.6234   0.7706   0.9226     C
C       0.6317   0.0891   0.9384     C
C       0.6317   0.5891   0.5616     C
C       0.6322   0.2209   0.6511     C
C       0.6322   0.7209   0.8489     C
O       0.6331   0.2187   0.8383     O
O       0.6331   0.7187   0.6617     O
C       0.6364   0.2885   0.6943     C
C       0.6364   0.7885   0.8057     C
C       0.6429   0.0981   0.3462     C
C       0.6429   0.5981   0.1538     C
H       0.6463   0.4996   0.4708     H
H       0.6463   0.9996   0.0292     H
H       0.6477   0.1381   0.2981     H
H       0.6477   0.6381   0.2019     H
C       0.6686   0.1918   0.9103     C
C       0.6686   0.6918   0.5897     C
C       0.6688   0.0694   0.0121     C
C       0.6688   0.5694   0.4879     C
H       0.6752   0.2883   0.5355     H
H       0.6752   0.7883   0.9645     H
C        0.687    0.299   0.7854     C
C        0.687    0.799   0.7146     C
C        0.688   0.2701   0.6254     C
C        0.688   0.7701   0.8746     C
H       0.6926   0.3638   0.8112     H
H       0.6926   0.8638   0.6888     H
C       0.7092   0.0157   0.4274     C
C       0.7092   0.5157   0.0726     C
N       0.7211   0.0725   0.3623     N
N       0.7211   0.5725   0.1377     N
C       0.7293   0.2032    0.661     C
C       0.7293   0.7032    0.839     C
O       0.7365   0.1388   0.6745     O
O       0.7365   0.6388   0.8255     O
C       0.7384    0.149   0.0622     C
C       0.7384    0.649   0.4378     C
C       0.7407   0.2763   0.9583     C
C       0.7407   0.7763   0.5417     C
H       0.7527   0.0255   0.7806     H
H       0.7527   0.5255   0.7194     H
O       0.7528   0.0323    0.164     O
O       0.7528   0.5323    0.336     O
H       0.7586   0.3054   0.7792     H
H       0.7586   0.8054   0.7208     H
H       0.7609   0.4929   0.0608     H
H       0.7609   0.9929   0.4392     H
H       0.7661   0.3462   0.9405     H
H       0.7661   0.8462   0.5595     H
H       0.7679   0.2281   0.6082     H
H       0.7679   0.7281   0.8918     H
H       0.7715   0.2538   0.7038     H
H       0.7715   0.7538   0.7962     H
C       0.7724   0.2489   0.0348     C
C       0.7724   0.7489   0.4652     C
C       0.7768   0.1263   0.1476     C
C       0.7768   0.6263   0.3524     C
C       0.7836    0.252   0.6239     C
C       0.7836    0.752   0.8761     C
C       0.8021   0.0355   0.7378     C
C       0.8021   0.5355   0.7622     C
H       0.8052   0.2453   0.5666     H
H       0.8052   0.7453   0.9334     H
C       0.8103    0.099   0.6754     C
C       0.8103    0.599   0.8246     C
H         0.82   0.3031   0.0688     H
H         0.82   0.8031   0.4312     H
O        0.825   0.2006   0.1946     O
O        0.825   0.7006   0.3054     O
H       0.8357   0.3327   0.3129     H
H       0.8357   0.8327   0.1871     H
H       0.8428   0.3065   0.6538     H
H       0.8428   0.8065   0.8462     H
H       0.8564   0.4349   0.7136     H
H       0.8564   0.9349   0.7864     H
Zn     0.86491  0.13881  0.29334    Zn
Zn     0.86491  0.63881  0.20666    Zn
C        0.866   0.4818    0.758     C
C        0.866   0.9818    0.742     C
C       0.8809   0.1107   0.6151     C
C       0.8809   0.6107   0.8849     C
H       0.8856   0.1509   0.5671     H
H       0.8856   0.6509   0.9329     H
C       0.8862   0.3452   0.3552     C
C       0.8862   0.8452   0.1448     C
H       0.8879   0.4825   0.3952     H
H       0.8879   0.9825   0.1048     H
C       0.9156   0.4345   0.4059     C
C       0.9156   0.9345   0.0941     C
O       0.9247   0.0437   0.3654     O
O       0.9247   0.5437   0.1346     O
H       0.9258   0.1068   0.0265     H
H       0.9258   0.6068   0.4735     H
N       0.9278   0.2771   0.3649     N
N       0.9278   0.7771   0.1351     N
C       0.9401   0.4968   0.8164     C
C       0.9401   0.9968   0.6836     C
C       0.9477   0.0621   0.6249     C
C       0.9477   0.5621   0.8751     C
H       0.9726   0.2493   0.9359     H
H       0.9726   0.7493   0.5641     H
C       0.9737   0.1167   0.9826     C
C       0.9737   0.6167   0.5174     C
C       0.9843   0.4517   0.4708     C
C       0.9843   0.9517   0.0292     C
C       0.9868   0.0535   0.3102     C
C       0.9868   0.5535   0.1898     C
C       0.9968   0.2969   0.4278     C
C       0.9968   0.7969   0.0722     C
O       0.9973   0.1164   0.2529     O
O       0.9973   0.6164   0.2471     O
H       0.9977   0.4216   0.0856     H
H       0.9977   0.9216   0.4144     H
