data_I
_chemical_name_common  '/Users/gianmarcoterrones/Research/MOFs/MOF_structures/water_stability_work_extra_structs/cleaned_from_CCDC/VOFSOA'
_cell_length_a 12.79700
_cell_length_b 13.47500
_cell_length_c 17.27600
_cell_angle_alpha 110.07200
_cell_angle_beta  90.00000
_cell_angle_gamma 90.00000
_space_group_name_H-M_alt      'P 1'


loop_
_space_group_symop_operation_xyz
  'x, y, z' 

loop_
_atom_site_label
_atom_site_fract_x
_atom_site_fract_y
_atom_site_fract_z
_atom_site_type_symbol
Zn         0.0      0.0      0.5    Zn
H       0.0022   0.9832   0.1714     H
O      0.00362  0.18514  0.78132     O
C       0.0043  0.57744  0.92208     C
C      0.01403  0.91683  0.89184     C
H       0.0161   0.1899   0.0527     H
O      0.02019  0.51269  0.84223     O
O      0.02611  0.16019  0.51783     O
C        0.038   0.0317   0.1539     C
H       0.0412   0.6392   0.7655     H
H       0.0453    0.237   0.4077     H
C       0.0462   0.1533  0.08402     C
C       0.0466  0.29738  0.91722     C
C       0.0569   0.6858  0.05745     C
H       0.0612    0.884   0.6244     H
O      0.06701  0.02087  0.61635     O
C       0.0716   0.3031  0.43847     C
C       0.0729   0.2345  0.82967     C
H       0.0738   0.5341   0.3109     H
C      0.07458  0.24156  0.55916     C
H        0.078   0.3569   0.3433     H
C       0.0839  0.62378   0.9776     C
C       0.0893   0.9512   0.6486     C
C       0.0897  0.32584  0.52169     C
C       0.0912   0.3747  0.39939     C
C       0.0996   0.4056  0.05369     C
H        0.101    0.685   0.2751     H
H       0.1096    0.717    0.095     H
C       0.1134   0.6475  0.76712     C
H       0.1148   0.7696    0.725     H
O      0.11521  0.25794  0.62982     O
C       0.1247   0.3435  0.97416     C
C        0.126  0.49077  0.81424     C
C        0.127  0.42611  0.56614     C
C      0.12704  0.93415  0.91253     C
H       0.1273   0.4275   0.7657     H
C      0.13041   0.4732  0.44407     C
H       0.1393   0.4442   0.6224     H
C       0.1419   0.0517  0.17362     C
Zn     0.14237  0.15231 0.684659    Zn
O      0.14499  0.96681  0.70893     O
C       0.1459   0.5238  0.32375     C
C       0.1462   0.4993  0.52818     C
H       0.1471   0.8175     0.96     H
C       0.1496   0.1692  0.10596     C
H       0.1524   0.4363   0.0912     H
H       0.1532   0.0549   0.8709     H
H       0.1536   0.6135   0.9616     H
C       0.1574   0.7261   0.7431     C
O      0.15798  0.54886   0.4113     O
N      0.15852  0.96469  0.45096     N
H       0.1643   0.4505    0.295     H
O      0.16671  0.23401   0.8057     O
H        0.167   0.4771   0.8567     H
H       0.1698   0.5665   0.5592     H
C        0.173   0.6752  0.27277     C
H        0.174    0.016   0.2046     H
H        0.174   0.0772   0.4045     H
C       0.1755  0.58083  0.79364     C
H       0.1792    0.844   0.4877     H
C       0.1816   0.8712  0.94794     C
C        0.185   0.0115  0.89578     C
H       0.1874   0.2169   0.0889     H
H       0.1944   0.3324   0.9585     H
N      0.19891  0.11977  0.15051     N
H       0.2062    0.793   0.2296     H
C       0.2105   0.0241  0.41597     C
C       0.2138   0.8882  0.46502     C
C       0.2161   0.5949  0.29665     C
C       0.2358   0.7402  0.24581     C
C       0.2642   0.7402  0.74581     C
C       0.2839   0.5949  0.79665     C
C       0.2862   0.8882  0.96502     C
C       0.2895   0.0241  0.91597     C
H       0.2938    0.793   0.7296     H
N      0.30109  0.11977  0.65051     N
H       0.3056   0.3324   0.4585     H
H       0.3126   0.2169   0.5889     H
C        0.315   0.0115  0.39578     C
C       0.3184   0.8712  0.44794     C
H       0.3208    0.844   0.9877     H
C       0.3245  0.58083  0.29364     C
H        0.326    0.016   0.7046     H
H        0.326   0.0772   0.9045     H
C        0.327   0.6752  0.77277     C
H       0.3302   0.5665   0.0592     H
H        0.333   0.4771   0.3567     H
O      0.33329  0.23401   0.3057     O
H       0.3357   0.4505    0.795     H
N      0.34148  0.96469  0.95096     N
O      0.34202  0.54886   0.9113     O
C       0.3426   0.7261   0.2431     C
H       0.3464   0.6135   0.4616     H
H       0.3468   0.0549   0.3709     H
H       0.3476   0.4363   0.5912     H
C       0.3504   0.1692  0.60596     C
H       0.3529   0.8175     0.46     H
C       0.3538   0.4993  0.02818     C
C       0.3541   0.5238  0.82375     C
O      0.35501  0.96681  0.20893     O
Zn     0.35763  0.15231 0.184659    Zn
C       0.3581   0.0517  0.67362     C
H       0.3607   0.4442   0.1224     H
C      0.36959   0.4732  0.94407     C
H       0.3727   0.4275   0.2657     H
C      0.37296  0.93415  0.41253     C
C        0.373  0.42611  0.06614     C
C        0.374  0.49077  0.31424     C
C       0.3753   0.3435  0.47416     C
O      0.38479  0.25794  0.12982     O
H       0.3852   0.7696    0.225     H
C       0.3866   0.6475  0.26712     C
H       0.3904    0.717    0.595     H
H        0.399    0.685   0.7751     H
C       0.4004   0.4056  0.55369     C
C       0.4088   0.3747  0.89939     C
C       0.4103  0.32584  0.02169     C
C       0.4107   0.9512   0.1486     C
C       0.4161  0.62378   0.4776     C
H        0.422   0.3569   0.8433     H
C      0.42542  0.24156  0.05916     C
H       0.4262   0.5341   0.8109     H
C       0.4271   0.2345  0.32967     C
C       0.4284   0.3031  0.93847     C
O      0.43299  0.02087  0.11635     O
H       0.4388    0.884   0.1244     H
C       0.4431   0.6858  0.55745     C
C       0.4534  0.29738  0.41722     C
C       0.4538   0.1533  0.58402     C
H       0.4547    0.237   0.9077     H
H       0.4588   0.6392   0.2655     H
C        0.462   0.0317   0.6539     C
O      0.47389  0.16019  0.01783     O
O      0.47981  0.51269  0.34223     O
H       0.4839   0.1899   0.5527     H
C      0.48597  0.91683  0.39184     C
C       0.4957  0.57744  0.42208     C
O      0.49638  0.18514  0.28132     O
H       0.4978   0.9832   0.6714     H
Zn         0.5      0.0      1.0    Zn
H       0.5022   0.0168   0.3286     H
O      0.50362  0.81486  0.71868     O
C       0.5043  0.42256  0.57792     C
C      0.51403  0.08317  0.60816     C
H       0.5161   0.8101   0.4473     H
O      0.52019  0.48731  0.65777     O
O      0.52611  0.83981  0.98217     O
C        0.538   0.9683   0.3461     C
H       0.5412   0.3608   0.7345     H
H       0.5453    0.763   0.0923     H
C       0.5462   0.8467  0.41598     C
C       0.5466  0.70262  0.58278     C
C       0.5569   0.3142  0.44255     C
H       0.5612    0.116   0.8756     H
O      0.56701  0.97913  0.88365     O
C       0.5716   0.6969  0.06153     C
C       0.5729   0.7655  0.67033     C
H       0.5738   0.4659   0.1891     H
C      0.57458  0.75844  0.94084     C
H        0.578   0.6431   0.1567     H
C       0.5839  0.37622   0.5224     C
C       0.5893   0.0488   0.8514     C
C       0.5897  0.67416  0.97831     C
C       0.5912   0.6253  0.10061     C
C       0.5996   0.5944  0.44631     C
H        0.601    0.315   0.2249     H
H       0.6096    0.283    0.405     H
C       0.6134   0.3525  0.73288     C
H       0.6148   0.2304    0.775     H
O      0.61521  0.74206  0.87018     O
C       0.6247   0.6565  0.52584     C
C        0.626  0.50923  0.68576     C
C        0.627  0.57389  0.93386     C
C      0.62704  0.06585  0.58747     C
H       0.6273   0.5725   0.7343     H
C      0.63041   0.5268  0.05593     C
H       0.6393   0.5558   0.8776     H
C       0.6419   0.9483  0.32638     C
Zn     0.64237  0.84769 0.815341    Zn
O      0.64499  0.03319  0.79107     O
C       0.6459   0.4762  0.17625     C
C       0.6462   0.5007  0.97182     C
H       0.6471   0.1825     0.54     H
C       0.6496   0.8308  0.39404     C
H       0.6524   0.5637   0.4088     H
H       0.6532   0.9451   0.6291     H
H       0.6536   0.3865   0.5384     H
C       0.6574   0.2739   0.7569     C
O      0.65798  0.45114   0.0887     O
N      0.65852  0.03531  0.04904     N
H       0.6643   0.5495    0.205     H
O      0.66671  0.76599   0.6943     O
H        0.667   0.5229   0.6433     H
H       0.6698   0.4335   0.9408     H
C        0.673   0.3248  0.22723     C
H        0.674   0.9228   0.0955     H
H        0.674    0.984   0.2954     H
C       0.6755  0.41917  0.70636     C
H       0.6792    0.156   0.0123     H
C       0.6816   0.1288  0.55206     C
C        0.685   0.9885  0.60422     C
H       0.6874   0.7831   0.4111     H
H       0.6944   0.6676   0.5415     H
N      0.69891  0.88023  0.34949     N
H       0.7062    0.207   0.2704     H
C       0.7105   0.9759  0.08403     C
C       0.7138   0.1118  0.03498     C
C       0.7161   0.4051  0.20335     C
C       0.7358   0.2598  0.25419     C
C       0.7642   0.2598  0.75419     C
C       0.7839   0.4051  0.70335     C
C       0.7862   0.1118  0.53498     C
C       0.7895   0.9759  0.58403     C
H       0.7938    0.207   0.7704     H
N      0.80109  0.88023  0.84949     N
H       0.8056   0.6676   0.0415     H
H       0.8126   0.7831   0.9111     H
C        0.815   0.9885  0.10422     C
C       0.8184   0.1288  0.05206     C
H       0.8208    0.156   0.5123     H
C       0.8245  0.41917  0.20636     C
H        0.826   0.9228   0.5955     H
H        0.826    0.984   0.7954     H
C        0.827   0.3248  0.72723     C
H       0.8302   0.4335   0.4408     H
H        0.833   0.5229   0.1433     H
O      0.83329  0.76599   0.1943     O
H       0.8357   0.5495    0.705     H
N      0.84148  0.03531  0.54904     N
O      0.84202  0.45114   0.5887     O
C       0.8426   0.2739   0.2569     C
H       0.8464   0.3865   0.0384     H
H       0.8468   0.9451   0.1291     H
H       0.8476   0.5637   0.9088     H
C       0.8504   0.8308  0.89404     C
H       0.8529   0.1825     0.04     H
C       0.8538   0.5007  0.47182     C
C       0.8541   0.4762  0.67625     C
O      0.85501  0.03319  0.29107     O
Zn     0.85763  0.84769 0.315341    Zn
C       0.8581   0.9483  0.82638     C
H       0.8607   0.5558   0.3776     H
C      0.86959   0.5268  0.55593     C
H       0.8727   0.5725   0.2343     H
C      0.87296  0.06585  0.08747     C
C        0.873  0.57389  0.43386     C
C        0.874  0.50923  0.18576     C
C       0.8753   0.6565  0.02584     C
O      0.88479  0.74206  0.37018     O
H       0.8852   0.2304    0.275     H
C       0.8866   0.3525  0.23288     C
H       0.8904    0.283    0.905     H
H        0.899    0.315   0.7249     H
C       0.9004   0.5944  0.94631     C
C       0.9088   0.6253  0.60061     C
C       0.9103  0.67416  0.47831     C
C       0.9107   0.0488   0.3514     C
C       0.9161  0.37622   0.0224     C
H        0.922   0.6431   0.6567     H
C      0.92542  0.75844  0.44084     C
H       0.9262   0.4659   0.6891     H
C       0.9271   0.7655  0.17033     C
C       0.9284   0.6969  0.56153     C
O      0.93299  0.97913  0.38365     O
H       0.9388    0.116   0.3756     H
C       0.9431   0.3142  0.94255     C
C       0.9534  0.70262  0.08278     C
C       0.9538   0.8467  0.91598     C
H       0.9547    0.763   0.5923     H
H       0.9588   0.3608   0.2345     H
C        0.962   0.9683   0.8461     C
O      0.97389  0.83981  0.48217     O
O      0.97981  0.48731  0.15777     O
H       0.9839   0.8101   0.9473     H
C      0.98597  0.08317  0.10816     C
C       0.9957  0.42256  0.07792     C
O      0.99638  0.81486  0.21868     O
H       0.9978   0.0168   0.8286     H
