data_I
_chemical_name_common  '/Users/gianmarcoterrones/Research/MOFs/MOF_structures/water_stability_work_extra_structs/cleaned_from_CCDC/VOPJAN'
_cell_length_a 11.15310
_cell_length_b 12.99630
_cell_length_c 13.41980
_cell_angle_alpha 75.91600
_cell_angle_beta  75.10900
_cell_angle_gamma 70.03900
_space_group_name_H-M_alt      'P 1'


loop_
_space_group_symop_operation_xyz
  'x, y, z' 

loop_
_atom_site_label
_atom_site_fract_x
_atom_site_fract_y
_atom_site_fract_z
_atom_site_type_symbol
C       0.0082   0.0533   0.4697     C
N       0.0183   0.2775   0.7123     N
C        0.019   0.6843   0.7353     C
C       0.0262    0.388   0.3097     C
C       0.0287    0.186   0.1485     C
C       0.0291   0.8965   0.1317     C
H       0.0342   0.8905   0.4861     H
H       0.0368    0.926   0.5885     H
H       0.0443    0.955   0.0795     H
O       0.0506   0.5148  0.68357     O
Co     0.05532  0.41026  0.59354    Co
C        0.069   0.2472   0.1963     C
C       0.0693   0.4944   0.0027     C
C        0.079   0.1373   0.8571     C
H       0.0793   0.4739   0.0753     H
H       0.0854   0.5657   0.9753     H
C       0.0854   0.7562   0.2774     C
H        0.089   0.1404   0.1032     H
C       0.1003   0.2238   0.7787     C
C       0.1009    0.808   0.8325     C
O       0.1135   0.5288   0.4516     O
C       0.1147   0.8412   0.1998     C
H       0.1283   0.8492    0.865     H
O       0.1371    0.349  0.33257     O
H       0.1373   0.1018   0.9022     H
H       0.1409   0.7209   0.3248     H
H        0.141    0.554    0.464     H
H       0.1471    0.128   0.3836     H
H       0.1472   0.3383    0.961     H
C       0.1477   0.0561   0.4264     C
C        0.151   0.6798   0.7144     C
H       0.1565   0.2427   0.1827     H
H       0.1569   0.5508   0.1783     H
H        0.169   0.4327   0.8664     H
C       0.1699   0.4072   0.9405     C
H       0.1737   0.2455   0.7718     H
C       0.1896   0.7404    0.765     C
H       0.1916   0.0001   0.3821     H
O       0.1931   0.1002   0.5728     O
C        0.222    0.035    0.513     C
O       0.2278   0.3182   0.5372     O
H        0.228    0.267     0.54     H
H        0.229   0.6596   0.0297     H
N       0.2294   0.8653   0.1946     N
O       0.2367   0.6397  0.54215     O
C       0.2425   0.5523   0.1643     C
C        0.251   0.6143   0.6354     C
H        0.254    0.856   0.2527     H
Co     0.26423    0.401  0.38787    Co
O       0.2732   0.9288     0.02     O
H       0.2771   0.7355   0.7534     H
C       0.2853   0.6188   0.0755     C
C       0.3052   0.3864     0.96     C
C       0.3059   0.9024   0.1055     C
H       0.3119   0.0029   0.6984     H
N       0.3197   0.9386   0.5198     N
N       0.3207   0.4892   0.2314     N
H       0.3358   0.8995    0.472     H
H       0.3418   0.4843   0.8342     H
O       0.3421   0.3278   0.0381     O
O       0.3466   0.5409    0.668     O
H       0.3644   0.5119   0.4797     H
C       0.3781   0.9378   0.6864     C
N       0.3789    0.442   0.8846     N
H       0.3881   0.2496   0.2139     H
H       0.3911   0.0757   0.9603     H
O       0.3965     0.46  0.44222     O
C       0.3984   0.8949   0.5968     C
C       0.4106   0.6263   0.0527     C
H       0.4157   0.9538   0.1711     H
N       0.4212   0.2558    0.349     N
C       0.4332   0.9037   0.1225     C
H        0.439   0.6733   0.9939     H
C       0.4422   0.2135   0.2622     C
C       0.4435   0.4927   0.2066     C
H       0.4459   0.9084   0.8191     H
C       0.4586   0.8819   0.7577     C
H       0.4648   0.4724   0.4014     H
H       0.4655   0.1054   0.0284     H
C       0.4759   0.0608   0.9767     C
H       0.4777   0.8299   0.1551     H
H       0.4864   0.2296   0.4781     H
C       0.4926   0.5603   0.1221     C
C       0.4996   0.7988   0.5825     C
H       0.4999   0.5544     0.75     H
H       0.5001   0.4456     0.25     H
C       0.5004   0.2012   0.4175     C
C       0.5074   0.4397   0.8779     C
H       0.5136   0.7704   0.5219     H
H       0.5223   0.1701   0.8449     H
C       0.5241   0.9392   0.0233     C
H       0.5345   0.8946   0.9716     H
H       0.5352   0.5276   0.5986     H
C       0.5414   0.1181   0.2423     C
H       0.5541   0.0916   0.1809     H
C       0.5565   0.5073   0.7934     C
C       0.5578   0.7865   0.7378     C
H        0.561   0.3267   0.0061     H
C       0.5668   0.0963   0.8775     C
N       0.5788   0.7442    0.651     N
H       0.5843   0.0462   0.8289     H
C       0.5894   0.3737   0.9473     C
C       0.6016   0.1051   0.4032     C
O       0.6035     0.54  0.55778     O
H       0.6089   0.9243   0.0397     H
H       0.6119   0.7504   0.7861     H
N       0.6211    0.558   0.1154     N
C       0.6219   0.0622   0.3136     C
H       0.6356   0.4881   0.5203     H
O       0.6534   0.4591    0.332     O
O       0.6579   0.6722   0.9619     O
H       0.6582   0.5157   0.1658     H
H       0.6642   0.1005    0.528     H
N       0.6793   0.5108   0.7686     N
N       0.6803   0.0614   0.4802     N
H       0.6881   0.9971   0.3016     H
C       0.6941   0.0976   0.8945     C
C       0.6948   0.6136     0.04     C
C       0.7147   0.3812   0.9245     C
H       0.7229   0.2645   0.2466     H
O       0.7268   0.0712     0.98     O
Co     0.73577    0.599  0.61213    Co
H        0.746    0.144   0.7473     H
C        0.749   0.3857   0.3646     C
C       0.7575   0.4477   0.8357     C
O       0.7633   0.3603  0.45785     O
N       0.7706   0.1347   0.8054     N
H        0.771   0.3404   0.9703     H
H        0.772    0.733     0.46     H
O       0.7722   0.6818   0.4628     O
C        0.778    0.965    0.487     C
O       0.8069   0.8998   0.4272     O
H       0.8084   0.9999   0.6179     H
C       0.8104   0.2596    0.235     C
H       0.8263   0.7545   0.2282     H
C       0.8301   0.5928   0.0595     C
H        0.831   0.5673   0.1336     H
H       0.8431   0.4492   0.8217     H
H       0.8435   0.7573   0.8173     H
C        0.849   0.3202   0.2856     C
C       0.8523   0.9439   0.5736     C
H       0.8528   0.6617    0.039     H
H       0.8529    0.872   0.6164     H
H        0.859    0.446    0.536     H
H       0.8591   0.2791   0.6752     H
H       0.8627   0.8982   0.0978     H
O       0.8629    0.651  0.66743     O
H       0.8717   0.1508    0.135     H
C       0.8853   0.1588   0.8002     C
O       0.8865   0.4712   0.5484     O
C       0.8991    0.192   0.1675     C
C       0.8997   0.7762   0.2213     C
H        0.911   0.8596   0.8968     H
C       0.9146   0.2438   0.7226     C
H       0.9146   0.4343   0.0247     H
H       0.9207   0.5261   0.9247     H
C        0.921   0.8627   0.1429     C
C       0.9307   0.5056   0.9973     C
C        0.931   0.7528   0.8037     C
Co     0.94468  0.58974  0.40646    Co
O       0.9494   0.4852  0.31643     O
H       0.9557    0.045   0.9205     H
H       0.9632    0.074   0.4115     H
H       0.9658   0.1095   0.5139     H
C       0.9709   0.1035   0.8683     C
C       0.9713    0.814   0.8515     C
C       0.9738    0.612   0.6903     C
C        0.981   0.3157   0.2647     C
N       0.9817   0.7225   0.2877     N
C       0.9918   0.9467   0.5303     C
