data_I
_chemical_name_common  '/Users/gianmarcoterrones/Research/MOFs/MOF_structures/water_stability_work_extra_structs/cleaned_from_CCDC/VOPVUT'
_cell_length_a  9.07880
_cell_length_b  9.07880
_cell_length_c 19.41581
_cell_angle_alpha 98.05425
_cell_angle_beta  99.33271
_cell_angle_gamma 110.70473
_space_group_name_H-M_alt      'P 1'


loop_
_space_group_symop_operation_xyz
  'x, y, z' 

loop_
_atom_site_label
_atom_site_fract_x
_atom_site_fract_y
_atom_site_fract_z
_atom_site_type_symbol
C        2e-05   0.9945  0.72492     C
H       0.0048   0.6078   0.3542     H
C      0.00722   0.0566  0.20482     C
C      0.00747   0.5831  0.09497     C
C      0.00791   0.4223  0.39981     C
C      0.01187   0.0875  0.59497     C
H       0.0165   0.1203   0.5518     H
C      0.02738   0.4899  0.14348     C
O      0.03675   0.2283  0.99805     O
H        0.044   0.7382    0.845     H
H        0.048   0.7787   0.5605     H
N      0.05647   0.6804  0.87527     N
C         0.06   0.4894   0.6368     C
H       0.0685   0.4647   0.9482     H
C      0.07398   0.8461  0.05688     C
Co     0.09339  0.18164  0.09551    Co
C       0.0937   0.7209   0.5866     C
C      0.10003   0.7478  0.11023     C
O      0.11091  0.00712  0.84703     O
H       0.1197   0.7257   0.9168     H
C      0.13655   0.5618  0.20935     C
O      0.13752  0.16681  0.20133     O
C      0.13757   0.9898  0.38977     C
C      0.14459     0.04  0.32539     C
H       0.1461      0.5   0.2429     H
C      0.14755   0.0728  0.70935     C
C      0.15358   0.1161  0.64348     C
O      0.16194  0.99383  0.06937     O
N       0.1773   0.4833   0.4204     N
C      0.21461   0.8192  0.17461     C
O      0.21558   0.3294  0.49878     O
C       0.2272   0.5481   0.6599     C
H       0.2281   0.5612   0.4017     H
C      0.23042   0.7249  0.22492     C
H       0.2429   0.0968   0.7429     H
H        0.244   0.0957   0.3157     H
H       0.2464   0.3494   0.8542     H
N      0.25315   0.7779  0.60945     N
O      0.26975   0.9613  0.49805     O
C       0.2702   0.4344    0.466     C
H       0.2758   0.4909   0.6849     H
H         0.28   0.9283   0.1843     H
H       0.2818   0.5125   0.0605     H
C      0.28922   0.0171  0.44312     C
N      0.30513   0.1812  0.62473     N
H        0.306   0.5909   0.8151     H
H       0.3089   0.2029   0.5832     H
C       0.3198   0.6908   0.6454     C
O      0.33062   0.7168  0.00122     O
N      0.33155   0.3563  0.10945     N
O      0.33991  0.73612  0.34703     O
H       0.3405   0.1736   0.9017     H
H       0.3479   0.0102   0.9863     H
C      0.35178   0.8024  0.29518     C
C       0.3526   0.4232   0.8632     C
C       0.3657   0.4929   0.0866     C
C       0.3882   0.5673   0.8401     C
H       0.3932    0.199    0.655     H
Co     0.41387  0.00212  0.59551    Co
O      0.42446  0.09257  0.43063     O
H       0.4255   0.9521    0.927     H
H       0.4317   0.2291   0.1608     H
H       0.4317   0.7291   0.6608     H
N       0.4371   0.2431   0.9204     N
C       0.4494   0.5234    0.473     C
C       0.4496   0.0236    0.973     C
C       0.4546   0.3256   0.1454     C
O      0.46548  0.93619  0.29867     O
C       0.4684   0.8042    0.034     C
H       0.4749   0.5015    0.427     H
H       0.4761   0.6384   0.4863     H
C      0.47751   0.3919  0.89981     C
C      0.52249   0.6081  0.10019     C
H       0.5239   0.3616   0.5137     H
H       0.5251   0.4985    0.573     H
C       0.5316   0.1958    0.966     C
O      0.53452  0.06381  0.70133     O
C       0.5454   0.6744   0.8546     C
C       0.5504   0.9764    0.027     C
C       0.5506   0.4766    0.527     C
N       0.5629   0.7569   0.0796     N
H       0.5683   0.2709   0.3392     H
H       0.5683   0.7709   0.8392     H
H       0.5745   0.0479    0.073     H
O      0.57554  0.90743  0.56937     O
Co     0.58613  0.99788  0.40449    Co
H       0.6068    0.801    0.345     H
C       0.6118   0.4327   0.1599     C
C       0.6343   0.5071   0.9134     C
C       0.6474   0.5768   0.1368     C
C      0.64822   0.1976  0.70482     C
H       0.6521   0.9898   0.0137     H
H       0.6595   0.8264   0.0983     H
O      0.66009  0.26388  0.65297     O
N      0.66845   0.6437  0.89055     N
O      0.66938   0.2832  0.99878     O
C       0.6802   0.3092   0.3546     C
H       0.6911   0.7971   0.4168     H
H        0.694   0.4091   0.1849     H
N      0.69487   0.8188  0.37527     N
C      0.71078   0.9829  0.55688     C
H       0.7182   0.4875   0.9395     H
H         0.72   0.0717   0.8157     H
H       0.7242   0.5091   0.3151     H
C       0.7298   0.5656    0.534     C
O      0.73025   0.0387  0.50195     O
N      0.74685   0.2221  0.39055     N
H       0.7536   0.6506   0.1458     H
H        0.756   0.9043   0.6843     H
H       0.7571   0.9032   0.2571     H
C      0.76958   0.2751  0.77508     C
H       0.7719   0.4388   0.5983     H
C       0.7728   0.4519   0.3401     C
O      0.78442   0.6706  0.50122     O
C      0.78539   0.1808  0.82539     C
N       0.8227   0.5167   0.5796     N
O      0.83806  0.00617  0.93063     O
C      0.84642   0.8839  0.35652     C
C      0.85245   0.9272  0.29065     C
H       0.8539      0.5   0.7571     H
C      0.85541     0.96  0.67461     C
C      0.86243   0.0102  0.61023     C
O      0.86248  0.83319  0.79867     O
C      0.86345   0.4382  0.79065     C
H       0.8803   0.2743   0.0832     H
O      0.88909  0.99288  0.15297     O
C      0.89997   0.2522  0.88977     C
C       0.9063   0.2791   0.4134     C
Co     0.90661  0.81836  0.90449    Co
C      0.92602   0.1539  0.94312     C
H       0.9315   0.5353   0.0518     H
C         0.94   0.5106   0.3632     C
N      0.94353   0.3196  0.12473     N
H        0.952   0.2213   0.4395     H
H        0.956   0.2618    0.155     H
O      0.96325   0.7717  0.00195     O
C      0.97262   0.5101  0.85652     C
H       0.9835   0.8797   0.4482     H
C      0.98813   0.9125  0.40503     C
C      0.99209   0.5777  0.60019     C
C      0.99253   0.4169  0.90503     C
C      0.99278   0.9434  0.79518     C
H       0.9952   0.3922   0.6458     H
C      0.99998   0.0055  0.27508     C
