data_I
_chemical_name_common  '/Users/gianmarcoterrones/Research/MOFs/MOF_structures/water_stability_work_extra_structs/cleaned_from_CCDC/VOPWAA'
_cell_length_a  8.55780
_cell_length_b 10.13180
_cell_length_c 11.85260
_cell_angle_alpha 69.80800
_cell_angle_beta  78.75300
_cell_angle_gamma 74.67000
_space_group_name_H-M_alt      'P 1'


loop_
_space_group_symop_operation_xyz
  'x, y, z' 

loop_
_atom_site_label
_atom_site_fract_x
_atom_site_fract_y
_atom_site_fract_z
_atom_site_type_symbol
H       0.0083   0.3884   0.8027     H
O       0.0426   0.6255   0.5931     O
C       0.0571   0.6635   0.0184     C
N       0.0663   0.2105    0.017     N
C       0.0679    0.582   0.1385     C
H       0.0728   0.6368   0.5183     H
O       0.0813    0.131   0.8582     O
H       0.1032   0.1919   0.0846     H
H       0.1217   0.6305    0.624     H
C       0.1306   0.1169   0.9526     C
O       0.1472   0.1192   0.2703     O
H       0.1586   0.3624   0.5538     H
H       0.1628   0.6683   0.8495     H
C       0.1679   0.6174   0.9311     C
O       0.1778   0.5769   0.3788     O
H       0.1815   0.2127   0.5507     H
N       0.1825   0.4631   0.1737     N
H       0.2025   0.8444   0.3165     H
Co       0.204  0.36253   0.3622    Co
N       0.2174   0.2769   0.5643     N
H       0.2448   0.9562   0.0891     H
C       0.2716    0.999   0.0028     C
C       0.2737   0.0832   0.3214     C
C       0.2869   0.4936   0.9676     C
C        0.291   0.4203   0.0889     C
H       0.2915   0.9245   0.9647     H
C       0.3089   0.8236    0.335     C
O        0.328    0.167   0.3549     O
C       0.3313   0.5669   0.3508     C
H       0.3634   0.4605   0.9106     H
H       0.3718   0.4373   0.6143     H
H        0.372   0.3379   0.1127     H
C       0.3736   0.2415   0.6039     C
C       0.3736   0.9313   0.3448     C
C       0.4042   0.6846   0.3531     C
H       0.4067   0.1269   0.0244     H
O       0.4193   0.4574   0.3264     O
C       0.4248   0.0581   0.9806     C
H       0.4293   0.0328   0.6098     H
C       0.4369   0.3462   0.6208     C
H       0.4446    0.109    0.895     H
C       0.4701   0.1032   0.6212     C
C       0.5299   0.8968   0.3788     C
H       0.5554    0.891    0.105     H
C       0.5631   0.6538   0.3792     C
H       0.5707   0.9672   0.3902     H
C       0.5752   0.9419   0.0194     C
O       0.5807   0.5426   0.6736     O
H       0.5933   0.8731   0.9756     H
C       0.5958   0.3154   0.6469     C
C       0.6264   0.0687   0.6552     C
C       0.6264   0.7585   0.3961     C
H        0.628   0.6621   0.8873     H
H       0.6282   0.5627   0.3857     H
H       0.6366   0.5395   0.0894     H
C       0.6687   0.4331   0.6492     C
O        0.672    0.833   0.6451     O
C       0.6911   0.1764    0.665     C
H       0.7085   0.0755   0.0353     H
C        0.709   0.5797   0.9111     C
C       0.7131   0.5064   0.0324     C
C       0.7263   0.9168   0.6786     C
C       0.7284    0.001   0.9972     C
H       0.7552   0.0438   0.9109     H
N       0.7826   0.7231   0.4357     N
Co       0.796  0.63747   0.6378    Co
H       0.7975   0.1556   0.6835     H
N       0.8175   0.5369   0.8263     N
H       0.8185   0.7873   0.4493     H
O       0.8222   0.4231   0.6212     O
C       0.8321   0.3826   0.0689     C
H       0.8372   0.3317   0.1505     H
H       0.8414   0.6376   0.4462     H
O       0.8528   0.8808   0.7297     O
C       0.8694   0.8831   0.0474     C
H       0.8783   0.3695    0.376     H
H       0.8968   0.8081   0.9154     H
O       0.9187    0.869   0.1418     O
H       0.9272   0.3632   0.4817     H
C       0.9321    0.418   0.8615     C
N       0.9337   0.7895    0.983     N
C       0.9429   0.3365   0.9816     C
O       0.9574   0.3745   0.4069     O
H       0.9917   0.6116   0.1973     H
