data_I
_chemical_name_common  '/Users/gianmarcoterrones/Research/MOFs/MOF_structures/water_stability_work_extra_structs/cleaned_from_CCDC/WASNUA'
_cell_length_a 10.36800
_cell_length_b 15.84500
_cell_length_c 18.37700
_cell_angle_alpha 90.00000
_cell_angle_beta  90.00000
_cell_angle_gamma 96.86000
_space_group_name_H-M_alt      'P 1'


loop_
_space_group_symop_operation_xyz
  'x, y, z' 

loop_
_atom_site_label
_atom_site_fract_x
_atom_site_fract_y
_atom_site_fract_z
_atom_site_type_symbol
C       0.0148   0.0519   0.7339     C
C       0.0148   0.5519   0.7661     C
C       0.0175   0.2288   0.2505     C
C       0.0175   0.7288   0.2495     C
C       0.0191   0.0107   0.3123     C
C       0.0191   0.5107   0.1877     C
O       0.0253   0.2644  0.31022     O
O       0.0253   0.7644  0.18978     O
H       0.0271     0.44   0.2777     H
H       0.0271     0.94   0.2223     H
C       0.0394   0.0527   0.4812     C
C       0.0394   0.5527   0.0188     C
H       0.0476    0.098    0.517     H
H       0.0476    0.598    0.983     H
H       0.0548   0.1156   0.1308     H
H       0.0548   0.6156   0.3692     H
H       0.0631   0.3839   0.9106     H
H       0.0631   0.8839   0.5894     H
N       0.0641    0.001   0.6328     N
N       0.0641    0.501   0.8672     N
C       0.0681   0.4416   0.9291     C
C       0.0681   0.9416   0.5709     C
O       0.0799  0.27281  0.70851     O
O       0.0799  0.77281  0.79149     O
H       0.0872   0.0541   0.3073     H
H       0.0872   0.5541   0.1927     H
H       0.0968   0.1278   0.9094     H
H       0.0968   0.6278   0.5906     H
N       0.1176   0.1019   0.7088     N
N       0.1176   0.6019   0.7912     N
H       0.1222   0.0486   0.4577     H
H       0.1222   0.5486   0.0423     H
C       0.1247   0.1296   0.1621     C
C       0.1247   0.6296   0.3379     C
C       0.1271   0.1836    0.223     C
C       0.1271   0.6836    0.277     C
H       0.1472   0.3699   0.1352     H
H       0.1472   0.8699   0.3648     H
C        0.148   0.0712   0.6466     C
C        0.148   0.5712   0.8534     C
H       0.1504    0.454   0.9543     H
H       0.1504    0.954   0.5457     H
H         0.16   0.2755   0.0246     H
H         0.16   0.7755   0.4754     H
H       0.1707   0.0066    0.971     H
H       0.1707   0.5066    0.529     H
C       0.1723   0.1043   0.8978     C
C       0.1723   0.6043   0.6022     C
C       0.2114   0.0375   0.9326     C
C       0.2114   0.5375   0.5674     C
Cu     0.21248  0.20553  0.75362    Cu
Cu     0.21248  0.70553  0.74638    Cu
H       0.2158   0.0936   0.6166     H
H       0.2158   0.5936   0.8834     H
C       0.2198   0.3451   0.1203     C
C       0.2198   0.8451   0.3797     C
C       0.2267   0.2914   0.0575     C
C       0.2267   0.7914   0.4425     C
H       0.2427   0.4081   0.7301     H
H       0.2427   0.9081   0.7699     H
C       0.2486   0.1006   0.1571     C
C       0.2486   0.6006   0.3429     C
N       0.2546   0.1339    0.844     N
C       0.2546   0.1882   0.2564     C
N       0.2546   0.6339    0.656     N
C       0.2546   0.6882   0.2436     C
Fe     0.26486  0.22963  0.15115    Fe
Fe     0.26486  0.72963  0.34885    Fe
H       0.2736   0.0639   0.1217     H
H       0.2736   0.5639   0.3783     H
H       0.2835   0.2191   0.2974     H
H       0.2835   0.7191   0.2026     H
C       0.2968   0.3941   0.7674     C
C       0.2968   0.8941   0.7326     C
N       0.3059   0.3117  0.79151     N
N       0.3059   0.8117  0.70849     N
N       0.3259   0.0254   0.8983     N
N       0.3259   0.5254   0.6017     N
C       0.3263   0.1356   0.2131     C
C       0.3263   0.6356   0.2869     C
C        0.341   0.3539   0.1554     C
C        0.341   0.8539   0.3446     C
C       0.3461   0.0843   0.8472     C
C       0.3461   0.5843   0.6528     C
C       0.3526   0.2674   0.0551     C
H       0.3526   0.4037   0.5847     H
C       0.3526   0.7674   0.4449     C
H       0.3526   0.9037   0.9153     H
H        0.363    0.386   0.1969     H
H        0.363    0.886   0.3031     H
O        0.374   0.2409  0.59038     O
O        0.374   0.7409  0.90962     O
C       0.3761   0.4499   0.8051     C
C       0.3761   0.9499   0.6949     C
H       0.3842    0.233     0.02     H
H       0.3842    0.733     0.48     H
H       0.3878   0.4419     0.99     H
H       0.3878   0.9419     0.51     H
H       0.3883   0.0086   0.7007     H
H       0.3883   0.5086   0.7993     H
C       0.3918   0.3216   0.8439     C
C       0.3918   0.8216   0.6561     C
O       0.3956   0.1763  0.69614     O
O       0.3956   0.6763  0.80386     O
H       0.4067   0.0221   0.3898     H
H       0.4067   0.5221   0.1102     H
C       0.4078   0.4575   0.5874     C
C       0.4078   0.9575   0.9126     C
H       0.4119   0.1262   0.2212     H
H       0.4119   0.6262   0.2788     H
H       0.4161   0.0278   0.5526     H
H       0.4161   0.5278   0.9474     H
H       0.4182   0.0897   0.8167     H
H       0.4182   0.5897   0.6833     H
H       0.4184   0.2768   0.8705     H
H       0.4184   0.7768   0.6295     H
C       0.4245   0.3049    0.116     C
C       0.4245   0.8049    0.384     C
H       0.4317   0.1076   0.4335     H
H       0.4317   0.6076   0.0665     H
N       0.4366   0.4022  0.85482     N
N       0.4366   0.9022  0.64518     N
C       0.4369   0.2047   0.6356     C
C       0.4369   0.7047   0.8644     C
H       0.4376   0.0514   0.0373     H
H       0.4376   0.5514   0.4627     H
H       0.4387   0.4244    0.492     H
H       0.4387   0.9244    0.008     H
C       0.4564    0.482   0.9697     C
C       0.4564    0.982   0.5303     C
H       0.4665   0.4543   0.6281     H
H       0.4665   0.9543   0.8719     H
C       0.4736   0.0623   0.4116     C
C       0.4736   0.5623   0.0884     C
C        0.481   0.4685   0.5234     C
C        0.481   0.9685   0.9766     C
C        0.519   0.0315   0.0234     C
C        0.519   0.5315   0.4766     C
C       0.5264   0.4377   0.9116     C
C       0.5264   0.9377   0.5884     C
H       0.5335   0.0457   0.1281     H
H       0.5335   0.5457   0.3719     H
C       0.5436    0.018   0.4697     C
C       0.5436    0.518   0.0303     C
H       0.5613   0.0756    0.992     H
H       0.5613   0.5756    0.508     H
H       0.5624   0.4486   0.5373     H
H       0.5624   0.9486   0.9627     H
C       0.5631   0.2953   0.1356     C
C       0.5631   0.7953   0.3644     C
N       0.5634   0.0978  0.35482     N
N       0.5634   0.5978  0.14518     N
H       0.5683   0.3924   0.9335     H
H       0.5683   0.8924   0.5665     H
C       0.5755   0.1951    0.616     C
C       0.5755   0.6951    0.884     C
H       0.5816   0.2232   0.3705     H
H       0.5816   0.7232   0.1295     H
H       0.5818   0.4103   0.3167     H
H       0.5818   0.9103   0.1833     H
H       0.5839   0.4722   0.0526     H
H       0.5839   0.9722   0.4474     H
H       0.5881   0.3738   0.7212     H
H       0.5881   0.8738   0.7788     H
C       0.5922   0.0425   0.0874     C
C       0.5922   0.5425   0.4126     C
H       0.5933   0.4779   0.8898     H
H       0.5933   0.9779   0.6102     H
O       0.6044   0.3237  0.19614     O
O       0.6044   0.8237  0.30386     O
C       0.6082   0.1784   0.3439     C
C       0.6082   0.6784   0.1561     C
H       0.6117   0.4914   0.2007     H
H       0.6117   0.9914   0.2993     H
H       0.6122   0.0581     0.49     H
H       0.6122   0.5581     0.01     H
H       0.6158    0.267     0.52     H
H       0.6158    0.767     0.98     H
C       0.6239   0.0501   0.3051     C
C       0.6239   0.5501   0.1949     C
O        0.626   0.2591  0.09038     O
O        0.626   0.7591  0.40962     O
H        0.637    0.114   0.6969     H
H        0.637    0.614   0.8031     H
H       0.6474   0.0963   0.0847     H
C       0.6474   0.2326   0.5551     C
H       0.6474   0.5963   0.4153     H
C       0.6474   0.7326   0.9449     C
C       0.6539   0.4157   0.3472     C
C       0.6539   0.9157   0.1528     C
C        0.659   0.1461   0.6554     C
C        0.659   0.6461   0.8446     C
C       0.6737   0.3644   0.7131     C
C       0.6737   0.8644   0.7869     C
N       0.6741   0.4746   0.3983     N
N       0.6741   0.9746   0.1017     N
N       0.6941   0.1883  0.29151     N
N       0.6941   0.6883  0.20849     N
C       0.7032   0.1059   0.2674     C
C       0.7032   0.6059   0.2326     C
H       0.7165   0.2809   0.7974     H
H       0.7165   0.7809   0.7026     H
H       0.7264   0.4361   0.6217     H
H       0.7264   0.9361   0.8783     H
Fe     0.73514  0.27037  0.65115    Fe
Fe     0.73514  0.77037  0.84885    Fe
C       0.7454   0.3118   0.7564     C
N       0.7454   0.3661    0.344     N
C       0.7454   0.8118   0.7436     C
N       0.7454   0.8661    0.156     N
C       0.7514   0.3994   0.6571     C
C       0.7514   0.8994   0.8429     C
H       0.7573   0.0919   0.2301     H
H       0.7573   0.5919   0.2699     H
C       0.7733   0.2086   0.5575     C
C       0.7733   0.7086   0.9425     C
C       0.7802   0.1549   0.6203     C
C       0.7802   0.6549   0.8797     C
H       0.7842   0.4064   0.1166     H
H       0.7842   0.9064   0.3834     H
Cu     0.78752  0.29447  0.25362    Cu
Cu     0.78752  0.79447  0.24638    Cu
C       0.7886   0.4625   0.4326     C
C       0.7886   0.9625   0.0674     C
C       0.8277   0.3957   0.3978     C
C       0.8277   0.8957   0.1022     C
H       0.8293   0.4934    0.471     H
H       0.8293   0.9934    0.029     H
H         0.84   0.2245   0.5246     H
H         0.84   0.7245   0.9754     H
H       0.8496    0.046   0.4543     H
H       0.8496    0.546   0.0457     H
C        0.852   0.4288   0.1466     C
C        0.852   0.9288   0.3534     C
H       0.8528   0.1301   0.6352     H
H       0.8528   0.6301   0.8648     H
C       0.8729   0.3164    0.723     C
C       0.8729   0.8164    0.777     C
C       0.8753   0.3704   0.6621     C
C       0.8753   0.8704   0.8379     C
H       0.8778   0.4514   0.9577     H
H       0.8778   0.9514   0.5423     H
N       0.8824   0.3981   0.2088     N
N       0.8824   0.8981   0.2912     N
H       0.9032   0.3722   0.4094     H
H       0.9032   0.8722   0.0906     H
H       0.9128   0.4459   0.8073     H
H       0.9128   0.9459   0.6927     H
O       0.9201  0.22719  0.20851     O
O       0.9201  0.72719  0.29149     O
C       0.9319   0.0584   0.4291     C
C       0.9319   0.5584   0.0709     C
N       0.9359    0.499   0.1328     N
N       0.9359    0.999   0.3672     N
H       0.9369   0.1161   0.4106     H
H       0.9369   0.6161   0.0894     H
H       0.9452   0.3844   0.6308     H
H       0.9452   0.8844   0.8692     H
H       0.9524    0.402    0.017     H
H       0.9524    0.902    0.483     H
C       0.9606   0.4473   0.9812     C
C       0.9606   0.9473   0.5188     C
H       0.9729     0.06   0.7777     H
H       0.9729     0.56   0.7223     H
O       0.9747   0.2356  0.81022     O
O       0.9747   0.7356  0.68978     O
C       0.9809   0.4893   0.8123     C
C       0.9809   0.9893   0.6877     C
C       0.9825   0.2712   0.7505     C
C       0.9825   0.7712   0.7495     C
C       0.9852   0.4481   0.2339     C
C       0.9852   0.9481   0.2661     C
