data_I
_chemical_name_common  '/Users/gianmarcoterrones/Research/MOFs/MOF_structures/water_stability_work_extra_structs/cleaned_from_CCDC/WASPAI'
_cell_length_a  9.12151
_cell_length_b  9.12151
_cell_length_c 11.43200
_cell_angle_alpha 70.58059
_cell_angle_beta  70.58059
_cell_angle_gamma 77.05181
_space_group_name_H-M_alt      'P 1'


loop_
_space_group_symop_operation_xyz
  'x, y, z' 

loop_
_atom_site_label
_atom_site_fract_x
_atom_site_fract_y
_atom_site_fract_z
_atom_site_type_symbol
C       0.0058   0.5736   0.4915     C
O      0.01068   0.1593  0.62236     O
C      0.01283  0.29705   0.6271     C
H       0.0269   0.5989   0.5562     H
O      0.03004  0.33006  0.71746     O
Cu     0.04657  0.95343     0.75    Cu
N      0.09111  0.73669  0.86481     N
H       0.0913   0.5891   0.7616     H
C      0.11776  0.59976     0.83     C
H       0.1454   0.7716   0.0085     H
C      0.14689  0.70065   0.9654     C
O       0.1593  0.01068  0.12236     O
C       0.1884   0.4834   0.9111     C
N      0.20581  0.54899  0.99729     N
H        0.219   0.3798   0.9088     H
H       0.2284   0.8546   0.4915     H
H       0.2509   0.5305   0.1628     H
H       0.2512   0.3674   0.1446     H
N      0.26331  0.90889  0.63519     N
C       0.2835   0.4707   0.1003     C
C      0.29705  0.01283   0.1271     C
C      0.29935  0.85311   0.5346     C
O      0.33006  0.03004  0.21746     O
H       0.3537   0.4835    0.533     H
H       0.3674   0.2512   0.6446     H
H       0.3798    0.219   0.4088     H
C      0.40024  0.88224     0.67     C
H       0.4011   0.9731   0.9438     H
H       0.4109   0.9087   0.7384     H
C       0.4264   0.9942   0.0085     C
H       0.4464    0.492   0.6213     H
N      0.45101  0.79419  0.50271     N
C       0.4548    0.456   0.0485     C
C        0.456   0.4548   0.5485     C
H       0.4695   0.7491   0.3372     H
C       0.4707   0.2835   0.6003     C
C       0.4834   0.1884   0.4111     C
H       0.4835   0.3537    0.033     H
H        0.492   0.4464   0.1213     H
H        0.508   0.5536   0.8787     H
H       0.5165   0.6463    0.967     H
C       0.5166   0.8116   0.5889     C
C       0.5293   0.7165   0.3997     C
H       0.5305   0.2509   0.6628     H
C        0.544   0.5452   0.4515     C
C       0.5452    0.544   0.9515     C
N      0.54899  0.20581  0.49729     N
H       0.5536    0.508   0.3787     H
C       0.5736   0.0058   0.9915     C
H       0.5891   0.0913   0.2616     H
H       0.5989   0.0269   0.0562     H
C      0.59976  0.11776     0.33     C
H       0.6202    0.781   0.5912     H
H       0.6326   0.7488   0.3554     H
H       0.6463   0.5165    0.467     H
O      0.66994  0.96996  0.78254     O
C      0.70065  0.14689   0.4654     C
C      0.70295  0.98717   0.8729     C
C       0.7165   0.5293   0.8997     C
N      0.73669  0.09111  0.36481     N
H       0.7488   0.6326   0.8554     H
H       0.7491   0.4695   0.8372     H
H       0.7716   0.1454   0.5085     H
H        0.781   0.6202   0.0912     H
N      0.79419  0.45101  0.00271     N
C       0.8116   0.5166   0.0889     C
O       0.8407  0.98932  0.87764     O
C      0.85311  0.29935   0.0346     C
H       0.8546   0.2284   0.9915     H
C      0.88224  0.40024     0.17     C
H       0.9087   0.4109   0.2384     H
N      0.90889  0.26331  0.13519     N
Cu     0.95343  0.04657     0.25    Cu
O      0.96996  0.66994  0.28254     O
H       0.9731   0.4011   0.4438     H
C      0.98717  0.70295   0.3729     C
O      0.98932   0.8407  0.37764     O
C       0.9942   0.4264   0.5085     C
