data_I
_chemical_name_common  '/Users/gianmarcoterrones/Research/MOFs/MOF_structures/water_stability_work_extra_structs/cleaned_from_CCDC/WAZPOE'
_cell_length_a 10.65800
_cell_length_b 11.65700
_cell_length_c 13.05200
_cell_angle_alpha 91.37800
_cell_angle_beta  110.04300
_cell_angle_gamma 109.78000
_space_group_name_H-M_alt      'P 1'


loop_
_space_group_symop_operation_xyz
  'x, y, z' 

loop_
_atom_site_label
_atom_site_fract_x
_atom_site_fract_y
_atom_site_fract_z
_atom_site_type_symbol
H       0.0037   0.1826   0.8034     H
H       0.0178   0.1795   0.9281     H
C       0.0462   0.8221   0.1462     C
H       0.0765   0.7524   0.1474     H
H       0.1293   0.9209   0.8786     H
O       0.1313   0.1359   0.1234     O
H        0.154    0.998    0.146     H
C       0.1549   0.0156    0.513     C
O       0.1702   0.9352   0.1796     O
H       0.1993   0.7255   0.8632     H
H       0.2214    0.731   0.5778     H
C         0.23   0.9634   0.9245     C
H       0.2437   0.9577   0.0013     H
C        0.246   0.2063    0.193     C
H       0.2598   0.0495   0.9151     H
C       0.2689   0.3439   0.2097     C
C       0.2967   0.7791   0.9086     C
H       0.2994   0.6408   0.5645     H
C       0.3067    0.028   0.5273     C
C       0.3125   0.7195   0.6017     C
C       0.3127   0.6205   0.2453     C
H       0.3131    0.773   0.9858     H
N       0.3172   0.9057   0.8917     N
O       0.3226   0.8013   0.3446     O
O        0.335   0.0263   0.4418     O
C       0.3378   0.7576   0.2625     C
O       0.3465   0.1782   0.2547     O
H       0.3472   0.7204   0.6809     H
H       0.3641   0.7541   0.8882     H
O       0.3685   0.8212   0.1931     O
H        0.371    0.863    0.572     H
H        0.383    0.783     0.51     H
O       0.3919   0.0374   0.6234     O
Yb     0.40473 0.009142 0.302457    Yb
O       0.4082   0.8108   0.5765     O
C       0.4089    0.968   0.8481     C
H       0.4181   0.0499   0.8394     H
O       0.4846   0.9238   0.8175     O
O       0.5154   0.0762   0.1825     O
H       0.5819   0.9501   0.1606     H
C       0.5911    0.032   0.1519     C
O       0.5918   0.1892   0.4235     O
Yb     0.59527 0.990858 0.697543    Yb
O       0.6081   0.9626   0.3766     O
H        0.617    0.217     0.49     H
H        0.629    0.137    0.428     H
O       0.6315   0.1788   0.8069     O
H       0.6359   0.2459   0.1118     H
H       0.6528   0.2796   0.3191     H
O       0.6535   0.8218   0.7453     O
C       0.6622   0.2424   0.7375     C
O        0.665   0.9737   0.5582     O
O       0.6774   0.1987   0.6554     O
N       0.6828   0.0943   0.1083     N
H       0.6869    0.227   0.0142     H
C       0.6873   0.3795   0.7547     C
C       0.6875   0.2805   0.3983     C
C       0.6933    0.972   0.4727     C
H       0.7006   0.3592   0.4355     H
C       0.7033   0.2209   0.0914     C
C       0.7311   0.6561   0.7903     C
H       0.7402   0.9505   0.0849     H
C        0.754   0.7937    0.807     C
H       0.7563   0.0423   0.9987     H
C         0.77   0.0366   0.0755     C
H       0.7786    0.269   0.4222     H
H       0.8007   0.2745   0.1368     H
O       0.8298   0.0648   0.8204     O
C       0.8451   0.9844    0.487     C
H        0.846    0.002    0.854     H
O       0.8687   0.8641   0.8766     O
H       0.8707   0.0791   0.1214     H
H       0.9235   0.2476   0.8526     H
C       0.9538   0.1779   0.8538     C
H       0.9822   0.8205   0.0719     H
H       0.9963   0.8174   0.1966     H
