data_I
_chemical_name_common  '/Users/gianmarcoterrones/Research/MOFs/MOF_structures/water_stability_work_extra_structs/cleaned_from_CoRE/WEHPIJ_charged'
_cell_length_a 12.52510
_cell_length_b 12.52510
_cell_length_c 19.56400
_cell_angle_alpha 75.64020
_cell_angle_beta  75.64020
_cell_angle_gamma 68.70420
_space_group_name_H-M_alt      'P 1'


loop_
_space_group_symop_operation_xyz
  'x, y, z' 

loop_
_atom_site_label
_atom_site_fract_x
_atom_site_fract_y
_atom_site_fract_z
_atom_site_type_symbol
Co         0.0      0.5      0.0    Co
O        0.005  0.66208  0.94475     O
N      0.00799  0.59759  0.12808     N
H       0.0093   0.6139   0.2879     H
C       0.0149   0.3643   0.7563     C
C       0.0176    0.306   0.1737     C
C       0.0402   0.5684    0.192     C
H       0.0504   0.2656   0.2735     H
H       0.0554   0.6394   0.8162     H
N      0.05829  0.28397  0.10743     N
O      0.06523  0.52621  0.08067     O
C       0.0767   0.3029   0.8879     C
C       0.0809   0.2499   0.2272     C
H       0.0944   0.3006   0.6332     H
H       0.0961   0.2805   0.9334     H
H       0.1016   0.5008   0.2016     H
C       0.1067   0.2635  0.76989     C
C       0.1348   0.2338    0.837     C
C       0.1485   0.2279   0.6447     C
C       0.1609   0.2051   0.0926     C
H       0.1652   0.1944   0.3482     H
C         0.17   0.1902  0.71291     C
O      0.17293  0.42185  0.95822     O
H       0.1879   0.1879   0.0465     H
H       0.1879   0.1879   0.5465     H
C       0.1902     0.17  0.21291     C
H       0.1944   0.1652   0.8482     H
H       0.1954   0.6156   0.9516     H
C       0.2051   0.1609   0.5926     C
C       0.2279   0.1485   0.1447     C
C       0.2338   0.1348    0.337     C
C       0.2499   0.0809   0.7272     C
C       0.2605   0.5539   0.9636     C
N      0.26154  0.44562   0.9692     N
C       0.2635   0.1067  0.26989     C
H       0.2656   0.0504   0.7735     H
H       0.2804   0.3588   0.4896     H
H       0.2805   0.0961   0.4334     H
N      0.28397  0.05829  0.60743     N
H       0.3006   0.0944   0.1332     H
C       0.3029   0.0767   0.3879     C
C        0.306   0.0176   0.6737     C
H       0.3148    0.513    0.509     H
O      0.33792    0.995  0.55525     O
H       0.3467   0.6505     0.53     H
H       0.3495   0.6533     0.97     H
C       0.3524   0.5766   0.9749     C
C       0.3564   0.3566    0.986     C
C       0.3566   0.3564    0.486     C
H       0.3588   0.2804   0.9896     H
H       0.3606   0.9446   0.6838     H
C       0.3643   0.0149   0.2563     C
C       0.3777   0.4483   0.4977     C
H       0.3844   0.8046   0.5484     H
H       0.3861   0.9907   0.2121     H
N      0.40241  0.99201  0.37192     N
O      0.42185  0.17293  0.45822     O
C       0.4234   0.6476   0.5251     C
C       0.4316   0.9598    0.308     C
N      0.44562  0.26154   0.4692     N
C       0.4461   0.7395   0.5364     C
C       0.4483   0.3777   0.9977     C
C       0.4502    0.487   0.9937     C
O      0.47379  0.93477  0.41933     O
C        0.487   0.4502   0.4937     C
H        0.487   0.6852    0.991     H
H       0.4992   0.8984   0.2984     H
Co         0.5      0.0      0.5    Co
H       0.5008   0.1016   0.7016     H
H        0.513   0.3148    0.009     H
C        0.513   0.5498   0.5063     C
O      0.52621  0.06523  0.58067     O
C       0.5498    0.513   0.0063     C
C       0.5517   0.6223   0.0023     C
C       0.5539   0.2605   0.4636     C
N      0.55438  0.73846   0.5308     N
C       0.5684   0.0402    0.692     C
C       0.5766   0.3524   0.4749     C
O      0.57815  0.82707  0.54178     O
N      0.59759  0.00799  0.62808     N
H       0.6139   0.0093   0.7879     H
H       0.6156   0.1954   0.4516     H
C       0.6223   0.5517   0.5023     C
C       0.6357   0.9851   0.7437     C
H       0.6394   0.0554   0.3162     H
H       0.6412   0.7196   0.0104     H
C       0.6434   0.6436    0.514     C
C       0.6436   0.6434    0.014     C
C       0.6476   0.4234   0.0251     C
H       0.6505   0.3467     0.03     H
H       0.6533   0.3495     0.47     H
O      0.66208    0.005  0.44475     O
H       0.6852    0.487    0.491     H
C        0.694   0.9824   0.3263     C
C       0.6971   0.9233   0.6121     C
H       0.6994   0.9056   0.8668     H
N      0.71603  0.94171  0.39257     N
H       0.7195   0.9039   0.5666     H
H       0.7196   0.6412   0.5104     H
H       0.7344   0.9496   0.2265     H
C       0.7365   0.8933  0.73011     C
N      0.73846  0.55438   0.0308     N
C       0.7395   0.4461   0.0364     C
C       0.7501   0.9191   0.2728     C
C       0.7662   0.8652    0.663     C
C       0.7721   0.8515   0.8553     C
C       0.7949   0.8391   0.4074     C
H       0.8046   0.3844   0.0484     H
H       0.8056   0.8348   0.1518     H
C       0.8098     0.83  0.78709     C
H       0.8121   0.8121   0.4535     H
H       0.8121   0.8121   0.9535     H
O      0.82707  0.57815  0.04178     O
C         0.83   0.8098  0.28709     C
H       0.8348   0.8056   0.6518     H
C       0.8391   0.7949   0.9074     C
C       0.8515   0.7721   0.3553     C
C       0.8652   0.7662    0.163     C
C       0.8933   0.7365  0.23011     C
H       0.8984   0.4992   0.7984     H
H       0.9039   0.7195   0.0666     H
H       0.9056   0.6994   0.3668     H
C       0.9191   0.7501   0.7728     C
C       0.9233   0.6971   0.1121     C
O      0.93477  0.47379  0.91933     O
N      0.94171  0.71603  0.89257     N
H       0.9446   0.3606   0.1838     H
H       0.9496   0.7344   0.7265     H
C       0.9598   0.4316    0.808     C
C       0.9824    0.694   0.8263     C
C       0.9851   0.6357   0.2437     C
H       0.9907   0.3861   0.7121     H
N      0.99201  0.40241  0.87192     N
O        0.995  0.33792  0.05525     O
