data_I
_chemical_name_common  '/Users/gianmarcoterrones/Research/MOFs/MOF_structures/water_stability_work_extra_structs/cleaned_from_CCDC/WEHQOQ01'
_cell_length_a 10.88400
_cell_length_b 13.00470
_cell_length_c 16.52400
_cell_angle_alpha 104.08400
_cell_angle_beta  94.26300
_cell_angle_gamma 104.43200
_space_group_name_H-M_alt      'P 1'


loop_
_space_group_symop_operation_xyz
  'x, y, z' 

loop_
_atom_site_label
_atom_site_fract_x
_atom_site_fract_y
_atom_site_fract_z
_atom_site_type_symbol
C       0.0126   0.1474   0.4674     C
C       0.0145    0.149   0.9089     C
C       0.0155   0.9593   0.8424     C
C       0.0222   0.7732   0.0922     C
H       0.0243   0.3475   0.8041     H
C        0.029   0.6269   0.1592     C
H       0.0359   0.8075   0.7942     H
H       0.0432   0.1499   0.4167     H
C       0.0496   0.1468   0.6129     C
H       0.0499   0.0456   0.1991     H
H       0.0518   0.5048   0.2105     H
C       0.0617   0.0547   0.9077     C
C       0.0632    0.677   0.0968     C
C       0.0662    0.871   0.8388     C
C       0.0738    0.538   0.1677     C
C       0.0792   0.8635   0.3842     C
C       0.0942   0.1507   0.5373     C
H       0.1117   0.8687   0.3344     H
C       0.1142   0.8598   0.5257     C
C       0.1356   0.1554   0.6851     C
C       0.1381   0.6365   0.0403     C
C       0.1503   0.5003   0.1125     C
C       0.1575   0.0608    0.969     C
H        0.159   0.6692   0.9971     H
C       0.1593   0.8662   0.4518     C
C       0.1611   0.8767   0.9006     C
H       0.1801   0.1557   0.5331     H
O       0.1821   0.6278   0.7993     O
C       0.1826   0.5473   0.0472     C
H       0.1887   0.1248    0.013     H
H       0.1937   0.8166   0.8986     H
O        0.196   0.2096   0.3142     O
C       0.1985   0.8565   0.5963     C
C       0.2002   0.4109   0.1221     C
C       0.2083   0.9725    0.966     C
C       0.2108   0.1684   0.7448     C
F       0.2185   0.4244   0.7067     F
H       0.2328   0.5197    0.009     H
N       0.2448   0.3424     0.13     N
H       0.2455   0.8725   0.4478     H
N       0.2622   0.8537   0.6519     N
H       0.2863   0.3456    0.871     H
C        0.304   0.5133   0.7183     C
C       0.3048   0.1943   0.8182     C
O       0.3098   0.1389    0.403     O
F       0.3109   0.5536   0.6555     F
F       0.3122   0.3597   0.4795     F
C       0.3128   0.9803   0.0298     C
S      0.31291  0.60939  0.81552     S
O       0.3155   0.5562   0.8765     O
S      0.31795  0.20915  0.34979     S
C       0.3307   0.2952   0.8783     C
Ag     0.35134  0.23314  0.15453    Ag
H       0.3582   0.0529   0.7898     H
O       0.3623   0.8931  0.02389     O
N       0.3736   0.0613    0.093     N
C       0.3742   0.1209   0.8293     C
C       0.3759   0.3468   0.4185     C
F       0.3855   0.4175   0.3776     F
O       0.4039   0.7077   0.8205     O
Ag     0.40414  0.85096  0.74764    Ag
O       0.4042   0.2047   0.2911     O
F       0.4131   0.4837   0.7212     F
C       0.4203   0.3216   0.9479     C
H       0.4348   0.3888   0.9881     H
H       0.4484   0.7333    0.994     H
C       0.4586   0.9276   0.0895     C
C       0.4665   0.1486   0.8987     C
N       0.4691   0.0275   0.1322     N
C         0.49   0.2486   0.9589     C
F       0.4981   0.6492   0.5486     F
F       0.5019   0.3508   0.4514     F
C         0.51   0.7514   0.0411     C
N       0.5309   0.9725   0.8678     N
C       0.5335   0.8514   0.1013     C
C       0.5414   0.0724   0.9105     C
H       0.5516   0.2667    0.006     H
H       0.5652   0.6112   0.0119     H
C       0.5797   0.6784   0.0521     C
F       0.5869   0.5163   0.2788     F
O       0.5958   0.7953   0.7089     O
Ag     0.59586  0.14904  0.25236    Ag
O       0.5961   0.2923   0.1795     O
F       0.6145   0.5825   0.6224     F
C       0.6241   0.6532   0.5815     C
C       0.6258   0.8791   0.1707     C
N       0.6264   0.9387    0.907     N
O       0.6377   0.1069  0.97611     O
H       0.6418   0.9471   0.2102     H
Ag     0.64866  0.76686  0.84547    Ag
C       0.6693   0.7048   0.1217     C
S      0.68205  0.79085  0.65021     S
O       0.6845   0.4438   0.1235     O
S      0.68709  0.39061  0.18448     S
C       0.6872   0.0197   0.9702     C
F       0.6878   0.6403   0.5205     F
F       0.6891   0.4464   0.3445     F
O       0.6902   0.8611    0.597     O
C       0.6952   0.8057   0.1818     C
C        0.696   0.4867   0.2817     C
H       0.7137   0.6544    0.129     H
N       0.7378   0.1463   0.3481     N
H       0.7545   0.1275   0.5522     H
N       0.7552   0.6576     0.87     N
H       0.7672   0.4803    0.991     H
F       0.7815   0.5756   0.2933     F
C       0.7892   0.8316   0.2552     C
C       0.7917   0.0275    0.034     C
C       0.7998   0.5891   0.8779     C
C       0.8015   0.1435   0.4037     C
O        0.804   0.7904   0.6858     O
H       0.8063   0.1834   0.1014     H
H       0.8113   0.8752    0.987     H
C       0.8174   0.4527   0.9528     C
O       0.8179   0.3722   0.2007     O
H       0.8199   0.8443   0.4669     H
C       0.8389   0.1233   0.0994     C
C       0.8407   0.1338   0.5482     C
H        0.841   0.3308   0.0029     H
C       0.8425   0.9392    0.031     C
C       0.8497   0.4997   0.8875     C
C       0.8619   0.3635   0.9597     C
C       0.8644   0.8446   0.3149     C
C       0.8858   0.1402   0.4743     C
H       0.8883   0.1313   0.6656     H
C       0.9058   0.8493   0.4627     C
C       0.9208   0.1365   0.6158     C
C       0.9262    0.462   0.8323     C
C       0.9338    0.129   0.1612     C
C       0.9368    0.323   0.9032     C
C       0.9383   0.9453   0.0923     C
H       0.9482   0.4952   0.7895     H
H       0.9501   0.9544   0.8009     H
C       0.9504   0.8532   0.3871     C
H       0.9568   0.8501   0.5833     H
H       0.9641   0.1925   0.2058     H
C        0.971   0.3731   0.8408     C
H       0.9757   0.6525   0.1959     H
C       0.9778   0.2268   0.9078     C
C       0.9845   0.0407   0.1576     C
C       0.9855    0.851   0.0911     C
C       0.9874   0.8526   0.5326     C
