data_I
_chemical_name_common  '/Users/gianmarcoterrones/Research/MOFs/MOF_structures/water_stability_work_extra_structs/cleaned_from_CoRE/WEHQAC_charged'
_cell_length_a 15.62090
_cell_length_b 15.62090
_cell_length_c 19.89449
_cell_angle_alpha 106.89697
_cell_angle_beta  106.89737
_cell_angle_gamma 105.05000
_space_group_name_H-M_alt      'P 1'


loop_
_space_group_symop_operation_xyz
  'x, y, z' 

loop_
_atom_site_label
_atom_site_fract_x
_atom_site_fract_y
_atom_site_fract_z
_atom_site_type_symbol
C      0.00339  0.84879  0.48678     C
H       0.0102   0.1262   0.5504     H
H       0.0112    0.873    0.127     H
C      0.02754  0.28594  0.47728     C
C      0.03128  0.38728  0.99296     C
C      0.03832  0.89432  0.00704     C
C      0.04294   0.7735  0.59584     C
C      0.04701  0.24741  0.53102     C
C       0.0476   0.1458    0.913     C
C       0.0497   0.1397    0.982     C
H       0.0528    0.575   0.9154     H
H       0.0565   0.7485    0.633     H
C       0.0677   0.6577    0.018     C
C        0.073   0.9076   0.5584     C
H        0.075   0.5528   0.4154     H
C      0.07597  0.38657  0.49514     C
C      0.09305  0.87029  0.61334     C
H       0.0945   0.2861   0.5798     H
C       0.0968    0.626    0.961     C
H       0.1063   0.9721   0.5698     H
C      0.10857  0.91917  0.99514     C
C      0.11272  0.46872  0.50704     C
C      0.11343  0.42403  0.00486     C
H       0.1155   0.9235    0.867     H
H       0.1158    0.754    0.127     H
C        0.126   0.5968    0.461     C
H       0.1311   0.1845   0.8586     H
C       0.1326   0.1796   0.9044     C
C       0.1346   0.7328    0.087     C
C       0.1358    0.165    0.039     C
H       0.1374   0.1596   0.0846     H
H        0.145   0.7086    0.429     H
C       0.1577   0.5677    0.518     C
O       0.1604   0.9104     0.75     O
C       0.1675   0.6901    0.469     C
C      0.16862  0.93072  0.68954     C
C      0.17766   0.9471  0.90416     C
C       0.1901   0.6675    0.969     C
C      0.19134  0.94974  0.97728     C
H       0.2086    0.645    0.929     H
H       0.2139   0.4055   0.9202     H
C      0.21406  0.47246  0.02272     C
C       0.2193   0.2061   0.9632     C
C       0.2211   0.1985    0.031     C
C       0.2282   0.7752   0.0956     C
C       0.2328   0.6346    0.587     C
N      0.23874  0.12274  0.55508     N
C      0.24118  0.97908  0.81046     C
C       0.2429   0.7561   0.5368     C
N      0.24628  0.00344  0.71024     N
H       0.2485   0.5565    0.133     H
C      0.25259  0.45299  0.96898     C
H        0.254   0.6158    0.627     H
C       0.2561   0.7429   0.0368     C
C      0.25695  0.97971  0.88666     C
C      0.26232  0.19212  0.54704     C
H       0.2725   0.8259   0.1414     H
C       0.2735  0.54294  0.09584     C
C       0.2752   0.7282   0.5956     C
H       0.2796    0.216    0.071     H
C      0.28361  0.98401  0.03102     C
H        0.284   0.2204    0.429     H
C      0.28472  0.85492  0.54704     C
N       0.2932  0.03604  0.78976     N
H       0.2937   0.9853   0.0798     H
C       0.2939   0.2807   0.5368     C
C       0.3015   0.2789    0.469     C
C      0.30788  0.23768  0.95296     C
H       0.3155   0.3689   0.6414     H
N      0.31634  0.93234  0.55508     N
C       0.3204   0.3674   0.5956     C
Ag     0.32351  0.07351  0.64702    Ag
H       0.3259   0.7725   0.6414     H
C        0.335   0.3642    0.461     C
H       0.3404   0.3626   0.4154     H
C      0.34879  0.50339  0.98678     C
C       0.3492   0.0146   0.9416     C
C       0.3542   0.4524    0.587     C
C      0.35492  0.78472  0.04704     C
C       0.3603   0.4503    0.518     C
C      0.36201  0.01661  0.01322     C
C      0.37029  0.59305  0.11334     C
H        0.373   0.5112    0.627     H
H       0.3738   0.4898   0.9496     H
N      0.37726  0.26126  0.94492     N
C      0.39432  0.53832  0.50704     C
H       0.4023   0.0365   0.9302     H
C       0.4076    0.573   0.0584     C
O       0.4104   0.6604     0.25     O
C      0.41917  0.60857  0.49514     C
H       0.4235   0.6155    0.367     H
H       0.4242   0.0402   0.0504     H
Ag     0.42649  0.17649  0.85298    Ag
C      0.43072  0.66862  0.18954     C
N      0.43234  0.81634  0.05508     N
C       0.4471  0.67766  0.40416     C
C      0.44974  0.69134  0.47728     C
H       0.4598   0.0758   0.4496     H
H       0.4635   0.0977   0.5698     H
N      0.46396   0.2068  0.71024     N
H       0.4721   0.6063   0.0698     H
C      0.47908  0.74118  0.31046     C
C      0.47971  0.75695  0.38666     C
C      0.48339  0.13799  0.48678     C
C      0.48401  0.78361  0.53102     C
H       0.4853   0.7937   0.5798     H
C       0.4854   0.1508   0.5584     C
N      0.49656  0.25372  0.78976     N
N      0.50344  0.74628  0.21024     N
C       0.5146   0.8492   0.4416     C
H       0.5147   0.2063   0.4202     H
C      0.51599  0.21639  0.46898     C
C      0.51661  0.86201  0.51322     C
C      0.52029  0.24305  0.61334     C
C      0.52092  0.25882  0.68954     C
H       0.5279   0.3937   0.9302     H
N      0.53604   0.7932  0.28976     N
H       0.5365   0.9023   0.4302     H
H       0.5402   0.9242   0.5504     H
C      0.55026  0.30866  0.52272     C
C       0.5529  0.32234  0.59584     C
N      0.56766  0.18366  0.94492     N
C      0.56928  0.33138  0.81046     C
Ag     0.57351  0.82351  0.14702    Ag
H       0.5758   0.9598   0.9496     H
H       0.5765   0.3845    0.633     H
C      0.58083  0.39143  0.50486     C
O       0.5896   0.3396     0.75     O
C       0.5924    0.427   0.9416     C
H       0.5977   0.9635   0.0698     H
C      0.60568  0.46168  0.49296     C
N      0.62274  0.73874  0.05508     N
H       0.6262   0.5102   0.0504     H
H        0.627   0.4888    0.373     H
C      0.62971  0.40695  0.88666     C
C      0.63799  0.98339  0.98678     C
C       0.6397   0.5497    0.482     C
C      0.64508  0.21528  0.95296     C
C       0.6458   0.5476    0.413     C
C       0.6508   0.9854   0.0584     C
C      0.65121  0.49661  0.01322     C
H       0.6596   0.6374   0.5846     H
C        0.665   0.6358    0.539     C
H       0.6741   0.2275   0.3586     H
Ag     0.67649  0.92648  0.35297    Ag
C       0.6796   0.6326   0.4044     C
N      0.68366  0.06766  0.44492     N
H       0.6845   0.6311   0.3586     H
C      0.69212  0.76232  0.04704     C
C       0.6985   0.7211    0.531     C
C       0.7061   0.7193   0.4632     C
H       0.7063   0.0147   0.9202     H
N       0.7068  0.96396  0.21024     N
C      0.71528  0.14508  0.45296     C
H        0.716   0.7796    0.571     H
C      0.71639  0.01599  0.96898     C
H       0.7204    0.784    0.929     H
C       0.7248   0.2718   0.4044     C
C       0.7265  0.45706  0.90416     C
H       0.7275   0.1741   0.8586     H
C      0.73768  0.80788  0.45296     C
C      0.74305  0.02029  0.11334     C
C       0.7439   0.2571   0.9632     C
H        0.746   0.3842    0.373     H
C      0.74741  0.54701  0.03102     C
H       0.7515   0.4435    0.867     H
N      0.75372  0.99656  0.28976     N
C       0.7571   0.2439   0.4632     C
C      0.75882  0.02092  0.18954     C
N      0.76126  0.87726  0.44492     N
C       0.7672   0.3654    0.413     C
C       0.7718   0.2248   0.9044     C
C       0.7789   0.8015    0.969     C
C       0.7807   0.7939   0.0368     C
C      0.78594  0.52754  0.97728     C
H       0.7861   0.5945   0.0798     H
H       0.7914    0.355    0.071     H
C      0.80866  0.05026  0.02272     C
C       0.8099   0.3325    0.031     C
C      0.82234   0.0529  0.09584     C
C      0.83138  0.06928  0.31046     C
C       0.8325   0.3099    0.531     C
O       0.8396   0.0896     0.25     O
C       0.8423   0.4323    0.482     C
H        0.855   0.2914    0.571     H
H       0.8626   0.8404   0.9154     H
C       0.8642    0.835    0.961     C
C       0.8654   0.2672    0.913     C
C       0.8674   0.8204   0.0956     C
H       0.8689   0.8155   0.1414     H
C        0.874   0.4032    0.539     C
H       0.8842    0.246    0.873     H
H       0.8845   0.0765    0.133     H
C      0.88657  0.57597  0.99514     C
C      0.88728  0.53128  0.49296     C
C      0.89143  0.08083  0.00486     C
H       0.8937   0.0279   0.4302     H
C       0.9032    0.374    0.039     C
H       0.9055   0.7139   0.4202     H
C      0.90695  0.12971  0.38666     C
C      0.92403  0.61343  0.50486     C
H        0.925   0.4472   0.5846     H
C        0.927   0.0924   0.4416     C
C       0.9323   0.3423    0.982     C
H       0.9435   0.2515    0.367     H
H       0.9472    0.425   0.0846     H
C       0.9503   0.8603    0.018     C
C       0.9524   0.8542    0.087     C
C      0.95299  0.75259  0.46898     C
C      0.95706   0.2265  0.40416     C
C      0.96168  0.10568  0.99296     C
C      0.96872  0.61272  0.00704     C
C      0.97246  0.71406  0.52272     C
H       0.9888    0.127    0.873     H
H       0.9898   0.8738   0.4496     H
C      0.99661  0.15121  0.51322     C
