data_I
_chemical_name_common  '/Users/gianmarcoterrones/Research/MOFs/MOF_structures/water_stability_work_extra_structs/cleaned_from_CCDC/WEHQOQ'
_cell_length_a 10.18100
_cell_length_b 12.82600
_cell_length_c 17.65700
_cell_angle_alpha 94.20200
_cell_angle_beta  97.78900
_cell_angle_gamma 110.37600
_space_group_name_H-M_alt      'P 1'


loop_
_space_group_symop_operation_xyz
  'x, y, z' 

loop_
_atom_site_label
_atom_site_fract_x
_atom_site_fract_y
_atom_site_fract_z
_atom_site_type_symbol
C       0.0025   0.2422   0.0421     C
C       0.0155   0.3271   0.0993     C
N       0.0309   0.4961   0.8783     N
C       0.0432    0.364   0.5901     C
C       0.0538   0.5925   0.9157     C
H       0.0544   0.7668   0.0056     H
H       0.0674   0.1139   0.0194     H
F        0.075   0.2716   0.5712     F
O       0.0752   0.3517   0.7337     O
C       0.0755   0.1713   0.0572     C
F         0.08   0.6595   0.4171     F
O        0.093   0.5234   0.6941     O
C       0.0971   0.3381   0.1712     C
F       0.0975   0.4266   0.5374     F
H       0.1017    0.393     0.21     H
N       0.1273   0.4525   0.9175     N
Ag      0.1278  0.29075  0.85731    Ag
S       0.1382   0.4201  0.68359     S
Ag     0.13858  0.60905  0.22287    Ag
O       0.1441   0.7694    0.158     O
F       0.1505   0.9602    0.266     F
O       0.1586   0.6172  0.97882     O
C       0.1611   0.1847   0.1282     C
C       0.1714   0.2678   0.1852     C
C       0.2001   0.5266   0.9761     C
N       0.2026   0.1554   0.8646     N
H       0.2116   0.1375   0.1373     H
O       0.2314   0.9518   0.1171     O
C       0.2361   0.0796   0.8672     C
O        0.248    0.532     0.69     O
S       0.2541  0.87728  0.16566     S
C       0.2608   0.2841   0.2592     C
H       0.2631   0.3448   0.4515     H
O       0.2644    0.383   0.6797     O
H       0.2684   0.9465   0.7601     H
C       0.2707   0.9425    0.261     C
C        0.283   0.9878   0.8739     C
F       0.2841   0.8809   0.3126     F
O       0.2869   0.4631   0.6784     O
C       0.2945   0.9286   0.8085     C
H       0.2956   0.6714   0.5065     H
N       0.2974   0.6162   0.3183     N
H       0.3025   0.9948   0.9888     H
C       0.3088   0.5251   0.0383     C
C        0.316   0.9576    0.945     C
H       0.3196   0.3769   0.9989     H
C       0.3267   0.2993     0.32     C
H        0.337   0.6746   0.0955     H
C       0.3456   0.8414   0.8155     C
C       0.3526   0.3394   0.4589     C
H       0.3543   0.8015   0.7715     H
C       0.3559   0.4357    0.039     C
C       0.3629   0.6305   0.3783     C
C       0.3657   0.6133   0.0967     C
F       0.3665   0.0412   0.2771     F
C       0.3683    0.874   0.9522     C
C       0.3833   0.8139   0.8868     C
C       0.3858   0.6674   0.5146     C
H       0.3859   0.3671   0.5773     H
O       0.3899    0.867   0.1643     O
H       0.3942   0.8567   0.0009     H
C       0.4064   0.3172   0.3973     C
H       0.4162   0.6922   0.6324     H
H       0.4224    0.479   0.8012     H
C       0.4276   0.3551   0.5354     C
C       0.4426    0.728   0.8942     C
C        0.443   0.6475    0.454     C
C       0.4564    0.434   0.0992     C
C       0.4597   0.6825   0.5907     C
C       0.4654   0.6108   0.1571     C
C       0.4899   0.4779    0.842     C
C       0.4919   0.6573   0.8979     C
H       0.4978   0.3304   0.8027     H
H       0.5022   0.6696   0.1973     H
C       0.5081   0.3427   0.1021     C
C       0.5101   0.5221    0.158     C
C       0.5346   0.3892   0.8429     C
C       0.5403   0.3175   0.4093     C
C       0.5436    0.566   0.9008     C
C        0.557   0.3525    0.546     C
C       0.5574    0.272   0.1058     C
C       0.5724   0.6449   0.4646     C
H       0.5776    0.521   0.1988     H
H       0.5838   0.3078   0.3676     H
C       0.5936   0.6828   0.6027     C
H       0.6058   0.1433   0.9991     H
O       0.6101    0.133   0.8357     O
H       0.6141   0.6329   0.4227     H
C       0.6142   0.3326   0.4854     C
C       0.6167   0.1861   0.1132     C
C       0.6317    0.126   0.0478     C
F       0.6335   0.9588   0.7229     F
C       0.6343   0.3867   0.9033     C
C       0.6371   0.3695   0.6217     C
C       0.6441   0.5643    0.961     C
H       0.6457   0.1985   0.2285     H
C       0.6474   0.6606   0.5411     C
C       0.6544   0.1586   0.1845     C
H        0.663   0.3254   0.9045     H
C       0.6733   0.7007     0.68     C
H       0.6804   0.6231   0.0011     H
C        0.684   0.0424    0.055     C
C       0.6912   0.4749   0.9617     C
H       0.6975   0.0052   0.0112     H
N       0.7026   0.3838   0.6817     N
H       0.7044   0.3286   0.4935     H
C       0.7055   0.0714   0.1915     C
O       0.7131   0.5369   0.3216     O
F       0.7159   0.1191   0.6874     F
C        0.717   0.0122   0.1261     C
C       0.7293   0.0575    0.739     C
H       0.7316   0.0535   0.2399     H
O       0.7356    0.617   0.3203     O
H       0.7369   0.6552   0.5485     H
C       0.7392   0.7159   0.7408     C
S       0.7459  0.12272  0.83434     S
O        0.752    0.468     0.31     O
C       0.7639   0.9204   0.1328     C
O       0.7686   0.0482   0.8829     O
H       0.7884   0.8625   0.8627     H
N       0.7974   0.8446   0.1354     N
C       0.7999   0.4734   0.0239     C
C       0.8286   0.7322   0.8148     C
C       0.8389   0.8153   0.8718     C
O       0.8414   0.3828  0.02118     O
F       0.8495   0.0398    0.734     F
O       0.8559   0.2306    0.842     O
Ag     0.86142  0.39095  0.77713    Ag
S       0.8618   0.5799  0.31641     S
Ag      0.8722  0.70925  0.14269    Ag
N       0.8727   0.5475   0.0825     N
H       0.8983    0.607     0.79     H
F       0.9025   0.5734   0.4626     F
C       0.9029   0.6619   0.8288     C
O        0.907   0.4766   0.3059     O
F         0.92   0.3405   0.5829     F
C       0.9245   0.8287   0.9428     C
O       0.9248   0.6483   0.2663     O
F        0.925   0.7284   0.4288     F
H       0.9326   0.8861   0.9806     H
H       0.9456   0.2332   0.9944     H
C       0.9462   0.4075   0.0843     C
C       0.9568    0.636   0.4099     C
N       0.9691   0.5039   0.1217     N
C       0.9845   0.6729   0.9007     C
C       0.9975   0.7578   0.9579     C
