data_I
_chemical_name_common  '/Users/gianmarcoterrones/Research/MOFs/MOF_structures/water_stability_work_extra_structs/cleaned_from_CoRE/WEHRIL_charged'
_cell_length_a 15.11850
_cell_length_b 15.11850
_cell_length_c 19.73400
_cell_angle_alpha 107.50700
_cell_angle_beta  107.50700
_cell_angle_gamma 100.53300
_space_group_name_H-M_alt      'P 1'


loop_
_space_group_symop_operation_xyz
  'x, y, z' 

loop_
_atom_site_label
_atom_site_fract_x
_atom_site_fract_y
_atom_site_fract_z
_atom_site_type_symbol
H       0.0039   0.6333   0.5498     H
C       0.0103   0.3441   0.4899     C
H       0.0158   0.3846   0.1352     H
C       0.0168   0.7846   0.4631     C
C        0.039    0.751   0.5221     C
C       0.0401   0.8969   0.0167     C
C       0.0429   0.6401   0.9069     C
C       0.0439   0.6407   0.9776     C
C       0.0448   0.3964   0.0112     C
H       0.0499   0.0807   0.8878     H
C       0.0511   0.2777   0.6092     C
C       0.0607   0.1495   0.9949     C
H       0.0645   0.2567   0.6499     H
C       0.0662     0.88   0.4754     C
C         0.08   0.4038   0.5615     C
H       0.0807   0.0499   0.3878     H
H       0.0865   0.7915   0.5699     H
C       0.0925   0.1267   0.9356     C
C       0.0986   0.3708     0.62     C
C       0.1031   0.9599   0.4833     C
H       0.1043   0.2315   0.1068     H
C       0.1134   0.4248   0.0011     C
H       0.1143   0.4663   0.5698     H
C         0.12   0.9338   0.0246     C
H       0.1233   0.4275   0.8735     H
C        0.125    0.216   0.0661     C
C       0.1267   0.0925   0.4356     C
H       0.1288   0.6766    0.851     H
C       0.1297   0.6765   0.8984     C
C       0.1346   0.6786   0.0407     C
H       0.1371   0.6785   0.0884     H
C       0.1495   0.0607   0.4949     C
H       0.1546   0.2056   0.4041     H
O       0.1664   0.4192   0.7592     O
C         0.17   0.1854   0.4451     C
C       0.1743   0.4359   0.6977     C
C       0.1853   0.4543   0.9119     C
C       0.1854     0.17   0.9451     C
C       0.1975   0.4579   0.9854     C
H       0.2056   0.1546   0.9041     H
H       0.2085   0.9135   0.9301     H
C       0.2154   0.9832   0.0369     C
C       0.2159   0.7119   0.9608     C
C        0.216    0.125   0.5661     C
C       0.2184   0.7154   0.0318     C
C       0.2188   0.2592   0.0776     C
H       0.2315   0.1043   0.6068     H
N       0.2329   0.6257   0.5562     N
C       0.2363   0.2479    0.516     C
C       0.2479   0.2363    0.016     C
C        0.248   0.4858   0.8177     C
C        0.249    0.961   0.9779     C
N       0.2503   0.5017   0.7138     N
H       0.2567   0.0645   0.1499     H
C       0.2571   0.6951   0.5492     C
H       0.2573   0.7229   0.4261     H
C       0.2592   0.2188   0.5776     C
C       0.2619   0.4887   0.8945     C
H       0.2624   0.3032   0.1259     H
H       0.2771   0.7427   0.0739     H
C       0.2772   0.3488   0.5294     C
C       0.2777   0.0511   0.1092     C
C       0.2846   0.7816   0.4682     C
C       0.2881   0.7841   0.5392     C
C       0.2907   0.4977   0.0432     C
N       0.3001   0.5367   0.7949     N
H       0.3005   0.5021   0.0931     H
H       0.3032   0.2624   0.6259     H
C       0.3049   0.7429   0.9508     C
N       0.3095   0.4279   0.5396     N
C       0.3214   0.8654   0.4593     C
H       0.3215   0.8629   0.4116     H
H       0.3234   0.8712    0.649     H
C       0.3235   0.8703   0.6016     C
Ag     0.32684  0.56706  0.64743    Ag
C       0.3441   0.0103   0.9899     C
C       0.3488   0.2772   0.0294     C
C       0.3555   0.5267   0.9514     C
C       0.3593   0.9561   0.5224     C
C       0.3599   0.9571   0.5931     C
H       0.3667   0.9961   0.9502     H
C        0.367   0.5302   0.0239     C
C       0.3708   0.0986     0.12     C
N       0.3743   0.7671   0.9438     N
H       0.3846   0.0158   0.6352     H
C       0.3964   0.0448   0.5112     C
C       0.4038     0.08   0.0615     C
H       0.4089   0.5491   0.9403     H
O       0.4192   0.1664   0.2592     O
C       0.4248   0.1134   0.5011     C
H       0.4275   0.1233   0.3735     H
N       0.4279   0.3095   0.0396     N
H       0.4294   0.5558   0.0617     H
Ag     0.43294  0.67316  0.85257    Ag
C       0.4359   0.1743   0.1977     C
H       0.4442   0.5706   0.4383     H
H       0.4509   0.5911   0.5597     H
C       0.4543   0.1853   0.4119     C
C       0.4579   0.1975   0.4854     C
N       0.4633   0.6999   0.7051     N
H       0.4663   0.1143   0.0698     H
C       0.4698    0.633   0.4761     C
C       0.4733   0.6445   0.5486     C
C       0.4858    0.248   0.3177     C
C       0.4887   0.2619   0.3945     C
C       0.4977   0.2907   0.5432     C
H       0.4979   0.6995   0.4069     H
N       0.4983   0.7497   0.7862     N
N       0.5017   0.2503   0.2138     N
H       0.5021   0.3005   0.5931     H
C       0.5023   0.7093   0.4568     C
C       0.5113   0.7381   0.6055     C
C       0.5142    0.752   0.6823     C
C       0.5267   0.3555   0.4514     C
C       0.5302    0.367   0.5239     C
H       0.5337   0.8857   0.9302     H
N       0.5367   0.3001   0.2949     N
C       0.5421   0.8025   0.5146     C
C       0.5457   0.8147   0.5881     C
H       0.5491   0.4089   0.4403     H
H       0.5558   0.4294   0.5617     H
C       0.5641   0.8257   0.8023     C
Ag     0.56706  0.32684  0.14743    Ag
H       0.5706   0.4442   0.9383     H
N       0.5721   0.6905   0.9604     N
H       0.5725   0.8767   0.6265     H
C       0.5752   0.8866   0.4989     C
O       0.5808   0.8336   0.7408     O
H       0.5911   0.4509   0.0597     H
C       0.5962     0.92   0.9385     C
C       0.6036   0.9552   0.4888     C
H       0.6154   0.9842   0.3648     H
N       0.6257   0.2329   0.0562     N
C       0.6292   0.9014     0.88     C
C        0.633   0.4698   0.9761     C
H       0.6333   0.0039   0.0498     H
C       0.6401   0.0429   0.4069     C
C       0.6407   0.0439   0.4776     C
C       0.6445   0.4733   0.0486     C
C       0.6512   0.7228   0.9706     C
C       0.6559   0.9897   0.0101     C
Ag     0.67316  0.43294  0.35257    Ag
C       0.6765   0.1297   0.3984     C
H       0.6766   0.1288    0.351     H
H       0.6785   0.1371   0.5884     H
C       0.6786   0.1346   0.5407     C
N       0.6905   0.5721   0.4604     N
C       0.6951   0.2571   0.0492     C
H       0.6968   0.7376   0.3741     H
H       0.6995   0.4979   0.9069     H
N       0.6999   0.4633   0.2051     N
C       0.7093   0.5023   0.9568     C
C       0.7119   0.2159   0.4608     C
C       0.7154   0.2184   0.5318     C
C       0.7223   0.9489   0.8908     C
C       0.7228   0.6512   0.4706     C
H       0.7229   0.2573   0.9261     H
H       0.7376   0.6968   0.8741     H
C       0.7381   0.5113   0.1055     C
C       0.7408   0.7812   0.4224     C
H       0.7427   0.2771   0.5739     H
C       0.7429   0.3049   0.4508     C
H       0.7433   0.9355   0.8501     H
N       0.7497   0.4983   0.2862     N
C        0.751    0.039   0.0221     C
C        0.752   0.5142   0.1823     C
C       0.7521   0.7637    0.984     C
C       0.7637   0.7521    0.484     C
N       0.7671   0.3743   0.4438     N
H       0.7685   0.8957   0.3932     H
C       0.7812   0.7408   0.9224     C
C       0.7816   0.2846   0.9682     C
C        0.784    0.875   0.4339     C
C       0.7841   0.2881   0.0392     C
C       0.7846   0.0168   0.9631     C
H       0.7915   0.0865   0.0699     H
H       0.7944   0.8454   0.0959     H
C       0.8025   0.5421   0.0146     C
C       0.8146     0.83   0.0549     C
C       0.8147   0.5457   0.0881     C
C       0.8257   0.5641   0.3023     C
C         0.83   0.8146   0.5549     C
O       0.8336   0.5808   0.2408     O
H       0.8454   0.7944   0.5959     H
C       0.8505   0.9393   0.5051     C
H       0.8629   0.3215   0.9116     H
C       0.8654   0.3214   0.9593     C
C       0.8703   0.3235   0.1016     C
H       0.8712   0.3234    0.149     H
C       0.8733   0.9075   0.5644     C
C        0.875    0.784   0.9339     C
H       0.8767   0.5725   0.1265     H
C         0.88   0.0662   0.9754     C
H       0.8857   0.5337   0.4302     H
C       0.8866   0.5752   0.9989     C
H       0.8957   0.7685   0.8932     H
C       0.8969   0.0401   0.5167     C
C       0.9014   0.6292     0.38     C
C       0.9075   0.8733   0.0644     C
H       0.9135   0.2085   0.4301     H
H       0.9193   0.9501   0.6122     H
C         0.92   0.5962   0.4385     C
C       0.9338     0.12   0.5246     C
H       0.9355   0.7433   0.3501     H
C       0.9393   0.8505   0.0051     C
C       0.9489   0.7223   0.3908     C
H       0.9501   0.9193   0.1122     H
C       0.9552   0.6036   0.9888     C
C       0.9561   0.3593   0.0224     C
C       0.9571   0.3599   0.0931     C
C       0.9599   0.1031   0.9833     C
C        0.961    0.249   0.4779     C
C       0.9832   0.2154   0.5369     C
H       0.9842   0.6154   0.8648     H
C       0.9897   0.6559   0.5101     C
H       0.9961   0.3667   0.4502     H
