data_I
_chemical_name_common  '/Users/gianmarcoterrones/Research/MOFs/MOF_structures/water_stability_work_extra_structs/cleaned_from_CCDC/WITFEM'
_cell_length_a 12.34420
_cell_length_b 18.15320
_cell_length_c 18.25710
_cell_angle_alpha 90.00000
_cell_angle_beta  92.99400
_cell_angle_gamma 90.00000
_space_group_name_H-M_alt      'P 1'


loop_
_space_group_symop_operation_xyz
  'x, y, z' 

loop_
_atom_site_label
_atom_site_fract_x
_atom_site_fract_y
_atom_site_fract_z
_atom_site_type_symbol
C       0.0034   0.6435   0.4174     C
C       0.0034   0.8565   0.9174     C
H        0.004   0.5424   0.8526     H
H        0.004   0.9576   0.3526     H
C       0.0181   0.0704   0.1037     C
C       0.0181   0.4296   0.6037     C
Zn      0.0238  0.08917  0.38177    Zn
Zn      0.0238  0.41083  0.88177    Zn
C       0.0313   0.0359   0.8227     C
C       0.0313   0.4641   0.3227     C
H       0.0403    0.166   0.0484     H
H       0.0403    0.334   0.5484     H
C       0.0502   0.5381    0.344     C
C       0.0502   0.9619    0.844     C
O       0.0509  0.51926  0.87955     O
O       0.0509  0.98074  0.37955     O
C        0.055   0.5731   0.6525     C
C        0.055   0.9269   0.1525     C
H       0.0671   0.6221   0.6676     H
H       0.0671   0.8779   0.1676     H
H       0.0689   0.2307   0.3001     H
H       0.0689   0.2693   0.8001     H
O       0.0724   0.6974   0.1193     O
O       0.0724   0.8026   0.6193     O
O        0.081    0.089   0.7097     O
O        0.081    0.411   0.2097     O
C       0.0832   0.6813   0.3904     C
C       0.0832   0.8187   0.8904     C
H       0.0977   0.7291    0.408     H
H       0.0977   0.7709    0.908     H
C       0.1064   0.0766   0.7751     C
C       0.1064   0.4234   0.2751     C
C       0.1085   0.0287   0.0789     C
C       0.1085   0.4713   0.5789     C
N       0.1137   0.1266  0.29791     N
N       0.1137   0.3734  0.79791     N
H       0.1146   0.5344   0.8724     H
H       0.1146   0.9656   0.3724     H
H       0.1183   0.2243   0.4331     H
H       0.1183   0.2757   0.9331     H
C       0.1188   0.1981   0.2801     C
C       0.1188   0.3019   0.7801     C
N        0.121   0.1226  0.46971     N
N        0.121   0.3774  0.96971     N
C        0.126   0.5404   0.6054     C
C        0.126   0.9596   0.1054     C
C       0.1323   0.5801   0.3131     C
C       0.1323   0.9199   0.8131     C
O       0.1395  0.58667   0.1127     O
O       0.1395  0.91333   0.6127     O
H       0.1466   0.0306   0.5248     H
H       0.1466   0.4694   0.0248     H
C       0.1487   0.6517    0.335     C
C       0.1487   0.8483    0.835     C
C        0.151   0.1933    0.469     C
C        0.151   0.3067    0.969     C
C       0.1529    0.656   0.1163     C
C       0.1529    0.844   0.6163     C
O       0.1599   0.0882   0.9723     O
O       0.1599   0.4118   0.4723     O
C       0.1661   0.0805    0.523     C
C       0.1661   0.4195    0.023     C
H       0.1756   0.5592   0.2776     H
H       0.1756   0.9408   0.7776     H
H       0.1801   0.0308   0.2776     H
H       0.1801   0.4692   0.7776     H
C       0.1831   0.0813   0.2666     C
C       0.1831   0.4187   0.7666     C
H       0.1873   0.5668   0.5916     H
H       0.1873   0.9332   0.0916     H
C       0.1935   0.2263    0.234     C
C       0.1935   0.2737    0.734     C
O       0.1942   0.1012    0.804     O
O       0.1942   0.3988    0.304     O
C       0.1946   0.0579   0.0285     C
C       0.1946   0.4421   0.5285     C
H       0.1954   0.2229   0.7243     H
H       0.1954   0.2771   0.2243     H
H       0.2006   0.7085   0.6293     H
H       0.2006   0.7915   0.1293     H
H       0.2019   0.6808    0.314     H
H       0.2019   0.8192    0.814     H
H       0.2086    0.638    0.956     H
H       0.2086    0.862    0.456     H
C       0.2265   0.2228   0.5176     C
C       0.2265   0.2772   0.0176     C
C       0.2406   0.1076   0.5756     C
C       0.2406   0.3924   0.0756     C
H       0.2464   0.2275   0.0133     H
H       0.2464   0.2725   0.5133     H
N       0.2509   0.5869   0.8676     N
N       0.2509   0.9131   0.3676     N
C       0.2588   0.1051   0.2192     C
C       0.2588   0.3949   0.7192     C
C       0.2629   0.6354   0.9219     C
C       0.2629   0.8646   0.4219     C
C       0.2638   0.6905   0.1177     C
C       0.2638   0.8095   0.6177     C
C       0.2654   0.1794   0.2022     C
C       0.2654   0.3206   0.7022     C
C       0.2663   0.7342   0.6263     C
C       0.2663   0.7658   0.1263     C
H       0.2685   0.0764   0.6131     H
H       0.2685   0.4236   0.1131     H
C       0.2742     0.18   0.5734     C
C       0.2742     0.32   0.0734     C
Zn     0.27505  0.09337  0.89949    Zn
Zn     0.27505  0.40663  0.39949    Zn
O       0.2921   0.0492   0.0489     O
O       0.2921   0.4508   0.5489     O
H       0.3058   0.0712   0.1983     H
H       0.3058   0.4288   0.6983     H
H       0.3075   0.5465   0.0955     H
H       0.3075   0.9535   0.5955     H
H       0.3217   0.5534   0.7802     H
H       0.3217   0.9466   0.2802     H
H       0.3243   0.1786    0.101     H
H       0.3243   0.3214    0.601     H
C       0.3289   0.5861   0.8201     C
C       0.3289   0.9139   0.3201     C
C       0.3425   0.2049   0.1476     C
C       0.3425   0.2951   0.6476     C
C       0.3504   0.6821   0.9309     C
C       0.3504   0.8179   0.4309     C
H       0.3538   0.7159   0.9699     H
H       0.3538   0.7841   0.4699     H
C       0.3547   0.2127   0.6293     C
C       0.3547   0.2873   0.1293     C
H       0.3568   0.1831   0.6749     H
H       0.3568   0.3169   0.1749     H
H       0.3622   0.6434   0.6378     H
H       0.3622   0.8566   0.1378     H
C       0.3638   0.6946   0.6307     C
C       0.3638   0.8054   0.1307     C
C       0.3639   0.6517   0.1106     C
C       0.3639   0.8483   0.6106     C
N       0.3664   0.0006   0.8825     N
N       0.3664   0.4994   0.3825     N
H       0.3676   0.0125   0.7753     H
H       0.3676   0.4875   0.2753     H
H       0.3677    0.058   0.4116     H
H       0.3677    0.442   0.9116     H
C       0.3711    0.575   0.0981     C
C       0.3711    0.925   0.5981     C
H       0.3722   0.1826   0.3902     H
H       0.3722   0.3174   0.8902     H
O       0.3796  0.17487  0.92068     O
O       0.3796  0.32513  0.42068     O
H       0.3867   0.5314   0.4851     H
H       0.3867   0.9686   0.9851     H
C       0.3889   0.5192   0.3142     C
C       0.3889   0.9808   0.8142     C
C       0.4002   0.5447   0.4367     C
C       0.4002   0.9553   0.9367     C
O       0.4205   0.1511   0.8063     O
O       0.4205   0.3489   0.3063     O
C       0.4206   0.6307   0.8258     C
C       0.4206   0.8693   0.3258     C
C       0.4332   0.6796    0.883     C
C       0.4332   0.8204    0.383     C
C       0.4343    0.082    0.406     C
C       0.4343    0.418    0.906     C
C       0.4374   0.1559   0.3937     C
C       0.4374   0.3441   0.8937     C
C       0.4379   0.1826   0.8657     C
C       0.4379   0.3174   0.3657     C
C       0.4415   0.5833   0.2983     C
C       0.4415   0.9167   0.7983     C
C       0.4538   0.6097   0.4251     C
C       0.4538   0.8903   0.9251     C
H       0.4556   0.5947   0.2495     H
H       0.4556   0.9053   0.7495     H
C       0.4608   0.7292    0.625     C
C       0.4608   0.7708    0.125     C
C       0.4634   0.6932   0.1141     C
C       0.4634   0.8068   0.6141     C
C       0.4682    0.542   0.0896     C
C       0.4682    0.958   0.5896     C
C       0.4686   0.2016   0.1614     C
C       0.4686   0.2984   0.6614     C
H        0.469   0.2496   0.0571     H
H        0.469   0.2504   0.5571     H
H       0.4703   0.0089   0.5806     H
H       0.4703   0.4911   0.0806     H
C       0.4724   0.2315    0.608     C
C       0.4724   0.2685    0.108     C
H       0.4735   0.6274   0.7908     H
H       0.4735   0.8726   0.2908     H
C       0.4739   0.6317   0.3546     C
C       0.4739   0.8683   0.8546     C
H       0.4767   0.6393   0.4652     H
H       0.4767   0.8607   0.9652     H
H       0.4887   0.2179   0.2121     H
H       0.4887   0.2821   0.7121     H
H       0.5113   0.7179   0.2879     H
H       0.5113   0.7821   0.7879     H
H       0.5233   0.1393   0.0348     H
H       0.5233   0.3607   0.5348     H
C       0.5261   0.1317   0.1454     C
C       0.5261   0.3683   0.6454     C
H       0.5265   0.1274   0.7092     H
H       0.5265   0.3726   0.2092     H
C       0.5276   0.7315    0.892     C
C       0.5276   0.7685    0.392     C
H       0.5297   0.5089   0.9194     H
H       0.5297   0.9911   0.4194     H
H        0.531   0.7496   0.4429     H
H        0.531   0.7504   0.9429     H
C       0.5314   0.7016   0.3386     C
C       0.5314   0.7984   0.8386     C
C       0.5318    0.042   0.4104     C
C       0.5318    0.458   0.9104     C
C       0.5366   0.1932   0.3859     C
C       0.5366   0.3068   0.8859     C
C       0.5392   0.2292    0.875     C
C       0.5392   0.2708    0.375     C
H       0.5444   0.0947   0.2505     H
H       0.5444   0.4053   0.7505     H
C       0.5462   0.1097   0.0749     C
C       0.5462   0.3903   0.5749     C
C       0.5585   0.0833   0.2017     C
C       0.5585   0.4167   0.7017     C
C       0.5621   0.6826   0.6343     C
C       0.5621   0.8174   0.1343     C
C       0.5626   0.6559   0.1063     C
C       0.5626   0.8441   0.6063     C
C       0.5657    0.582    0.094     C
C       0.5657    0.918    0.594     C
C       0.5668   0.1796    0.617     C
C       0.5668   0.3204    0.117     C
C       0.5794   0.1307   0.6742     C
C       0.5794   0.3693   0.1742     C
O       0.5795   0.6511   0.6937     O
O       0.5795   0.8489   0.1937     O
C       0.5998   0.0447   0.0633     C
C       0.5998   0.4553   0.5633     C
C       0.6111   0.0192   0.1858     C
C       0.6111   0.4808   0.6858     C
H       0.6133   0.0314   0.0149     H
H       0.6133   0.4686   0.5149     H
O       0.6204  0.67487  0.57932     O
O       0.6204  0.82513  0.07932     O
H       0.6278   0.6826   0.1098     H
H       0.6278   0.8174   0.6098     H
C       0.6289    0.075   0.4019     C
C       0.6289    0.425   0.9019     C
H       0.6323    0.558   0.0884     H
H       0.6323    0.942   0.5884     H
H       0.6324   0.5125   0.7247     H
H       0.6324   0.9875   0.2247     H
N       0.6336   0.5006   0.6175     N
N       0.6336   0.9994   0.1175     N
C       0.6361   0.1517   0.3894     C
C       0.6361   0.3483   0.8894     C
C       0.6362   0.1946   0.8693     C
C       0.6362   0.3054   0.3693     C
H       0.6378   0.1434   0.8622     H
H       0.6378   0.3566   0.3622     H
H       0.6432   0.6831   0.8251     H
H       0.6432   0.8169   0.3251     H
C       0.6453   0.7127   0.8707     C
C       0.6453   0.7873   0.3707     C
H       0.6462   0.2159   0.5301     H
H       0.6462   0.2841   0.0301     H
C       0.6496   0.1821   0.5691     C
C       0.6496   0.3179   0.0691     C
C       0.6575   0.7049   0.3524     C
C       0.6575   0.7951   0.8524     C
C       0.6711   0.0861   0.6799     C
C       0.6711   0.4139   0.1799     C
H       0.6757   0.6786    0.399     H
H       0.6757   0.8214    0.899     H
H       0.6783   0.0534   0.7198     H
H       0.6783   0.4466   0.2198     H
H       0.6925   0.0465   0.4045     H
H       0.6925   0.4535   0.9045     H
H       0.6942   0.5712   0.3017     H
H       0.6942   0.9288   0.8017     H
O       0.7079   0.5492   0.4511     O
O       0.7079   0.9508   0.9511     O
Zn     0.72495  0.59337  0.60051    Zn
Zn     0.72495  0.90663  0.10051    Zn
C       0.7258     0.68   0.9266     C
C       0.7258     0.82   0.4266     C
H       0.7315   0.5764   0.8869     H
H       0.7315   0.9236   0.3869     H
C       0.7337   0.2342   0.8737     C
C       0.7337   0.2658   0.3737     C
C       0.7346   0.6794   0.2978     C
C       0.7346   0.8206   0.7978     C
C       0.7362   0.1905   0.3823     C
C       0.7362   0.3095   0.8823     C
C       0.7371   0.1354   0.5781     C
C       0.7371   0.3646   0.0781     C
C       0.7412   0.6051   0.2808     C
C       0.7412   0.8949   0.7808     C
N       0.7491   0.0869   0.6324     N
N       0.7491   0.4131   0.1324     N
H       0.7536   0.7275   0.4867     H
H       0.7536   0.7725   0.9867     H
C       0.7594   0.6076   0.9244     C
C       0.7594   0.8924   0.4244     C
C       0.7735   0.7228   0.9824     C
C       0.7735   0.7772   0.4824     C
H       0.7914    0.138    0.544     H
H       0.7914    0.362    0.044     H
H       0.7981   0.1808    0.186     H
H       0.7981   0.3192    0.686     H
H       0.7994   0.2085   0.8707     H
H       0.7994   0.2915   0.3707     H
H       0.8046   0.7229   0.7757     H
H       0.8046   0.7771   0.2757     H
C       0.8054   0.5579   0.4715     C
C       0.8054   0.9421   0.9715     C
O       0.8058   0.6012    0.696     O
O       0.8058   0.8988    0.196     O
C       0.8065   0.7263    0.266     C
C       0.8065   0.7737    0.766     C
H       0.8127   0.0668   0.9084     H
H       0.8127   0.4332   0.4084     H
C       0.8169   0.5813   0.2334     C
C       0.8169   0.9187   0.7334     C
H       0.8199   0.5308   0.2224     H
H       0.8199   0.9692   0.7224     H
H       0.8244   0.0592   0.2224     H
H       0.8244   0.4408   0.7224     H
C       0.8339   0.5805    0.977     C
C       0.8339   0.9195    0.477     C
O       0.8401   0.5882   0.5277     O
O       0.8401   0.9118   0.0277     O
C       0.8471    0.156   0.3837     C
C       0.8471    0.344   0.8837     C
C        0.849   0.6933    0.031     C
C        0.849   0.8067    0.531     C
C       0.8513   0.1517    0.165     C
C       0.8513   0.3483    0.665     C
H       0.8534   0.5306   0.9752     H
H       0.8534   0.9694   0.4752     H
O       0.8605  0.08667   0.3873     O
O       0.8605  0.41333   0.8873     O
C       0.8677   0.0801   0.1869     C
C       0.8677   0.4199   0.6869     C
C        0.874   0.0404   0.8946     C
C        0.874   0.4596   0.3946     C
N        0.879   0.6226  0.03029     N
N        0.879   0.8774  0.53029     N
C       0.8812   0.6981   0.2199     C
C       0.8812   0.8019   0.7199     C
H       0.8817   0.7243   0.0669     H
H       0.8817   0.7757   0.5669     H
H       0.8854   0.0344   0.6276     H
H       0.8854   0.4656   0.1276     H
N       0.8863   0.6266  0.20209     N
N       0.8863   0.8734  0.70209     N
C       0.8915   0.5287   0.4211     C
C       0.8915   0.9713   0.9211     C
C       0.8936   0.5766   0.7249     C
C       0.8936   0.9234   0.2249     C
H       0.9023   0.2291    0.092     H
H       0.9023   0.2709    0.592     H
C       0.9168   0.1813   0.1096     C
C       0.9168   0.3187   0.6096     C
O        0.919    0.589   0.7903     O
O        0.919    0.911   0.2903     O
O       0.9276   0.1974   0.3807     O
O       0.9276   0.3026   0.8807     O
H       0.9311   0.7307   0.1999     H
H       0.9311   0.7693   0.6999     H
H       0.9329   0.1221   0.8324     H
H       0.9329   0.3779   0.3324     H
C        0.945   0.0731   0.8475     C
C        0.945   0.4269   0.3475     C
O       0.9491  0.01926  0.62045     O
O       0.9491  0.48074  0.12045     O
C       0.9498   0.0381    0.156     C
C       0.9498   0.4619    0.656     C
H       0.9597    0.666   0.4516     H
H       0.9597    0.834   0.9516     H
C       0.9687   0.5359   0.6773     C
C       0.9687   0.9641   0.1773     C
Zn      0.9762  0.58917  0.11823    Zn
Zn      0.9762  0.91083  0.61823    Zn
C       0.9819   0.5704   0.3963     C
C       0.9819   0.9296   0.8963     C
H        0.996   0.0424   0.6474     H
H        0.996   0.4576   0.1474     H
C       0.9966   0.1435   0.0826     C
C       0.9966   0.3565   0.5826     C
