data_I
_chemical_name_common  '/Users/gianmarcoterrones/Research/MOFs/MOF_structures/water_stability_work_extra_structs/cleaned_from_CCDC/WUTBAQ'
_cell_length_a 14.98515
_cell_length_b 18.11715
_cell_length_c 18.11715
_cell_angle_alpha 80.15206
_cell_angle_beta  65.57117
_cell_angle_gamma 65.57117
_space_group_name_H-M_alt      'P 1'


loop_
_space_group_symop_operation_xyz
  'x, y, z' 

loop_
_atom_site_label
_atom_site_fract_x
_atom_site_fract_y
_atom_site_fract_z
_atom_site_type_symbol
H     0.00755173 0.86002338 0.50384418     H
O     0.0162042 0.9151697 0.3625345     O
O     0.0206902 0.38556836 0.31868124     O
O     0.0341346 0.87921953 0.83742347     O
O     0.04527187 0.20274622 0.34755302     O
O      0.04775 0.20827171 0.19580709     O
C     0.05980105 0.14734705 0.47621625     C
O     0.0656703 0.69884668 0.71967652     O
C     0.0736638 0.08820614 0.14418646     C
C     0.07604216 0.09012114 0.60907174     C
C     0.085825 0.579028 0.6677674     C
O     0.0921021 0.8298064 0.6673198     O
O     0.09374144 0.68131876 0.88556836     O
C     0.095467 0.0316288 0.732468     C
C     0.09578234 0.17883376 0.40128736     C
H     0.09722259 0.62092191 0.03005011     H
Zr     0.10363  0.27536  0.24168    Zr
C     0.1095625 0.13707896 0.16317744     C
H     0.1165494 0.97921307 0.09648373     H
C     0.11712314 0.12607056 0.52352296     C
H     0.12076683 0.89664893 0.52059381     H
Zr     0.12101  0.75832  0.77536    Zr
C     0.1218704 0.62633481 0.68904399     C
H     0.1272727 0.46994989 0.62092191     H
O     0.12844193 0.33742347 0.12078047     O
O     0.1338877 0.0652582 0.6524364     O
C     0.1404362 0.5316288 0.232468     C
C     0.14246357 0.0144929 0.11019276     C
O     0.1484177 0.5652582 0.1524364     O
C     0.1532929 0.50409921 0.63628079     C
C     0.15739211 0.63628079 0.99590079     C
C     0.164853 0.6677674 0.920972     C
C     0.172065 0.232468 0.9683712     C
C     0.17350049 0.85182521 0.61223861     C
C     0.17841396 0.88581894 0.53852534     C
O     0.18779749 0.64069414 0.46315668     O
C     0.18908561 0.18904399 0.37366519     C
H     0.1922462 0.52078693 0.40351627     H
O     0.19324574 0.95664764 0.38109488     O
C     0.21042631 0.13628079 0.49590079     C
H     0.21303313 0.40351627 0.97921307     H
O     0.2136759 0.1524364 0.9347418     O
C     0.2142609 0.11223861 0.14817479     C
O     0.21465318 0.21967652 0.30115332     O
C     0.21785026 0.35581354 0.08820614     C
H     0.2181445 0.03005011 0.87907809     H
C     0.22476496 0.59012114 0.10907174     C
C     0.2253839 0.59871264 0.67883376     C
C     0.23328334 0.62607056 0.02352296     C
O     0.2405781 0.1673198 0.1701936     O
O     0.24355709 0.30419291 0.20827171     O
O     0.24397829 0.80419291 0.70827171     O
C     0.2464076 0.1677674 0.420972     C
C     0.24716201 0.98965251 0.09519007     C
C     0.24820521 0.68904399 0.87366519     C
O     0.2492224 0.37921953 0.33742347     O
H     0.25180539 0.12092191 0.53005011     H
O     0.25198191 0.65244698 0.70274622     O
C     0.25265633 0.38980724 0.0144929     C
C     0.25335854 0.83682256 0.63707896     C
C     0.2568063 0.47647704 0.62607056     C
C     0.26318548 0.90480993 0.48965251     C
O     0.26451698 0.71967652 0.80115332     O
C     0.26714923 0.4855071 0.38980724     C
C     0.26879534 0.94362164 0.40549168     C
C     0.27273994 0.33682256 0.13707896     C
O     0.2750602 0.88556836 0.81868124     O
C     0.2830607 0.03852534 0.11418106     C
C     0.28758302 0.59450832 0.44362164     C
O     0.29164831 0.85930586 0.03684332     O
C     0.2928519 0.52378375 0.64734705     C
C     0.2936729 0.99590079 0.86371921     C
O     0.2939084 0.5848303 0.1374655     O
O     0.3008541 0.3475636 0.5652582     O
C     0.3060564 0.41179386 0.35581354     C
C     0.3148861 0.10907174 0.90987886     C
C     0.31663565 0.64734705 0.97621625     C
C     0.32409654 0.67883376 0.90128736     C
C     0.32571298 0.90549168 0.05637836     C
O     0.32849163 0.46315668 0.85930586     O
C     0.33200459 0.51034749 0.40480993     C
C     0.3326204 0.920972 0.8322326     C
C     0.3338367 0.39092826 0.59012114     C
C     0.33813006 0.85581354 0.58820614     C
O     0.33937144 0.18131876 0.38556836     O
C     0.34235208 0.40480993 0.98965251     C
C     0.34304353 0.88980724 0.5144929     C
Zr     0.34531  0.25832  0.27536    Zr
O     0.34904583 0.96315668 0.35930586     O
O     0.35010662 0.61890512 0.45664764     O
H     0.35863936 0.02059381 0.10335107     H
C     0.3593539 0.02352296 0.87392944     C
C     0.36243569 0.35182521 0.11223861     C
H     0.36757511 0.50384418 0.63997662     H
H     0.37141929 0.63997662 0.99615582     H
C     0.3729042 0.267532 0.5316288     C
O     0.3787387 0.1374655 0.9151697     O
Zr     0.37933  0.77536  0.74168    Zr
C     0.38209134 0.44362164 0.90549168     C
O     0.39282489 0.15244698 0.20274622     O
C     0.39724176 0.38581894 0.03852534     C
H     0.40423753 0.90351627 0.47921307     H
O     0.40442889 0.70274622 0.84755302     O
C     0.4098189 0.36292104 0.33682256     C
O     0.4107717 0.3298064 0.1673198     O
O     0.41335413 0.83742347 0.62078047     O
O     0.4219085 0.6673198 0.6701936     O
O     0.42565938 0.88109488 0.04335236     O
O     0.4313739 0.3625345 0.5848303     O
C     0.4357671 0.46147466 0.38581894     C
C     0.4372492 0.87366519 0.81095601     C
O     0.4518288 0.29172829 0.30419291     O
H     0.46199043 0.39664893 0.02059381     H
C     0.4639827 0.97621625 0.85265295     C
O     0.46901174 0.45664764 0.88109488     O
C     0.4746743 0.38776139 0.35182521     C
H     0.48258424 0.47940619 0.39664893     H
O     0.4841935 0.80115332 0.78032348     O
H     0.48860409 0.00384418 0.13997662     H
C     0.4970697 0.09871264 0.17883376     C
C     0.5029303 0.90128736 0.82116624     C
H     0.51139591 0.99615582 0.86002338     H
O     0.5158065 0.19884668 0.21967652     O
H     0.51741576 0.52059381 0.60335107     H
C     0.5253257 0.61223861 0.64817479     C
O     0.53098826 0.54335236 0.11890512     O
C     0.5360173 0.02378375 0.14734705     C
H     0.53800957 0.60335107 0.97940619     H
O     0.5481712 0.70827171 0.69580709     O
C     0.5627508 0.12633481 0.18904399     C
C     0.5642329 0.53852534 0.61418106     C
O     0.5686261 0.6374655 0.4151697     O
O     0.57434062 0.11890512 0.95664764     O
O     0.5780915 0.3326802 0.3298064     O
O     0.58664587 0.16257653 0.37921953     O
O     0.5892283 0.6701936 0.8326802     O
C     0.5901811 0.63707896 0.66317744     C
O     0.59557111 0.29725378 0.15244698     O
H     0.59576247 0.09648373 0.52078693     H
C     0.60275824 0.61418106 0.96147466     C
O     0.60717511 0.84755302 0.79725378     O
C     0.61790866 0.55637836 0.09450832     C
Zr     0.62067  0.22464  0.25832    Zr
O     0.6212613 0.8625345 0.0848303     O
C     0.6270958 0.732468 0.4683712     C
H     0.62858071 0.36002338 0.00384418     H
H     0.63242489 0.49615582 0.36002338     H
C     0.63756431 0.64817479 0.88776139     C
C     0.6406461 0.97647704 0.12607056     C
H     0.64136064 0.97940619 0.89664893     H
O     0.64989338 0.38109488 0.54335236     O
O     0.65095417 0.03684332 0.64069414     O
Zr     0.65469  0.74168  0.72464    Zr
C     0.65695647 0.11019276 0.4855071     C
C     0.65764792 0.59519007 0.01034749     C
O     0.66062856 0.81868124 0.61443164     O
C     0.66186994 0.14418646 0.41179386     C
C     0.6661633 0.60907174 0.40987886     C
C     0.6673796 0.079028 0.1677674     C
C     0.66799541 0.48965251 0.59519007     C
O     0.67150837 0.53684332 0.14069414     O
C     0.67428702 0.09450832 0.94362164     C
C     0.67590346 0.32116624 0.09871264     C
C     0.68336435 0.35265295 0.02378375     C
C     0.6851139 0.89092826 0.09012114     C
C     0.6939436 0.58820614 0.64418646     C
O     0.6991459 0.6524364 0.4347418     O
O     0.7060916 0.4151697 0.8625345     O
C     0.7063271 0.00409921 0.13628079     C
C     0.7071481 0.47621625 0.35265295     C
O     0.70835169 0.14069414 0.96315668     O
C     0.71241698 0.40549168 0.55637836     C
C     0.7169393 0.96147466 0.88581894     C
O     0.7249398 0.11443164 0.18131876     O
C     0.72726006 0.66317744 0.86292104     C
C     0.73120466 0.05637836 0.59450832     C
C     0.73285077 0.5144929 0.61019276     C
O     0.73548302 0.28032348 0.19884668     O
C     0.73681452 0.09519007 0.51034749     C
C     0.7431937 0.52352296 0.37392944     C
C     0.74664146 0.16317744 0.36292104     C
C     0.74734367 0.61019276 0.9855071     C
O     0.74801809 0.34755302 0.29725378     O
H     0.74819461 0.87907809 0.46994989     H
O     0.7507776 0.62078047 0.66257653     O
C     0.75179479 0.31095601 0.12633481     C
C     0.75283799 0.01034749 0.90480993     C
C     0.7535924 0.8322326 0.579028     C
O     0.75602171 0.19580709 0.29172829     O
O     0.75644291 0.69580709 0.79172829     O
O     0.7594219 0.8326802 0.8298064     O
C     0.76671666 0.37392944 0.97647704     C
C     0.7746161 0.40128736 0.32116624     C
C     0.77523504 0.40987886 0.89092826     C
H     0.7818555 0.96994989 0.12092191     H
C     0.78214974 0.64418646 0.91179386     C
O     0.78534682 0.78032348 0.69884668     O
C     0.7857391 0.88776139 0.85182521     C
O     0.7863241 0.8475636 0.0652582     O
H     0.78696687 0.59648373 0.02078693     H
C     0.78957369 0.86371921 0.50409921     C
O     0.80675426 0.04335236 0.61890512     O
H     0.8077538 0.47921307 0.59648373     H
C     0.81091439 0.81095601 0.62633481     C
O     0.81220251 0.35930586 0.53684332     O
C     0.82158604 0.11418106 0.46147466     C
C     0.82649951 0.14817479 0.38776139     C
C     0.827935 0.767532 0.0316288     C
C     0.835147 0.3322326 0.079028     C
C     0.84260789 0.36371921 0.00409921     C
C     0.8467071 0.49590079 0.36371921     C
O     0.8515823 0.4347418 0.8475636     O
C     0.85753643 0.9855071 0.88980724     C
C     0.8595638 0.4683712 0.767532     C
O     0.8661123 0.9347418 0.3475636     O
O     0.87155807 0.66257653 0.87921953     O
H     0.8727273 0.53005011 0.37907809     H
C     0.8781296 0.37366519 0.31095601     C
Zr     0.87899  0.24168  0.22464    Zr
H     0.87923317 0.10335107 0.47940619     H
C     0.88287686 0.87392944 0.47647704     C
H     0.8834506 0.02078693 0.90351627     H
C     0.8904375 0.86292104 0.83682256     C
Zr     0.89637  0.72464  0.75832    Zr
H     0.90277741 0.37907809 0.96994989     H
C     0.90421766 0.82116624 0.59871264     C
C     0.904533 0.9683712 0.267532     C
O     0.90625856 0.31868124 0.11443164     O
O     0.9078979 0.1701936 0.3326802     O
C     0.914175 0.420972 0.3322326     C
C     0.92395784 0.90987886 0.39092826     C
C     0.9263362 0.91179386 0.85581354     C
O     0.9343297 0.30115332 0.28032348     O
C     0.94019895 0.85265295 0.52378375     C
O      0.95225 0.79172829 0.80419291     O
O     0.95472813 0.79725378 0.65244698     O
O     0.9658654 0.12078047 0.16257653     O
O     0.9793098 0.61443164 0.68131876     O
O     0.9837958 0.0848303 0.6374655     O
H     0.99244827 0.13997662 0.49615582     H
