data_I
_chemical_name_common  '/Users/gianmarcoterrones/Research/MOFs/MOF_structures/water_stability_work_extra_structs/cleaned_from_CoRE/XACFEN_charged'
_cell_length_a 11.63000
_cell_length_b 11.63000
_cell_length_c 15.73100
_cell_angle_alpha 90.00000
_cell_angle_beta  90.00000
_cell_angle_gamma 120.00000
_space_group_name_H-M_alt      'P 1'


loop_
_space_group_symop_operation_xyz
  'x, y, z' 

loop_
_atom_site_label
_atom_site_fract_x
_atom_site_fract_y
_atom_site_fract_z
_atom_site_type_symbol
P          0.0      0.0   0.1338     P
Cd         0.0      0.0   0.4724    Cd
P          0.0      0.0   0.6338     P
Cd         0.0      0.0   0.9724    Cd
O       0.0034    0.168   0.8947     O
H       0.0188   0.8196     0.18     H
H       0.0427   0.7756   0.6547     H
C       0.0511   0.2561   0.1457     C
H       0.0622   0.1537   0.2441     H
H       0.0633   0.6495   0.4308     H
H       0.0664   0.2596   0.0849     H
O       0.0775   0.2466   0.4806     O
C        0.078   0.9147   0.1843     C
O       0.0793   0.4326    0.246     O
C       0.0853   0.1633   0.1843     C
H       0.0915   0.9378   0.2441     H
C        0.095   0.8329   0.4273     C
H       0.1265   0.7222   0.3459     H
C       0.1311    0.393   0.1823     C
C       0.1323   0.7327   0.4072     C
H       0.1537   0.0915   0.7441     H
H       0.1619   0.4746    0.429     H
C       0.1633    0.078   0.6843     C
O       0.1646   0.9966   0.8947     O
C       0.1671   0.2621   0.4273     C
O        0.168   0.1646   0.3947     O
O       0.1691   0.9225   0.4806     O
H       0.1804   0.1992     0.18     H
H       0.1932   0.9336   0.0849     H
H       0.1992   0.0188     0.68     H
C        0.205   0.9489   0.1457     C
H       0.2244   0.2671   0.6547     H
H       0.2385   0.7183   0.4898     H
O        0.239   0.7605   0.1529     O
O       0.2395   0.4785   0.1529     O
O       0.2466   0.1691   0.9806     O
C       0.2491   0.7436   0.4303     C
C       0.2561    0.205   0.6457     C
C       0.2564   0.5055   0.4303     C
H       0.2596   0.1932   0.5849     H
C       0.2619   0.8689   0.1823     C
C       0.2621    0.095   0.9273     C
H       0.2671   0.0427   0.1547     H
C       0.2673   0.3996   0.4072     C
H       0.2778   0.4043   0.3459     H
H       0.2817   0.5202   0.4898     H
H       0.3127   0.8381    0.429     H
Cd    0.33333333 0.66666667   0.2258    Cd
P     0.33333333 0.66666667   0.3839     P
H       0.3505   0.4138   0.4308     H
O       0.3533   0.9207    0.246     O
C        0.393   0.2619   0.6823     C
C       0.3996   0.1323   0.9072     C
H       0.4043   0.1265   0.8459     H
H       0.4138   0.0633   0.9308     H
O       0.4326   0.3533    0.746     O
H       0.4746   0.3127    0.929     H
O       0.4785    0.239   0.6529     O
H       0.4798   0.7615   0.4898     H
C       0.4945   0.7509   0.4303     C
C       0.5055   0.2491   0.9303     C
H       0.5202   0.2385   0.9898     H
O       0.5215    0.761   0.1529     O
H       0.5254   0.6873    0.429     H
O       0.5674   0.6467    0.246     O
H       0.5862   0.9367   0.4308     H
H       0.5957   0.8735   0.3459     H
C       0.6004   0.8677   0.4072     C
C        0.607   0.7381   0.1823     C
O       0.6467   0.0793    0.746     O
H       0.6495   0.5862   0.9308     H
Cd    0.66666667 0.33333333   0.7258    Cd
P     0.66666667 0.33333333   0.8839     P
H       0.6873   0.1619    0.929     H
H       0.7183   0.4798   0.9898     H
H       0.7222   0.5957   0.8459     H
C       0.7327   0.6004   0.9072     C
H       0.7329   0.9573   0.6547     H
C       0.7379    0.905   0.4273     C
C       0.7381   0.1311   0.6823     C
H       0.7404   0.8068   0.0849     H
C       0.7436   0.4945   0.9303     C
C       0.7439    0.795   0.1457     C
C       0.7509   0.2564   0.9303     C
O       0.7534   0.8309   0.4806     O
O       0.7605   0.5215   0.6529     O
O        0.761   0.2395   0.6529     O
H       0.7615   0.2817   0.9898     H
H       0.7756   0.7329   0.1547     H
C        0.795   0.0511   0.6457     C
H       0.8008   0.9812     0.18     H
H       0.8068   0.0664   0.5849     H
H       0.8196   0.8008     0.68     H
O       0.8309   0.0775   0.9806     O
O        0.832   0.8354   0.8947     O
C       0.8329   0.7379   0.9273     C
O       0.8354   0.0034   0.3947     O
C       0.8367    0.922   0.1843     C
H       0.8381   0.5254    0.929     H
H       0.8463   0.9085   0.2441     H
C       0.8677   0.2673   0.9072     C
C       0.8689    0.607   0.6823     C
H       0.8735   0.2778   0.8459     H
C        0.905   0.1671   0.9273     C
H       0.9085   0.0622   0.7441     H
C       0.9147   0.8367   0.6843     C
O       0.9207   0.5674    0.746     O
C        0.922   0.0853   0.6843     C
O       0.9225   0.7534   0.9806     O
H       0.9336   0.7404   0.5849     H
H       0.9367   0.3505   0.9308     H
H       0.9378   0.8463   0.7441     H
C       0.9489   0.7439   0.6457     C
H       0.9573   0.2244   0.1547     H
H       0.9812   0.1804     0.68     H
O       0.9966    0.832   0.3947     O
