data_I
_chemical_name_common  '/Users/gianmarcoterrones/Research/MOFs/MOF_structures/water_stability_work_extra_structs/cleaned_from_CoRE/XANMUX_clean'
_cell_length_a  7.34730
_cell_length_b 13.53564
_cell_length_c 13.53564
_cell_angle_alpha 65.67691
_cell_angle_beta  74.25206
_cell_angle_gamma 74.25206
_space_group_name_H-M_alt      'P 1'


loop_
_space_group_symop_operation_xyz
  'x, y, z' 

loop_
_atom_site_label
_atom_site_fract_x
_atom_site_fract_y
_atom_site_fract_z
_atom_site_type_symbol
Cu         0.0      0.5      0.5    Cu
C       0.0096   0.4955   0.2783     C
C       0.0514   0.5751   0.0281     C
C       0.0517   0.5012   0.8954     C
H       0.0856   0.6272   0.0478     H
N      0.09051  0.50609  0.62569     N
C       0.1025   0.4233   0.0815     C
N       0.1063    0.503   0.7844     N
H       0.1071   0.2565   0.4955     H
C       0.1073   0.5767   0.9185     C
H       0.1409   0.4955   0.2565     H
C       0.1546   0.4249   0.9719     C
H       0.1707   0.3696   0.1384     H
H       0.1787   0.6304   0.8616     H
C       0.2166   0.2783   0.4955     C
N      0.22229  0.37431  0.49391     N
H       0.2394   0.0478   0.6272     H
H       0.2606   0.3728   0.9522     H
N      0.27771  0.50609  0.62569     N
C       0.2834   0.5045   0.7217     C
H       0.3213   0.1384   0.3696     H
H       0.3293   0.8616   0.6304     H
C       0.3454   0.0281   0.5751     C
H       0.3591   0.7435   0.5045     H
C       0.3927   0.0815   0.4233     C
H       0.3929   0.5045   0.7435     H
N       0.3937   0.2156    0.497     N
C       0.3975   0.9185   0.5767     C
N      0.40949  0.37431  0.49391     N
H       0.4144   0.9522   0.3728     H
C       0.4483   0.1046   0.4988     C
C       0.4486   0.9719   0.4249     C
C       0.4904   0.7217   0.5045     C
Cu         0.5      0.5      0.5    Cu
C       0.5096   0.2783   0.4955     C
C       0.5514   0.0281   0.5751     C
C       0.5517   0.8954   0.5012     C
H       0.5856   0.0478   0.6272     H
N      0.59051  0.62569  0.50609     N
C       0.6025   0.0815   0.4233     C
N       0.6063   0.7844    0.503     N
H       0.6071   0.4955   0.2565     H
C       0.6073   0.9185   0.5767     C
H       0.6409   0.2565   0.4955     H
C       0.6546   0.9719   0.4249     C
H       0.6707   0.1384   0.3696     H
H       0.6787   0.8616   0.6304     H
C       0.7166   0.4955   0.2783     C
N      0.72229  0.49391  0.37431     N
H       0.7394   0.6272   0.0478     H
H       0.7606   0.9522   0.3728     H
N      0.77771  0.62569  0.50609     N
C       0.7834   0.7217   0.5045     C
H       0.8213   0.3696   0.1384     H
H       0.8293   0.6304   0.8616     H
C       0.8454   0.5751   0.0281     C
H       0.8591   0.5045   0.7435     H
C       0.8927   0.4233   0.0815     C
H       0.8929   0.7435   0.5045     H
N       0.8937    0.497   0.2156     N
C       0.8975   0.5767   0.9185     C
N      0.90949  0.49391  0.37431     N
H       0.9144   0.3728   0.9522     H
C       0.9483   0.4988   0.1046     C
C       0.9486   0.4249   0.9719     C
C       0.9904   0.5045   0.7217     C
