data_I
_chemical_name_common  '/Users/gianmarcoterrones/Research/MOFs/MOF_structures/water_stability_work_extra_structs/cleaned_from_CCDC/XEJJEC'
_cell_length_a  7.94400
_cell_length_b  9.01900
_cell_length_c 10.06000
_cell_angle_alpha 82.74000
_cell_angle_beta  77.50000
_cell_angle_gamma 68.92000
_space_group_name_H-M_alt      'P 1'


loop_
_space_group_symop_operation_xyz
  'x, y, z' 

loop_
_atom_site_label
_atom_site_fract_x
_atom_site_fract_y
_atom_site_fract_z
_atom_site_type_symbol
O       0.0077   0.8363    0.626     O
C       0.0269   0.1256   0.8303     C
C       0.0356   0.6998    0.944     C
H       0.0371   0.3219   0.2271     H
H        0.047   0.0634   0.7552     H
H       0.0545   0.5135   0.8487     H
O        0.067    0.071    0.451     O
C       0.0694   0.6173    0.817     C
C        0.123   0.7413   0.6981     C
O       0.1236   0.3989   0.5613     O
O       0.1336   0.3046   0.5058     O
C       0.1382   0.1889   0.0096     C
C       0.1487    0.761   0.1274     C
C       0.1706    0.104   0.8972     C
C       0.1769    0.677   0.0145     C
C        0.231   0.5791   0.7019     C
O       0.2315   0.4996   0.6129     O
H       0.2353   0.1722   0.0571     H
H       0.2639   0.8413   0.2531     H
O        0.278   0.9088   0.5159     O
O       0.2842    0.747   0.6775     O
O       0.2925   0.4834   0.2908     O
H       0.2949    0.602   0.9841     H
C       0.2977    0.744   0.2031     C
O       0.3255    0.656   0.7085     O
C       0.3337   0.6003   0.3037     C
H       0.3428   0.8754   0.8574     H
C       0.3568    0.981   0.8497     C
O        0.376   0.6045   0.4218     O
H       0.4123    0.735   0.1366     H
O       0.4162   0.1441   0.6566     O
O       0.4309   0.1116   0.3533     O
H       0.4393   0.9772    0.912     H
Y      0.44219   0.3135  0.46694     Y
C       0.4475   0.0097   0.7058     C
O        0.468   0.5828   0.3747     O
O        0.532   0.4172   0.6253     O
C       0.5525   0.9903   0.2942     C
Y      0.55781   0.6865  0.53306     Y
H       0.5607   0.0228    0.088     H
O       0.5691   0.8884   0.6467     O
O       0.5838   0.8559   0.3434     O
H       0.5877    0.265   0.8634     H
O        0.624   0.3955   0.5782     O
C       0.6432    0.019   0.1503     C
H       0.6572   0.1246   0.1426     H
C       0.6663   0.3997   0.6963     C
O       0.6745    0.344   0.2915     O
C       0.7023    0.256   0.7969     C
H       0.7051    0.398   0.0159     H
O       0.7075   0.5166   0.7092     O
O       0.7158    0.253   0.3225     O
O        0.722   0.0912   0.4841     O
H       0.7361   0.1587   0.7469     H
H       0.7647   0.8278   0.9429     H
O       0.7685   0.5004   0.3871     O
C        0.769   0.4209   0.2981     C
C       0.8231    0.323   0.9855     C
C       0.8294    0.896   0.1028     C
C       0.8513    0.239   0.8726     C
C       0.8618   0.8111   0.9904     C
O       0.8664   0.6954   0.4942     O
O       0.8764   0.6011   0.4387     O
C        0.877   0.2587   0.3019     C
C       0.9306   0.3827    0.183     C
O        0.933    0.929    0.549     O
H       0.9455   0.4865   0.1513     H
H        0.953   0.9366   0.2448     H
H       0.9629   0.6781   0.7729     H
C       0.9644   0.3002    0.056     C
C       0.9731   0.8744   0.1697     C
O       0.9923   0.1637    0.374     O
