data_I
_chemical_name_common  '/Users/gianmarcoterrones/Research/MOFs/MOF_structures/water_stability_work_extra_structs/cleaned_from_CCDC/XICXOY'
_cell_length_a  8.56920
_cell_length_b 15.03700
_cell_length_c 20.82100
_cell_angle_alpha 90.00000
_cell_angle_beta  90.00000
_cell_angle_gamma 97.05300
_space_group_name_H-M_alt      'P 1'


loop_
_space_group_symop_operation_xyz
  'x, y, z' 

loop_
_atom_site_label
_atom_site_fract_x
_atom_site_fract_y
_atom_site_fract_z
_atom_site_type_symbol
C       0.0122   0.4064  0.37012     C
C       0.0122   0.9064  0.12988     C
H       0.0157   0.2666   0.8935     H
H       0.0157   0.7666   0.6065     H
H       0.0506   0.3837     0.41     H
H       0.0506   0.8837     0.09     H
H       0.0599   0.0511   0.8812     H
H       0.0599   0.5511   0.6188     H
C       0.0729   0.2574  0.85667     C
C       0.0729   0.7574  0.64333     C
C       0.0776   0.1702  0.83474     C
C       0.0776   0.6702  0.66526     C
H       0.0825   0.2993   0.1911     H
H       0.0825   0.7993   0.3089     H
H       0.0841   0.1976   0.0999     H
H       0.0841   0.6976   0.4001     H
H       0.0922   0.0559   0.7174     H
H       0.0922   0.5559   0.7826     H
H       0.1453   0.0215   0.7841     H
H       0.1453   0.5215   0.7159     H
H       0.1473   0.3879    0.841     H
H       0.1473   0.8879    0.659     H
C       0.1508   0.3304  0.82518     C
C       0.1508   0.8304  0.67482     C
C       0.1521  0.45664  0.33407     C
C       0.1521  0.95664  0.16593     C
C       0.1606  0.30122  0.15992     C
C       0.1606  0.80122  0.34008     C
C       0.1608  0.24492  0.10972     C
C       0.1608  0.74492  0.39028     C
C       0.1637  0.15843  0.77953     C
C       0.1637  0.65843  0.72047     C
H       0.1682   0.4721   0.4851     H
H       0.1682   0.9721   0.0149     H
C       0.1709  0.06634  0.75099     C
C       0.1709  0.56634  0.74901     C
O        0.192  0.41868  0.28332     O
O        0.192  0.91868  0.21668     O
N       0.2097  0.36886  0.53807     N
N       0.2097  0.86886  0.96193     N
O       0.2176  0.02605  0.14463     O
O       0.2176  0.52605  0.35537     O
C       0.2247   0.4516  0.51896     C
C       0.2247   0.9516  0.98104     C
H       0.2324   0.1521   0.2507     H
H       0.2324   0.6521   0.2493     H
C       0.2333   0.3175  0.77054     C
C       0.2333   0.8175  0.72946     C
C       0.2412  0.23244  0.74865     C
C       0.2412  0.73244  0.75135     C
H       0.2631   0.1036   0.0432     H
H       0.2631   0.6036   0.4568     H
H       0.2839   0.3664   0.7483     H
H       0.2839   0.8664   0.7517     H
N       0.2942  0.36227  0.15791     N
N       0.2942  0.86227  0.34209     N
N       0.2963  0.27085  0.07575     N
N       0.2963  0.77085  0.42425     N
C       0.2983  0.15417  0.28626     C
C       0.2983  0.65417  0.21374     C
H       0.3001   0.2242   0.7121     H
H       0.3001   0.7242   0.7879     H
C       0.3108   0.3691   0.5879     C
C       0.3108   0.8691   0.9121     C
H       0.3144   0.2845   0.3152     H
H       0.3144   0.7845   0.1848     H
C       0.3166  0.13863  0.01145     C
C       0.3166  0.63863  0.48855     C
H       0.3273    0.319    0.612     H
H       0.3273    0.819    0.888     H
N       0.3286  0.00286   0.9471     N
N       0.3286  0.50286   0.5529     N
C       0.3303  0.05519  0.72317     C
C       0.3303  0.55519  0.77683     C
C        0.343  0.22751  0.32165     C
C        0.343  0.72751  0.17835     C
O       0.3471  0.04278  0.66553     O
O       0.3471  0.54278  0.83447     O
C       0.3486  0.23041  0.01874     C
C       0.3486  0.73041  0.48126     C
Zn     0.35901 0.458521 0.223694    Zn
Zn     0.35901 0.958521 0.276306    Zn
N       0.3644  0.08265  0.31048     N
N       0.3644  0.58265  0.18952     N
C       0.3658  0.10025  0.95599     C
C       0.3658  0.60025  0.54401     C
C       0.3729  0.34155  0.10698     C
C       0.3729  0.84155  0.39302     C
C       0.3836  0.45174   0.5974     C
C       0.3836  0.95174   0.9026     C
C       0.4299  0.28372   0.9731     C
C       0.4299  0.78372   0.5269     C
N       0.4394  0.20195  0.36926     N
N       0.4394  0.70195  0.13074     N
O       0.4427  0.05871  0.76428     O
O       0.4427  0.55871  0.73572     O
C       0.4466  0.15167  0.90843     C
C       0.4466  0.65167  0.59157     C
C       0.4494  0.11407  0.36028     C
C       0.4494  0.61407  0.13972     C
H        0.451   0.3453   0.9789     H
H        0.451   0.8453   0.5211     H
H       0.4578   0.4698   0.6288     H
H       0.4578   0.9698   0.8712     H
H        0.469   0.3718   0.0942     H
H        0.469   0.8718   0.4058     H
H       0.4778   0.1252   0.8709     H
H       0.4778   0.6252   0.6291     H
C       0.4797  0.24305  0.91792     C
C       0.4797  0.74305  0.58208     C
H       0.4916     0.42   0.8858     H
H       0.4916     0.92   0.6142     H
H       0.5084     0.08   0.3858     H
H       0.5084     0.58   0.1142     H
C       0.5203  0.25695  0.41792     C
C       0.5203  0.75695  0.08208     C
H       0.5222   0.3748   0.3709     H
H       0.5222   0.8748   0.1291     H
H        0.531   0.1282   0.5942     H
H        0.531   0.6282   0.9058     H
H       0.5422   0.0302   0.1288     H
H       0.5422   0.5302   0.3712     H
H        0.549   0.1547   0.4789     H
H        0.549   0.6547   0.0211     H
C       0.5506  0.38593  0.86028     C
C       0.5506  0.88593  0.63972     C
C       0.5534  0.34833  0.40843     C
C       0.5534  0.84833  0.09157     C
O       0.5573  0.44129  0.26428     O
O       0.5573  0.94129  0.23572     O
N       0.5606  0.29805  0.86926     N
N       0.5606  0.79805  0.63074     N
C       0.5701  0.21628   0.4731     C
C       0.5701  0.71628   0.0269     C
C       0.6164  0.04826   0.0974     C
C       0.6164  0.54826   0.4026     C
C       0.6271  0.15845  0.60698     C
C       0.6271  0.65845  0.89302     C
C       0.6342  0.39975  0.45599     C
C       0.6342  0.89975  0.04401     C
N       0.6356  0.41735  0.81048     N
N       0.6356  0.91735  0.68952     N
Zn     0.64099 0.041479 0.723694    Zn
Zn     0.64099 0.541479 0.776306    Zn
C       0.6514  0.26959  0.51874     C
C       0.6514  0.76959  0.98126     C
O       0.6529  0.45722  0.16553     O
O       0.6529  0.95722  0.33447     O
C        0.657  0.27249  0.82165     C
C        0.657  0.77249  0.67835     C
C       0.6697  0.44481  0.22317     C
C       0.6697  0.94481  0.27683     C
N       0.6714  0.49714   0.4471     N
N       0.6714  0.99714   0.0529     N
H       0.6727    0.181    0.112     H
H       0.6727    0.681    0.388     H
C       0.6834  0.36137  0.51145     C
C       0.6834  0.86137  0.98855     C
H       0.6856   0.2155   0.8152     H
H       0.6856   0.7155   0.6848     H
C       0.6892   0.1309   0.0879     C
C       0.6892   0.6309   0.4121     C
H       0.6999   0.2758   0.2121     H
H       0.6999   0.7758   0.2879     H
C       0.7017  0.34583  0.78626     C
C       0.7017  0.84583  0.71374     C
N       0.7037  0.22915  0.57575     N
N       0.7037  0.72915  0.92425     N
N       0.7058  0.13773  0.65791     N
N       0.7058  0.63773  0.84209     N
H       0.7161   0.1336   0.2483     H
H       0.7161   0.6336   0.2517     H
H       0.7369   0.3964   0.5432     H
H       0.7369   0.8964   0.9568     H
C       0.7588  0.26756  0.24865     C
C       0.7588  0.76756  0.25135     C
C       0.7667   0.1825  0.27054     C
C       0.7667   0.6825  0.22946     C
H       0.7676   0.3479   0.7507     H
H       0.7676   0.8479   0.7493     H
C       0.7753   0.0484  0.01896     C
C       0.7753   0.5484  0.48104     C
O       0.7824  0.47395  0.64463     O
O       0.7824  0.97395  0.85537     O
N       0.7903  0.13114  0.03807     N
N       0.7903  0.63114  0.46193     N
O        0.808  0.08132  0.78332     O
O        0.808  0.58132  0.71668     O
C       0.8291  0.43366  0.25099     C
C       0.8291  0.93366  0.24901     C
H       0.8318   0.0279   0.9851     H
H       0.8318   0.5279   0.5149     H
C       0.8363  0.34157  0.27953     C
C       0.8363  0.84157  0.22047     C
C       0.8392  0.25508  0.60972     C
C       0.8392  0.75508  0.89028     C
C       0.8394  0.19878  0.65992     C
C       0.8394  0.69878  0.84008     C
C       0.8479  0.04336  0.83407     C
C       0.8479  0.54336  0.66593     C
C       0.8492   0.1696  0.32518     C
C       0.8492   0.6696  0.17482     C
H       0.8527   0.1121    0.341     H
H       0.8527   0.6121    0.159     H
H       0.8547   0.4785   0.2841     H
H       0.8547   0.9785   0.2159     H
H       0.9078   0.4441   0.2174     H
H       0.9078   0.9441   0.2826     H
H       0.9159   0.3024   0.5999     H
H       0.9159   0.8024   0.9001     H
H       0.9175   0.2007   0.6911     H
H       0.9175   0.7007   0.8089     H
C       0.9224   0.3298  0.33474     C
C       0.9224   0.8298  0.16526     C
C       0.9271   0.2426  0.35667     C
C       0.9271   0.7426  0.14333     C
H       0.9401   0.4489   0.3812     H
H       0.9401   0.9489   0.1188     H
H       0.9494   0.1163     0.91     H
H       0.9494   0.6163     0.59     H
H       0.9843   0.2334   0.3935     H
H       0.9843   0.7334   0.1065     H
C       0.9878   0.0936  0.87012     C
C       0.9878   0.5936  0.62988     C
