data_I
_chemical_name_common  '/Users/gianmarcoterrones/Research/MOFs/MOF_structures/water_stability_work_extra_structs/cleaned_from_CCDC/XUMFOC'
_cell_length_a  7.95830
_cell_length_b 15.73600
_cell_length_c 20.21200
_cell_angle_alpha 90.00000
_cell_angle_beta  94.99900
_cell_angle_gamma 90.00000
_space_group_name_H-M_alt      'P 1'


loop_
_space_group_symop_operation_xyz
  'x, y, z' 

loop_
_atom_site_label
_atom_site_fract_x
_atom_site_fract_y
_atom_site_fract_z
_atom_site_type_symbol
C       0.0057   0.9309   0.5414     C
H       0.0106   0.8838   0.5693     H
N       0.0134   0.9733   0.3201     N
O       0.0162    0.544   0.6722     O
C       0.0297   0.5159   0.0658     C
C       0.0368   0.4207   0.9745     C
H       0.0503   0.5261   0.1111     H
H       0.0516   0.7139   0.1772     H
H        0.053   0.1757   0.0889     H
H       0.0537    0.848   0.3184     H
C       0.0589   0.0772   0.5241     C
C       0.0631   0.0092   0.5655     C
C        0.067   0.4376   0.0411     C
N       0.0683   0.7134   0.0786     N
O       0.0723   0.2515   0.1931     O
H       0.0748   0.0955   0.2964     H
C       0.0806    0.335   0.9469     C
C       0.0877   0.9015   0.3054     C
H        0.088   0.0692    0.014     H
H       0.0912   0.0146   0.9071     H
C       0.0982   0.0377   0.2936     C
O       0.0985   0.6586    0.707     O
H       0.0995   0.1295   0.5398     H
H       0.1005   0.0969   0.1333     H
H       0.1105   0.3182   0.4246     H
C       0.1117   0.7313   0.1422     C
H        0.113   0.3957   0.0697     H
H       0.1224   0.5958   0.5386     H
C       0.1236   0.5979   0.6859     C
C       0.1283   0.0192   0.6373     C
H       0.1329   0.1216   0.8364     H
Zn      0.1386  0.32743  0.26757    Zn
H       0.1428   0.3023   0.9816     H
C       0.1448   0.1491   0.1161     C
H       0.1464    0.598   0.3985     H
H       0.1524   0.0314    0.806     H
H       0.1534   0.3432   0.9114     H
O        0.172    0.708   0.2984     O
C       0.1859   0.7487   0.0425     C
C        0.188   0.2058   0.1736     C
H       0.1897   0.6787   0.4416     H
H       0.1897   0.7462   0.9967     H
H       0.1971   0.9704   0.6512     H
H       0.1985   0.0695   0.6424     H
H        0.199    0.531     0.26     H
C       0.2041   0.0352   0.9018     C
C       0.2044   0.0716   0.8378     C
C       0.2045   0.2878   0.4137     C
C         0.21   0.0721   0.0174     C
H       0.2119    0.148    0.947     H
N       0.2161   0.9153   0.2698     N
H       0.2213   0.4864    0.596     H
C       0.2225   0.0018   0.2627     C
C       0.2367   0.6269   0.4249     C
C       0.2444   0.5918   0.5419     C
H       0.2484   0.5152   0.4722     H
N       0.2497   0.7766    0.149     N
N       0.2503   0.2766    0.351     N
H       0.2516   0.0152   0.0278     H
C       0.2556   0.0918   0.9581     C
C       0.2633   0.1269   0.0751     C
C       0.2775   0.5018   0.2373     C
H       0.2787   0.9864    0.904     H
N       0.2839   0.4153   0.2302     N
H       0.2881    0.648    0.553     H
C         0.29   0.5721   0.4826     C
C       0.2955   0.7878   0.0863     C
C       0.2956   0.5716   0.6622     C
C       0.2959   0.5352   0.5982     C
H        0.301    0.031     0.24     H
H       0.3015   0.5695   0.8576     H
H       0.3029   0.4704   0.8488     H
H       0.3103   0.1787   0.0584     H
H       0.3103   0.2462   0.5033     H
C        0.312   0.7058   0.3264     C
C       0.3141   0.2487   0.4575     C
O        0.328    0.208   0.2016     O
H       0.3466   0.8432   0.5886     H
H       0.3476   0.5314    0.694     H
H       0.3536    0.098   0.1015     H
C       0.3552   0.6491   0.3839     C
H       0.3572   0.8023   0.5184     H
Zn      0.3614  0.82743  0.23243    Zn
H       0.3671   0.6216   0.6636     H
C       0.3717   0.5192   0.8627     C
C       0.3764   0.0979   0.8141     C
H       0.3776   0.0958   0.9614     H
H        0.387   0.8957   0.4303     H
C       0.3883   0.2313   0.3578     C
H       0.3895   0.8182   0.0754     H
H       0.3995   0.5969   0.3667     H
H       0.4005   0.6295   0.9602     H
O       0.4015   0.1586    0.793     O
C       0.4018   0.5377   0.2064     C
H       0.4088   0.5146   0.5929     H
H        0.412   0.5692    0.486     H
C       0.4123   0.4015   0.1946     C
C       0.4194    0.835   0.5531     C
H       0.4252   0.5955   0.2036     H
O       0.4277   0.7515   0.3069     O
N       0.4317   0.2134   0.4214     N
C        0.433   0.9376   0.4589     C
C       0.4369   0.5092   0.9345     C
C       0.4411   0.5772   0.9759     C
H       0.4463    0.348   0.1816     H
H        0.447   0.6757   0.4111     H
H       0.4484   0.2139   0.3228     H
H       0.4497   0.0261   0.3889     H
C       0.4632   0.9207   0.5255     C
C       0.4703   0.0159   0.4342     C
O       0.4838    0.044   0.8278     O
N       0.4866   0.4733   0.1799     N
H       0.4894   0.3838   0.9307     H
C       0.4943   0.4309   0.9586     C
C       0.5057   0.5691   0.0414     C
H       0.5106   0.6162   0.0693     H
N       0.5134   0.5267   0.8201     N
O       0.5162    0.956   0.1722     O
C       0.5297   0.9841   0.5658     C
C       0.5368   0.0793   0.4745     C
H       0.5503   0.9739   0.6111     H
H       0.5516   0.7861   0.6772     H
H        0.553   0.3243   0.5889     H
H       0.5537    0.652   0.8184     H
C       0.5589   0.4228   0.0241     C
C       0.5631   0.4908   0.0655     C
C        0.567   0.0624   0.5411     C
N       0.5683   0.7866   0.5786     N
O       0.5723   0.2485   0.6931     O
H       0.5748   0.4045   0.7964     H
C       0.5806    0.165   0.4469     C
C       0.5877   0.5985   0.8054     C
H        0.588   0.4308    0.514     H
H       0.5912   0.4854   0.4071     H
C       0.5982   0.4623   0.7936     C
O       0.5985   0.8414    0.207     O
H       0.5995   0.3705   0.0398     H
H       0.6005   0.4031   0.6333     H
H       0.6105   0.1818   0.9246     H
C       0.6117   0.7687   0.6422     C
H        0.613   0.1043   0.5697     H
H       0.6224   0.9042   0.0386     H
C       0.6236   0.9021   0.1859     C
C       0.6283   0.4808   0.1373     C
H       0.6329   0.3784   0.3364     H
Zn      0.6386  0.17257  0.76757    Zn
H       0.6428   0.1977   0.4816     H
C       0.6448   0.3509   0.6161     C
H       0.6464    0.902   0.8985     H
H       0.6524   0.4686    0.306     H
H       0.6534   0.1568   0.4114     H
O        0.672    0.792   0.7984     O
C       0.6859   0.7513   0.5425     C
C        0.688   0.2942   0.6736     C
H       0.6897   0.7538   0.4967     H
H       0.6897   0.8213   0.9416     H
H       0.6971   0.5296   0.1512     H
H       0.6985   0.4305   0.1424     H
H        0.699    0.969     0.76     H
C       0.7041   0.4648   0.4018     C
C       0.7044   0.4284   0.3378     C
C       0.7045   0.2122   0.9137     C
C         0.71   0.4279   0.5174     C
H       0.7119    0.352    0.447     H
N       0.7161   0.5847   0.7698     N
H       0.7213   0.0136    0.096     H
C       0.7225   0.4982   0.7627     C
C       0.7367   0.8731   0.9249     C
C       0.7444   0.9082   0.0419     C
H       0.7484   0.9848   0.9722     H
N       0.7497   0.7234    0.649     N
N       0.7503   0.2234    0.851     N
H       0.7516   0.4848   0.5278     H
C       0.7556   0.4082   0.4581     C
C       0.7633   0.3731   0.5751     C
C       0.7775   0.9982   0.7373     C
H       0.7787   0.5136    0.404     H
N       0.7839   0.0847   0.7302     N
H       0.7881    0.852    0.053     H
C         0.79   0.9279   0.9826     C
C       0.7955   0.7122   0.5863     C
C       0.7956   0.9284   0.1622     C
C       0.7959   0.9648   0.0982     C
H        0.801    0.469     0.74     H
H       0.8015   0.9305   0.3576     H
H       0.8029   0.0296   0.3488     H
H       0.8103   0.2538   0.0033     H
H       0.8103   0.3213   0.5584     H
C        0.812   0.7942   0.8264     C
C       0.8141   0.2513   0.9575     C
O        0.828    0.292   0.7016     O
H       0.8466   0.6568   0.0886     H
H       0.8476   0.9686    0.194     H
H       0.8536    0.402   0.6015     H
C       0.8552   0.8509   0.8839     C
H       0.8572   0.6977   0.0184     H
Zn      0.8614  0.67257  0.73243    Zn
H       0.8671   0.8784   0.1636     H
C       0.8717   0.9808   0.3627     C
C       0.8764   0.4021   0.3141     C
H       0.8776   0.4042   0.4614     H
H        0.887   0.6043   0.9303     H
C       0.8883   0.2687   0.8578     C
H       0.8895   0.6818   0.5754     H
H       0.8995   0.9031   0.8667     H
H       0.9005   0.8705   0.4602     H
O       0.9015   0.3414    0.293     O
C       0.9018   0.9623   0.7064     C
H       0.9088   0.9854   0.0929     H
H        0.912   0.9308    0.986     H
C       0.9123   0.0985   0.6946     C
C       0.9194    0.665   0.0531     C
H       0.9252   0.9045   0.7036     H
O       0.9277   0.7485   0.8069     O
N       0.9317   0.2866   0.9214     N
C        0.933   0.5624   0.9589     C
C       0.9369   0.9908   0.4345     C
C       0.9411   0.9228   0.4759     C
H       0.9463    0.152   0.6816     H
H        0.947   0.8243   0.9111     H
H       0.9484   0.2861   0.8228     H
H       0.9497   0.4739   0.8889     H
C       0.9632   0.5793   0.0255     C
C       0.9703   0.4841   0.9342     C
O       0.9838    0.456   0.3278     O
N       0.9866   0.0267   0.6799     N
H       0.9894   0.1162   0.4307     H
C       0.9943   0.0691   0.4586     C
