data_I
_chemical_name_common  '/Users/gianmarcoterrones/Research/MOFs/MOF_structures/water_stability_work_extra_structs/cleaned_from_CCDC/YAHPON'
_cell_length_a 15.06961
_cell_length_b 15.06961
_cell_length_c 19.62500
_cell_angle_alpha 83.06040
_cell_angle_beta  83.06040
_cell_angle_gamma 83.41769
_space_group_name_H-M_alt      'P 1'


loop_
_space_group_symop_operation_xyz
  'x, y, z' 

loop_
_atom_site_label
_atom_site_fract_x
_atom_site_fract_y
_atom_site_fract_z
_atom_site_type_symbol
H       0.0026   0.7216   0.5098     H
H       0.0063   0.4749   0.7594     H
C       0.0066    0.249   0.6467     C
H       0.0112   0.5848    0.012     H
C        0.013   0.1544   0.7538     C
C        0.022   0.3748   0.9584     C
H        0.023   0.8674   0.5072     H
H       0.0232   0.4656   0.8729     H
C      0.02874  0.25474   0.3911     C
H       0.0295   0.8745   0.9965     H
H       0.0297   0.2631   0.5999     H
C      0.03331  0.81451   0.6067     C
Ni     0.03433  0.25227  0.09244    Ni
C       0.0351   0.2937   0.4491     C
H       0.0402   0.1046    0.781     H
C       0.0416   0.4052   0.8896     C
H       0.0446   0.5154   0.6429     H
N      0.04749  0.29149  0.98564     N
C       0.0484   0.1776   0.6858     C
C       0.0524   0.8708   0.5468     C
C       0.0576   0.4448   0.7358     C
N      0.05971  0.84121  0.90343     N
O      0.06154  0.65884  0.86695     O
C       0.0629   0.7947   0.2188     C
H       0.0632     0.79   0.7048     H
C        0.068   0.8856    0.955     C
C       0.0682   0.6996   0.3258     C
O       0.0704   0.8846  0.11072     O
O       0.0706  0.17818   0.1895     O
H       0.0711   0.3917   0.1807     H
C       0.0761   0.8249   0.6618     C
H       0.0792   0.2634   0.2891     H
C       0.0814   0.4686   0.6659     C
O       0.0826   0.6148   0.4319     O
C       0.0828   0.2856   0.3319     C
C       0.0879   0.3477   0.8454     C
C       0.0932    0.236   0.9429     C
C        0.096   0.3552   0.4482     C
C       0.0991   0.8207   0.1457     C
H       0.0993   0.3801   0.4899     H
C       0.1032   0.7228   0.2579     C
H       0.1046   0.0402    0.281     H
H       0.1085   0.8311   0.8066     H
C       0.1098   0.3768   0.7703     C
C       0.1113   0.6229   0.3704     C
H       0.1127   0.1767   0.9611     H
C       0.1133   0.2611   0.8738     C
C       0.1134   0.8616   0.8454     C
C       0.1144    0.932    0.545     C
O       0.1154   0.9296  0.38928     O
C       0.1221   0.3941   0.1472     C
C      0.12479  0.12859   0.1533     C
H       0.1255   0.9705   0.5035     H
C      0.12859  0.12479   0.6533     C
C       0.1292   0.9476   0.9532     C
N      0.13175  0.33897  0.09829     N
H       0.1326    0.977   0.9928     H
C       0.1343   0.6253   0.8901     C
O      0.13548  0.14586  0.08846     O
C       0.1384   0.8866   0.6546     C
C       0.1409   0.3481   0.3357     C
H       0.1449   0.2189   0.8451     H
O      0.14586  0.13548  0.58846     O
N      0.15028  0.38188  0.39326     N
N       0.1514   0.4308   0.6295     N
O      0.15342  0.62958  0.94828     O
C       0.1544    0.013   0.2538     C
H       0.1553   0.6889   0.2384     H
N      0.15879  0.94029  0.59657     N
O       0.1676   0.7634   0.1251     O
H       0.1689   0.8915   0.6934     H
H       0.1716    0.493   0.1871     H
O      0.17206  0.57128  0.34265     O
H       0.1721   0.6543   0.7533     H
C       0.1751   0.9239   0.8382     C
H       0.1764   0.3684   0.2946     H
H       0.1767   0.1127   0.4611     H
C       0.1776   0.0484   0.1858     C
O      0.17818   0.0706   0.6895     O
C       0.1793   0.9009   0.3543     C
C       0.1822   0.4542   0.1516     C
C       0.1825   0.3371   0.7327     C
H        0.184   0.7772    0.083     H
C      0.18549  0.96669   0.8933     C
O      0.19481  0.50337  0.49235     O
C       0.2009   0.5765   0.8412     C
C       0.2014   0.3664   0.6631     C
C       0.2053   0.9371   0.2812     C
C       0.2072    0.342   0.0538     C
H         0.21   0.9368   0.7952     H
C       0.2105   0.6049   0.7713     C
H        0.217   0.3014   0.0197     H
H       0.2189   0.1449   0.3451     H
H         0.22   0.2894   0.7541     H
H       0.2228    0.816    0.417     H
O       0.2264   0.6602   0.6348     O
C        0.236   0.0932   0.4429     C
O       0.2366   0.8324   0.3749     O
H       0.2372   0.6792    0.593     H
Ni     0.24621  0.47123  0.39489    Ni
C        0.249   0.0066   0.1467     C
H       0.2504    0.483   0.9144     H
Ni     0.25227  0.03433  0.59244    Ni
H       0.2531   0.3385   0.6384     H
C      0.25474  0.02874   0.8911     C
C       0.2555   0.5021   0.8663     C
C       0.2594   0.4592   0.1042     C
C       0.2611   0.1133   0.3738     C
H       0.2631   0.0297   0.0999     H
H       0.2634   0.0792   0.7891     H
C       0.2704      0.4   0.0548     C
C       0.2751   0.5619   0.7275     C
C       0.2772   0.8968   0.2421     C
H       0.2784   0.9974   0.9902     H
C       0.2856   0.0828   0.8319     C
C       0.2889   0.5945   0.6519     C
H       0.2894     0.22   0.2541     H
N      0.29149  0.04749  0.48564     N
H       0.2919   0.5499   0.2037     H
C       0.2937   0.0351   0.9491     C
C       0.3004   0.9318   0.1742     C
H       0.3014    0.217   0.5197     H
H       0.3111   0.8447   0.2616     H
C       0.3173   0.4551    0.822     C
H       0.3208   0.7628    0.907     H
H       0.3218   0.3994   0.0216     H
C       0.3242   0.5256   0.1048     C
O      0.32629  0.42249  0.30823     O
C       0.3285   0.5661   0.1621     C
C       0.3289   0.4867   0.7525     C
C       0.3371   0.1825   0.2327     C
H       0.3385   0.2531   0.1384     H
N      0.33897  0.13175  0.59829     N
O       0.3398   0.7736   0.8652     O
H         0.34   0.6118   0.3005     H
O      0.34116  0.93846  0.63305     O
C        0.342   0.2072   0.5538     C
N       0.3439   0.5581  0.39676     N
H       0.3457   0.8279   0.7467     H
C       0.3477   0.0879   0.3454     C
O       0.3478  0.36478  0.41294     O
C       0.3481   0.1409   0.8357     C
O       0.3483   0.5651   0.6135     O
C       0.3552    0.096   0.9482     C
O      0.36478   0.3478  0.91294     O
C       0.3664   0.2014   0.1631     C
H       0.3679   0.5227   0.4922     H
H       0.3684   0.1764   0.7946     H
C       0.3688    0.613   0.3408     C
O      0.37042  0.84658  0.55172     O
C        0.371   0.3722   0.8491     C
C       0.3722    0.371   0.3491     C
H       0.3734   0.4572   0.7221     H
C       0.3747   0.8657   0.6099     C
C       0.3748    0.022   0.4584     C
C       0.3768   0.1098   0.2703     C
C       0.3771   0.8887   0.1296     C
H       0.3801   0.0993   0.9899     H
H       0.3814   0.5238   0.0051     H
C       0.3816    0.551   0.0463     C
N      0.38188  0.15028  0.89326     N
C       0.3841   0.5613   0.4518     C
O       0.3852   0.9174   0.0681     O
C        0.387   0.6312   0.1592     C
H       0.3882     0.66   0.1995     H
H       0.3917   0.0711   0.6807     H
C       0.3941   0.1221   0.6472     C
C       0.3951   0.7895   0.7287     C
H       0.3994   0.3218   0.5216     H
C          0.4   0.2704   0.5548     C
C       0.4052   0.0416   0.3896     C
C       0.4055   0.7111   0.8481     C
H       0.4152   0.9888    0.488     H
O      0.42249  0.32629  0.80823     O
C       0.4235   0.7991   0.6588     C
O      0.42872  0.82794  0.15735     O
N       0.4308   0.1514   0.1295     N
C       0.4339   0.6715   0.3379     C
O       0.4349   0.6517   0.8865     O
C       0.4381   0.7249   0.7725     C
C       0.4387   0.6159   0.0482     C
N       0.4419   0.6561  0.10324     N
C       0.4448   0.0576   0.2358     C
C        0.449   0.6184   0.4537     C
H       0.4501   0.7081   0.2963     H
C       0.4542   0.1822   0.6516     C
C       0.4551   0.3173    0.322     C
H       0.4572   0.3734   0.2221     H
C       0.4592   0.2594   0.6042     C
H       0.4656   0.0232   0.3729     H
C       0.4686   0.0814   0.1659     C
Ni     0.47123  0.24621  0.89489    Ni
C       0.4744   0.6758   0.3952     C
H       0.4749   0.0063   0.2594     H
H       0.4762   0.6186   0.4949     H
H       0.4773   0.6321   0.0078     H
H        0.483   0.2504   0.4144     H
H       0.4846   0.9554   0.8571     H
C       0.4867   0.3289   0.2525     C
H        0.493   0.1716   0.6871     H
O      0.49663  0.80519  0.00765     O
C       0.4979   0.7445   0.6337     C
C       0.5021   0.2555   0.3663     C
O      0.50337  0.19481  0.99235     O
H        0.507   0.8284   0.3129     H
C       0.5133   0.6711   0.7475     C
H       0.5154   0.0446   0.1429     H
H        0.517   0.7496   0.5856     H
H       0.5227   0.3679   0.9922     H
H       0.5238   0.3814   0.5051     H
H       0.5251   0.9937   0.7406     H
C       0.5256   0.3242   0.6048     C
Ni     0.52877  0.75379  0.10511    Ni
C       0.5314   0.9186   0.8341     C
H       0.5344   0.9768   0.6271     H
C       0.5408   0.7406   0.3958     C
H       0.5428   0.6266   0.7779     H
C       0.5449   0.6827    0.678     C
C       0.5458   0.8178   0.3484     C
H       0.5499   0.2919   0.7037     H
C        0.551   0.3816   0.5463     C
C       0.5552   0.9424   0.7642     C
N       0.5581   0.3439  0.89676     N
C       0.5613   0.3841   0.9518     C
C       0.5619   0.2751   0.2275     C
O       0.5651   0.3483   0.1135     O
C       0.5661   0.3285   0.6621     C
N       0.5692   0.8486   0.8705     N
O      0.57128  0.17206  0.84265     O
C       0.5765   0.2009   0.3412     C
O      0.57751  0.67371  0.19177     O
H       0.5848   0.0112    0.512     H
C       0.5945   0.2889   0.1519     C
C       0.5948   0.9584   0.6104     C
C          0.6   0.7296   0.4452     C
H       0.6006   0.6782   0.4784     H
C       0.6049   0.2105   0.2713     C
C       0.6059   0.8779   0.3528     C
H       0.6083   0.9289   0.3193     H
H       0.6118     0.34   0.8005     H
C        0.613   0.3688   0.8408     C
O       0.6148   0.0826   0.9319     O
C       0.6159   0.4387   0.5482     C
N      0.61812  0.84972  0.10674     N
C       0.6184    0.449   0.9537     C
H       0.6186   0.4762   0.9949     H
H       0.6199   0.9007   0.0101     H
C       0.6229   0.1113   0.8704     C
C       0.6232   0.8902   0.7297     C
C       0.6252    0.978   0.5416     C
C       0.6253   0.1343   0.3901     C
H       0.6266   0.5428   0.2779     H
C       0.6278    0.629   0.6509     C
C        0.629   0.6278   0.1509     C
O      0.62958  0.15342  0.44828     O
C       0.6312    0.387   0.6592     C
H       0.6316   0.8236   0.2054     H
H       0.6321   0.4773   0.5078     H
C       0.6336   0.7986   0.8369     C
O      0.63522   0.6522  0.08706     O
C       0.6448    0.904   0.0518     C
O       0.6517   0.4349   0.3865     O
C       0.6519   0.8591   0.1643     C
O       0.6522  0.63522  0.58706     O
C       0.6523   0.9121   0.6546     C
H       0.6543   0.1721   0.2533     H
N       0.6561   0.4419  0.60324     N
C        0.658   0.7928   0.4462     C
O      0.65884  0.06154  0.36695     O
H         0.66   0.3882   0.6995     H
O       0.6602   0.2264   0.1348     O
N      0.66103  0.86825  0.40171     N
H       0.6615   0.7469   0.8616     H
C       0.6629   0.8175   0.7673     C
C       0.6711   0.5133   0.2475     C
C       0.6715   0.4339   0.8379     C
O      0.67371  0.57751  0.69177     O
C       0.6758   0.4744   0.8952     C
H       0.6782   0.6006   0.9784     H
H       0.6792   0.2372    0.093     H
C       0.6827   0.5449    0.178     C
H       0.6889   0.1553   0.7384     H
H       0.6986    0.783   0.4803     H
C       0.6996   0.0682   0.8258     C
C       0.7063   0.9649   0.0509     C
H       0.7081   0.4501   0.7963     H
N      0.70851  0.95251  0.51436     N
H       0.7106     0.78   0.7459     H
C       0.7111   0.4055   0.3481     C
C       0.7144   0.9172   0.1681     C
H       0.7216   0.0026   0.0098     H
C       0.7228   0.1032   0.7579     C
C       0.7249   0.4381   0.2725     C
C       0.7296      0.6   0.9452     C
H       0.7366   0.9208   0.2109     H
H       0.7369   0.9703   0.9001     H
C       0.7389   0.8867   0.6262     C
C       0.7406   0.5408   0.8958     C
C       0.7445   0.4979   0.1337     C
C      0.74526  0.97126   0.1089     C
H       0.7469   0.6615   0.3616     H
Ni     0.74773  0.96567  0.40756    Ni
H       0.7496    0.517   0.0856     H
C        0.751   0.9934   0.8533     C
Ni     0.75379  0.52877  0.60511    Ni
H       0.7628   0.3208    0.407     H
O       0.7634   0.1676   0.6251     O
C        0.764   0.9068   0.5571     C
O       0.7736   0.3398   0.3652     O
H       0.7772    0.184    0.583     H
H         0.78   0.7106   0.2459     H
H       0.7811   0.8551   0.6549     H
H        0.783   0.6986   0.9803     H
C       0.7895   0.3951   0.2287     C
H         0.79   0.0632   0.2048     H
C       0.7928    0.658   0.9462     C
C       0.7947   0.0629   0.7188     C
C       0.7986   0.6336   0.3369     C
C       0.7991   0.4235   0.1588     C
O      0.80519  0.49663  0.50765     O
C      0.81451  0.03331   0.1067     C
H        0.816   0.2228    0.917     H
C       0.8175   0.6629   0.2673     C
C       0.8178   0.5458   0.8484     C
C       0.8207   0.0991   0.6457     C
O      0.82182   0.9294   0.3105     O
C       0.8224   0.9516   0.8142     C
H       0.8233   0.8873   0.5389     H
H       0.8236   0.6316   0.7054     H
C       0.8249   0.0761   0.1618     C
H       0.8279   0.3457   0.2467     H
O      0.82794  0.42872  0.65735     O
H       0.8284    0.507   0.8129     H
H       0.8311   0.1085   0.3066     H
O       0.8324   0.2366   0.8749     O
N      0.84121  0.05971  0.40343     N
H       0.8447   0.3111   0.7616     H
C       0.8456    0.987   0.7462     C
O      0.84658  0.37042  0.05172     O
N       0.8486   0.5692   0.3705     N
N      0.84972  0.61812  0.60674     N
O      0.85414  0.86452  0.41154     O
H       0.8551   0.7811   0.1549     H
C       0.8591   0.6519   0.6643     C
C       0.8616   0.1134   0.3454     C
O      0.86452  0.85414  0.91154     O
C       0.8657   0.3747   0.1099     C
H       0.8674    0.023   0.0072     H
N      0.86825  0.66103  0.90171     N
C       0.8708   0.0524   0.0468     C
C      0.87141  0.87521   0.3467     C
H       0.8745   0.0295   0.4965     H
C      0.87521  0.87141   0.8467     C
C       0.8779   0.6059   0.8528     C
O       0.8846   0.0704  0.61072     O
C       0.8856    0.068    0.455     C
C       0.8866   0.1384   0.1546     C
C       0.8867   0.7389   0.1262     C
H       0.8873   0.8233   0.0389     H
C       0.8887   0.3771   0.6296     C
C       0.8902   0.6232   0.2297     C
H       0.8915   0.1689   0.1934     H
H       0.8954   0.9598    0.719     H
C       0.8968   0.2772   0.7421     C
H       0.9007   0.6199   0.5101     H
C       0.9009   0.1793   0.8543     C
C        0.904   0.6448   0.5518     C
C       0.9068    0.764   0.0571     C
C       0.9121   0.6523   0.1546     C
C       0.9172   0.7144   0.6681     C
O       0.9174   0.3852   0.5681     O
C       0.9186   0.5314   0.3341     C
H       0.9208   0.7366   0.7109     H
C       0.9239   0.1751   0.3382     C
H       0.9289   0.6083   0.8193     H
O       0.9294  0.82182   0.8105     O
O       0.9296   0.1154  0.88928     O
C       0.9318   0.3004   0.6742     C
C        0.932   0.1144    0.045     C
H       0.9368     0.21   0.2952     H
C       0.9371   0.2053   0.7812     C
O      0.93846  0.34116  0.13305     O
N      0.94029  0.15879  0.09657     N
C       0.9424   0.5552   0.2642     C
C       0.9476   0.1292   0.4532     C
C       0.9516   0.8224   0.3142     C
N      0.95251  0.70851  0.01436     N
H       0.9554   0.4846   0.3571     H
C       0.9584   0.5948   0.1104     C
H       0.9598   0.8954    0.219     H
C       0.9649   0.7063   0.5509     C
Ni     0.96567  0.74773  0.90756    Ni
C      0.96669  0.18549   0.3933     C
H       0.9703   0.7369   0.4001     H
H       0.9705   0.1255   0.0035     H
C      0.97126  0.74526   0.6089     C
H       0.9768   0.5344   0.1271     H
H        0.977   0.1326   0.4928     H
C        0.978   0.6252   0.0416     C
C        0.987   0.8456   0.2462     C
H       0.9888   0.4152    0.988     H
C       0.9934    0.751   0.3533     C
H       0.9937   0.5251   0.2406     H
H       0.9974   0.2784   0.4902     H
