data_I
_chemical_name_common  '/Users/gianmarcoterrones/Research/MOFs/MOF_structures/water_stability_work_extra_structs/cleaned_from_CCDC/YEGCEU'
_cell_length_a  8.81060
_cell_length_b 20.06410
_cell_length_c 20.06410
_cell_angle_alpha 90.00000
_cell_angle_beta  90.00000
_cell_angle_gamma 90.00000
_space_group_name_H-M_alt      'P 1'


loop_
_space_group_symop_operation_xyz
  'x, y, z' 

loop_
_atom_site_label
_atom_site_fract_x
_atom_site_fract_y
_atom_site_fract_z
_atom_site_type_symbol
H       0.0184   0.5383   0.5817     H
H       0.0184   0.9617   0.9183     H
H       0.0237   0.5761   0.2682     H
H       0.0237   0.9239   0.2318     H
O      0.02413  0.06436  0.51723     O
O      0.02413  0.43564  0.98277     O
H       0.0445    0.215   0.3592     H
H       0.0445    0.285   0.1408     H
H       0.0447   0.1377   0.2741     H
H       0.0447   0.3623   0.2259     H
C       0.0459  0.18291  0.26411     C
C       0.0459  0.22938  0.31511     C
C       0.0459  0.27062  0.18489     C
C       0.0459  0.31709  0.23589     C
C       0.0478  0.20343  0.19857     C
C       0.0478  0.29657  0.30143     C
C       0.0517  0.18285  0.52274     C
C       0.0517  0.31715  0.97726     C
H       0.0549   0.1435   0.6738     H
H       0.0549   0.3565   0.8262     H
C        0.055  0.69335   0.4396     C
C        0.055  0.80665   0.0604     C
C       0.0675  0.15408  0.14235     C
C       0.0675  0.34592  0.35765     C
C       0.0744  0.05558    0.772     C
C       0.0744  0.44442    0.728     C
H       0.0758   0.0149   0.7468     H
H       0.0758   0.4851   0.7532     H
N       0.0763  0.62939  0.61457     N
N       0.0763  0.87061  0.88543     N
C        0.089  0.19919  0.96747     C
C        0.089  0.30081  0.53253     C
H       0.0899   0.6514   0.4271     H
H       0.0899   0.8486   0.0729     H
C       0.0916  0.68989   0.0498     C
C       0.0916  0.81011   0.4502     C
C       0.0937  0.57066  0.58422     C
C       0.0937  0.92934  0.91578     C
H        0.095    0.046    0.818     H
H        0.095    0.454    0.682     H
H        0.096    0.562   0.8675     H
H        0.096    0.938   0.6325     H
H        0.103    0.188   0.7859     H
H        0.103    0.312   0.7141     H
C       0.1097  0.11459   0.5064     C
C       0.1097  0.38541   0.9936     C
H       0.1254   0.1751    0.107     H
H       0.1254   0.3249    0.393     H
H        0.126   0.1164   0.1585     H
H        0.126   0.3836   0.3415     H
O      0.13141  0.08283  0.95503     O
O      0.13141  0.41717  0.54497     O
C       0.1435  0.23864  0.51377     C
C       0.1435  0.26136  0.98623     C
C       0.1481  0.74838  0.42999     C
C       0.1481  0.75162  0.07001     C
H       0.1523   0.6523   0.0547     H
H       0.1523   0.8477   0.4453     H
H       0.1531   0.0847   0.6458     H
H       0.1531   0.4153   0.8542     H
C       0.1537   0.1234  0.67391     C
C       0.1537   0.3766  0.82609     C
C       0.1839  0.13736   0.9761     C
C       0.1839  0.36264   0.5239     C
Mn     0.18526 0.508873 0.023982    Mn
Mn     0.18526 0.991127 0.476018    Mn
O      0.18989  0.00414  0.36018     O
O      0.18989  0.49586  0.13982     O
C       0.1954  0.10295  0.74499     C
C       0.1954  0.39705  0.75501     C
C       0.1957  0.57354  0.87754     C
C       0.1957  0.92646  0.62246     C
C       0.1988  0.16537  0.78887     C
C       0.1988  0.33463  0.71113     C
C       0.2107  0.66284  0.60771     C
C       0.2107  0.83716  0.89229     C
H       0.2175   0.1527   0.8343     H
H       0.2175   0.3473   0.6657     H
H       0.2218   0.7261   0.1945     H
H       0.2218   0.7739   0.3055     H
H       0.2271   0.1548   0.6576     H
H       0.2271   0.3452   0.8424     H
N       0.2303   0.5641  0.55827     N
N       0.2303   0.9359  0.94173     N
H       0.2329   0.7053   0.6236     H
H       0.2329   0.7947   0.8764     H
O      0.23882  0.10532   0.4837     O
O      0.23882  0.39468   0.0163     O
H       0.2399   0.2343   0.4955     H
H       0.2399   0.2657   0.0045     H
H       0.2601   0.0045   0.2343     H
H       0.2601   0.4955   0.2657     H
O      0.26118   0.0163  0.10532     O
O      0.26118   0.4837  0.39468     O
H       0.2671   0.6236   0.7947     H
H       0.2671   0.8764   0.7053     H
N       0.2697  0.55827   0.9359     N
N       0.2697  0.94173   0.5641     N
H       0.2729   0.6576   0.3452     H
H       0.2729   0.8424   0.1548     H
H       0.2782   0.1945   0.7739     H
H       0.2782   0.3055   0.7261     H
H       0.2825   0.6657   0.1527     H
H       0.2825   0.8343   0.3473     H
C       0.2893  0.60771  0.83716     C
C       0.2893  0.89229  0.66284     C
C       0.3012  0.71113  0.16537     C
C       0.3012  0.78887  0.33463     C
C       0.3043  0.62246  0.57354     C
C       0.3043  0.87754  0.92646     C
C       0.3046  0.74499  0.39705     C
C       0.3046  0.75501  0.10295     C
O      0.31011  0.13982  0.00414     O
O      0.31011  0.36018  0.49586     O
Mn     0.31474 0.023982 0.991127    Mn
Mn     0.31474 0.476018 0.508873    Mn
C       0.3161   0.5239  0.13736     C
C       0.3161   0.9761  0.36264     C
C       0.3463  0.67391   0.3766     C
C       0.3463  0.82609   0.1234     C
H       0.3469   0.6458   0.4153     H
H       0.3469   0.8542   0.0847     H
H       0.3477   0.0547   0.8477     H
H       0.3477   0.4453   0.6523     H
C       0.3519  0.07001  0.74838     C
C       0.3519  0.42999  0.75162     C
C       0.3565  0.51377  0.26136     C
C       0.3565  0.98623  0.23864     C
O      0.36859  0.54497  0.08283     O
O      0.36859  0.95503  0.41717     O
H        0.374   0.1585   0.3836     H
H        0.374   0.3415   0.1164     H
H       0.3746    0.107   0.3249     H
H       0.3746    0.393   0.1751     H
C       0.3903   0.5064  0.38541     C
C       0.3903   0.9936  0.11459     C
H        0.397   0.7141    0.188     H
H        0.397   0.7859    0.312     H
H        0.404   0.6325    0.562     H
H        0.404   0.8675    0.938     H
H        0.405    0.682    0.046     H
H        0.405    0.818    0.454     H
C       0.4063  0.58422  0.92934     C
C       0.4063  0.91578  0.57066     C
C       0.4084   0.0498  0.81011     C
C       0.4084   0.4502  0.68989     C
H       0.4101   0.0729   0.6514     H
H       0.4101   0.4271   0.8486     H
C        0.411  0.53253  0.19919     C
C        0.411  0.96747  0.30081     C
N       0.4237  0.61457  0.87061     N
N       0.4237  0.88543  0.62939     N
H       0.4242   0.7468   0.4851     H
H       0.4242   0.7532   0.0149     H
C       0.4256    0.728  0.05558     C
C       0.4256    0.772  0.44442     C
C       0.4325  0.14235  0.34592     C
C       0.4325  0.35765  0.15408     C
C        0.445   0.0604  0.69335     C
C        0.445   0.4396  0.80665     C
H       0.4451   0.6738   0.3565     H
H       0.4451   0.8262   0.1435     H
C       0.4483  0.52274  0.31715     C
C       0.4483  0.97726  0.18285     C
C       0.4522  0.19857  0.29657     C
C       0.4522  0.30143  0.20343     C
C       0.4541  0.18489  0.22938     C
C       0.4541  0.23589  0.18291     C
C       0.4541  0.26411  0.31709     C
C       0.4541  0.31511  0.27062     C
H       0.4553   0.2259   0.1377     H
H       0.4553   0.2741   0.3623     H
H       0.4555   0.1408    0.215     H
H       0.4555   0.3592    0.285     H
O      0.47587  0.51723  0.43564     O
O      0.47587  0.98277  0.06436     O
H       0.4763   0.2318   0.5761     H
H       0.4763   0.2682   0.9239     H
H       0.4816   0.5817   0.9617     H
H       0.4816   0.9183   0.5383     H
H       0.5184   0.0817   0.4617     H
H       0.5184   0.4183   0.0383     H
H       0.5237   0.7318   0.0761     H
H       0.5237   0.7682   0.4239     H
O      0.52413  0.01723  0.93564     O
O      0.52413  0.48277  0.56436     O
H       0.5445   0.6408    0.715     H
H       0.5445   0.8592    0.785     H
H       0.5447   0.7259   0.6377     H
H       0.5447   0.7741   0.8623     H
C       0.5459  0.68489  0.72938     C
C       0.5459  0.73589  0.68291     C
C       0.5459  0.76411  0.81709     C
C       0.5459  0.81511  0.77062     C
C       0.5478  0.69857  0.79657     C
C       0.5478  0.80143  0.70343     C
C       0.5517  0.02274  0.81715     C
C       0.5517  0.47726  0.68285     C
H       0.5549   0.1738   0.8565     H
H       0.5549   0.3262   0.6435     H
C        0.555   0.5604  0.19335     C
C        0.555   0.9396  0.30665     C
C       0.5675  0.64235  0.84592     C
C       0.5675  0.85765  0.65408     C
C       0.5744    0.228  0.55558     C
C       0.5744    0.272  0.94442     C
H       0.5758   0.2468   0.9851     H
H       0.5758   0.2532   0.5149     H
N       0.5763  0.11457  0.37061     N
N       0.5763  0.38543  0.12939     N
C        0.589  0.03253  0.69919     C
C        0.589  0.46747  0.80081     C
H       0.5899   0.5729   0.1514     H
H       0.5899   0.9271   0.3486     H
C       0.5916   0.5498  0.31011     C
C       0.5916   0.9502  0.18989     C
C       0.5937  0.08422  0.42934     C
C       0.5937  0.41578  0.07066     C
H        0.595    0.182    0.546     H
H        0.595    0.318    0.954     H
H        0.596   0.1325    0.062     H
H        0.596   0.3675    0.438     H
H        0.603   0.2141    0.688     H
H        0.603   0.2859    0.812     H
C       0.6097   0.0064  0.88541     C
C       0.6097   0.4936  0.61459     C
H       0.6254    0.607   0.8249     H
H       0.6254    0.893   0.6751     H
H        0.626   0.6585   0.8836     H
H        0.626   0.8415   0.6164     H
O      0.63141  0.04497  0.58283     O
O      0.63141  0.45503  0.91717     O
C       0.6435  0.01377  0.76136     C
C       0.6435  0.48623  0.73864     C
C       0.6481  0.57001  0.24838     C
C       0.6481  0.92999  0.25162     C
H       0.6523   0.5547   0.3477     H
H       0.6523   0.9453   0.1523     H
H       0.6531   0.1458   0.9153     H
H       0.6531   0.3542   0.5847     H
C       0.6537  0.17391   0.8766     C
C       0.6537  0.32609   0.6234     C
C       0.6839   0.0239  0.63736     C
C       0.6839   0.4761  0.86264     C
Mn     0.68526 0.523982 0.491127    Mn
Mn     0.68526 0.976018 0.008873    Mn
O      0.68989  0.63982  0.50414     O
O      0.68989  0.86018  0.99586     O
C       0.6954  0.24499  0.89705     C
C       0.6954  0.25501  0.60295     C
C       0.6957  0.12246  0.07354     C
C       0.6957  0.37754  0.42646     C
C       0.6988  0.21113  0.66537     C
C       0.6988  0.28887  0.83463     C
C       0.7107  0.10771  0.33716     C
C       0.7107  0.39229  0.16284     C
H       0.7175   0.1657   0.6527     H
H       0.7175   0.3343   0.8473     H
H       0.7218   0.6945   0.2739     H
H       0.7218   0.8055   0.2261     H
H       0.7271   0.1576   0.8452     H
H       0.7271   0.3424   0.6548     H
N       0.7303  0.05827   0.4359     N
N       0.7303  0.44173   0.0641     N
H       0.7329   0.1236   0.2947     H
H       0.7329   0.3764   0.2053     H
O      0.73882   0.5163  0.60532     O
O      0.73882   0.9837  0.89468     O
H       0.7399   0.5045   0.7343     H
H       0.7399   0.9955   0.7657     H
H       0.7601   0.7343   0.9955     H
H       0.7601   0.7657   0.5045     H
O      0.76118  0.60532   0.9837     O
O      0.76118  0.89468   0.5163     O
H       0.7671   0.2053   0.1236     H
H       0.7671   0.2947   0.3764     H
N       0.7697   0.0641  0.05827     N
N       0.7697   0.4359  0.44173     N
H       0.7729   0.6548   0.1576     H
H       0.7729   0.8452   0.3424     H
H       0.7782   0.2261   0.6945     H
H       0.7782   0.2739   0.8055     H
H       0.7825   0.6527   0.3343     H
H       0.7825   0.8473   0.1657     H
C       0.7893  0.16284  0.10771     C
C       0.7893  0.33716  0.39229     C
C       0.8012  0.66537  0.28887     C
C       0.8012  0.83463  0.21113     C
C       0.8043  0.07354  0.37754     C
C       0.8043  0.42646  0.12246     C
C       0.8046  0.60295  0.24499     C
C       0.8046  0.89705  0.25501     C
O      0.81011  0.50414  0.86018     O
O      0.81011  0.99586  0.63982     O
Mn     0.81474 0.008873 0.523982    Mn
Mn     0.81474 0.491127 0.976018    Mn
C       0.8161  0.63736   0.4761     C
C       0.8161  0.86264   0.0239     C
C       0.8463   0.6234  0.17391     C
C       0.8463   0.8766  0.32609     C
H       0.8469   0.5847   0.1458     H
H       0.8469   0.9153   0.3542     H
H       0.8477   0.1523   0.5547     H
H       0.8477   0.3477   0.9453     H
C       0.8519  0.24838  0.92999     C
C       0.8519  0.25162  0.57001     C
C       0.8565  0.73864  0.01377     C
C       0.8565  0.76136  0.48623     C
O      0.86859  0.58283  0.45503     O
O      0.86859  0.91717  0.04497     O
H        0.874   0.6164   0.6585     H
H        0.874   0.8836   0.8415     H
H       0.8746   0.6751    0.607     H
H       0.8746   0.8249    0.893     H
C       0.8903  0.61459   0.0064     C
C       0.8903  0.88541   0.4936     C
H        0.897    0.688   0.2859     H
H        0.897    0.812   0.2141     H
H        0.904    0.062   0.3675     H
H        0.904    0.438   0.1325     H
H        0.905    0.546    0.318     H
H        0.905    0.954    0.182     H
C       0.9063  0.07066  0.08422     C
C       0.9063  0.42934  0.41578     C
C       0.9084  0.18989   0.5498     C
C       0.9084  0.31011   0.9502     C
H       0.9101   0.1514   0.9271     H
H       0.9101   0.3486   0.5729     H
C        0.911  0.69919  0.46747     C
C        0.911  0.80081  0.03253     C
N       0.9237  0.12939  0.11457     N
N       0.9237  0.37061  0.38543     N
H       0.9242   0.5149   0.2468     H
H       0.9242   0.9851   0.2532     H
C       0.9256  0.55558    0.272     C
C       0.9256  0.94442    0.228     C
C       0.9325  0.65408  0.64235     C
C       0.9325  0.84592  0.85765     C
C        0.945  0.19335   0.9396     C
C        0.945  0.30665   0.5604     C
H       0.9451   0.6435   0.1738     H
H       0.9451   0.8565   0.3262     H
C       0.9483  0.68285  0.02274     C
C       0.9483  0.81715  0.47726     C
C       0.9522  0.70343  0.69857     C
C       0.9522  0.79657  0.80143     C
C       0.9541  0.68291  0.76411     C
C       0.9541  0.72938  0.81511     C
C       0.9541  0.77062  0.68489     C
C       0.9541  0.81709  0.73589     C
H       0.9553   0.6377   0.7741     H
H       0.9553   0.8623   0.7259     H
H       0.9555    0.715   0.8592     H
H       0.9555    0.785   0.6408     H
O      0.97587  0.56436  0.01723     O
O      0.97587  0.93564  0.48277     O
H       0.9763   0.0761   0.7682     H
H       0.9763   0.4239   0.7318     H
H       0.9816   0.0383   0.0817     H
H       0.9816   0.4617   0.4183     H
