data_I
_chemical_name_common  '/Users/gianmarcoterrones/Research/MOFs/MOF_structures/water_stability_work_extra_structs/cleaned_from_CCDC/YEGCUK'
_cell_length_a 11.60830
_cell_length_b 20.95390
_cell_length_c 24.88339
_cell_angle_alpha 86.29551
_cell_angle_beta  76.51127
_cell_angle_gamma 73.91900
_space_group_name_H-M_alt      'P 1'


loop_
_space_group_symop_operation_xyz
  'x, y, z' 

loop_
_atom_site_label
_atom_site_fract_x
_atom_site_fract_y
_atom_site_fract_z
_atom_site_type_symbol
H       0.0017   0.3006   0.1494     H
C      0.00231  0.71872  0.28706     C
O      0.00249  0.01604  0.86518     O
C      0.00273  0.77706  0.66908     C
H       0.0039    0.755    0.704     H
C      0.00612   0.5924  0.46996     C
C      0.00671  0.30222  0.61596     C
H       0.0072   0.7086   0.4172     H
H       0.0082   0.6408   0.4752     H
H       0.0133    0.815   0.5918     H
C       0.0142   0.1972   0.3706     C
O      0.01631  0.32374  0.81364     O
H       0.0165   0.7192    0.848     H
O      0.01739  0.40188  0.95714     O
H       0.0175   0.7448   0.2558     H
H       0.0176    0.432   0.4972     H
O      0.01853  0.98396  0.36518     O
C      0.01862  0.73636    0.337     C
O      0.01977  0.84534  0.30934     O
O      0.02547  0.09812  0.95714     O
H       0.0341   0.1842   0.4214     H
C      0.03663  0.33764   0.7167     C
H       0.0371    0.255    0.204     H
Mn    0.037848 0.924304     0.25    Mn
H       0.0393   0.0474   0.0504     H
C      0.03937  0.26386    0.369     C
H        0.044   0.5186   0.4182     H
C      0.04429  0.46976  0.57346     C
C      0.04583  0.63818  0.02716     C
H       0.0469    0.488   0.5912     H
H       0.0483   0.8006   0.6494     H
C      0.05113  0.27706  0.16908     C
C      0.05261  0.35492  0.77106     C
C       0.0527   0.3568    0.618     C
H       0.0537   0.1794   0.3252     H
H       0.0549     0.41   0.4894     H
O      0.05493   0.6811  0.05824     O
C      0.05497  0.01682  0.15304     C
C      0.05513  0.79878  0.33996     C
H       0.0583   0.3206   0.1748     H
H        0.059    0.284   0.2854     H
Mn    0.059646     0.25 0.880708    Mn
Mn    0.063654 0.098012  0.86972    Mn
C      0.06462  0.08006   0.0645     C
C      0.06548  0.37456  0.66928     C
C      0.06602  0.37316   0.5144     C
Mn    0.066626 0.401988  0.86972    Mn
H       0.0716   0.4826   0.6036     H
C      0.07179  0.98318  0.65304     C
C      0.07299  0.13818  0.97284     C
H       0.0732   0.4924   0.5406     H
H       0.0733   0.2398   0.4462     H
C      0.07468  0.67966  0.60718     C
H        0.075    0.621   0.6756     H
O      0.07701  0.80266   0.1255     O
C      0.07982  0.07576   0.1184     C
H       0.0799    0.315   0.0918     H
C        0.082   0.3028   0.1294     C
C      0.08255  0.21554  0.41336     C
H       0.0826   0.5668    0.448     H
H       0.0837   0.7808    0.652     H
H       0.0867   0.9526   0.5504     H
C      0.08754  0.13346  0.03146     C
H       0.0883   0.1646   0.3538     H
H       0.0897   0.5474   0.9496     H
O      0.09007  0.00342  0.19724     O
H       0.0913   0.2548   0.4454     H
O      0.09349  0.99658  0.69724     O
H       0.0936   0.4116   0.6716     H
C      0.09605  0.39338  0.56432     C
O      0.09821  0.40324   0.7746     O
H       0.1067   0.3354   0.1462     H
H       0.1105   0.3206   0.3088     H
C       0.1123   0.2756   0.3108     C
H       0.1128   0.7182   0.5308     H
O      0.11317   0.1811  0.94176     O
C       0.1173   0.1247   0.1395     C
C       0.1185   0.6247   0.6395     C
C        0.119  0.63346  0.96854     C
O      0.12033  0.80266   0.3745     O
C      0.12187  0.45676   0.5735     C
O      0.12359  0.90188  0.45714     O
C      0.12366  0.18258   0.0531     C
N      0.12436  0.53802  0.12946     N
O      0.12719  0.09676   0.7746     O
H       0.1284    0.121   0.1756     H
H       0.1284    0.216   0.2146     H
C      0.12912  0.58006   0.9355     C
H       0.1321    0.337   0.4966     H
O      0.13233  0.48396  0.86518     O
C       0.1327   0.2578   0.4074     C
H       0.1341   0.4316    0.312     H
O      0.13489  0.84534  0.19066     O
H       0.1355   0.7808    0.848     H
H       0.1382   0.2182   0.0308     H
C      0.13848  0.17966  0.10718     C
H       0.1397   0.3158   0.0786     H
C      0.14066  0.68258   0.5531     C
C      0.14091   0.2897  0.33568     C
H       0.1431   0.4956   0.2768     H
H       0.1441    0.313   0.3116     H
C      0.14468  0.91994   0.5645     C
C      0.14609  0.79878  0.16004     C
H       0.1511   0.8006   0.8506     H
H       0.1517   0.4664   0.0712     H
H       0.1553   0.1036   0.5854     H
H       0.1553   0.4744   0.5386     H
C      0.15558  0.92424   0.6184     C
Mn    0.161666 0.901988  0.36972    Mn
H       0.1637   0.2964   0.4026     H
H       0.1676   0.1922   0.4002     H
H        0.169   0.7182   0.9692     H
O      0.17005  0.17626  0.81364     O
H       0.1714   0.1674   0.5512     H
H       0.1717    0.815   0.9082     H
H        0.172   0.3116   0.3596     H
C      0.17223  0.23614    0.131     C
C      0.17633  0.14508  0.77106     C
C      0.17665  0.47906  0.10084     C
C      0.17676  0.68258   0.9469     C
H       0.1771   0.5722   0.1898     H
H       0.1793   0.2368   0.2992     H
H         0.18    0.449   0.5966     H
H       0.1876   0.3076   0.5188     H
H       0.1893   0.0336   0.4288     H
C      0.18962  0.45756   0.2942     C
C      0.19033  0.53732  0.16582     C
C      0.19822  0.57576   0.8816     C
C       0.1987   0.2244   0.1892     C
H       0.1999   0.2188   0.3976     H
O      0.20251  0.30266   0.8745     O
C      0.20583  0.12036  0.55458     C
H       0.2059   0.2534   0.3172     H
C      0.20801  0.51682  0.84696     C
H       0.2088   0.0986   0.5214     H
O      0.20927  0.50342  0.69724     O
C      0.21057  0.34444  0.53002     C
C      0.21117  0.86182  0.47284     C
C       0.2114   0.8028   0.8706     C
C      0.21145  0.28446  0.08664     C
H       0.2153   0.2632   0.2008     H
H       0.2183   0.8158   0.9214     H
C      0.22021  0.77706  0.83092     C
C        0.221  0.86654  0.53146     C
H       0.2229   0.9664   0.9288     H
H       0.2234    0.051   0.5966     H
O      0.22395  0.90324   0.2746     O
C      0.22602  0.57576   0.6184     C
H       0.2331   0.8206   0.8252     H
H       0.2348   0.0884   0.6716     H
H       0.2377   0.7448   0.2442     H
C      0.23959  0.37964  0.55458     C
H       0.2399   0.1794   0.1912     H
N      0.24049   0.4804  0.33582     N
H       0.2411    0.755    0.796     H
C        0.242   0.8753   0.6395     C
H       0.2449   0.3666   0.4978     H
C      0.24502  0.73636    0.163     C
C      0.24566  0.67966  0.89282     C
C      0.24667  0.16236   0.7167     C
C      0.24754  0.63346  0.53146     C
H       0.2494    0.879   0.6756     H
H       0.2507   0.5722   0.3102     H
H       0.2529   0.8354   0.8538     H
N      0.25382  0.03802  0.87054     N
C      0.25655  0.02094  0.39916     C
C       0.2568   0.6247   0.8605     C
H       0.2573   0.1334   0.4978     H
H       0.2586    0.387   0.2324     H
H       0.2589   0.8964   0.0854     H
H       0.2593   0.2602   0.0538     H
H       0.2593   0.3964   0.5854     H
C      0.25941  0.15556  0.53002     C
H         0.26   0.3078   0.0998     H
O      0.26397   0.6811  0.44176     O
H       0.2643   0.7192    0.652     H
C      0.26524  0.12544  0.66928     C
C      0.26629   0.2103  0.16432     C
H       0.2687    0.187   0.1884     H
H       0.2698   0.4014   0.5214     H
H       0.2706   0.3286    0.552     H
C      0.27131  0.44234  0.12324     C
C      0.27235  0.53732  0.33418     C
H       0.2733   0.2448   0.7442     H
H       0.2744    0.949   0.0966     H
C      0.27517  0.51682  0.65304     C
H       0.2765   0.2466   0.1828     H
C      0.27749  0.97906  0.89916     C
C      0.27897  0.71872  0.21294     C
N      0.27911   0.4804  0.16418     N
H       0.2795      0.4   0.3872     H
H       0.2842   0.7086   0.0828     H
C      0.28635  0.44234  0.37676     C
O      0.28731  0.50342  0.80276     O
Mn    0.287848 0.424304     0.75    Mn
C      0.28937  0.21872  0.71294     C
C      0.29082  0.58006   0.5645     C
H       0.2915   0.2452   0.0546     H
N      0.29184  0.96198  0.37054     N
H       0.2921    0.745    0.704     H
C      0.29232  0.41536     0.25     C
H       0.2936   0.1924   0.5188     H
O      0.29427   0.8189  0.44176     O
C       0.2979   0.2422   0.0926     C
C      0.29809  0.78446  0.91336     C
H       0.3023   0.6994   0.6494     H
C      0.30323  0.73614    0.869     C
H        0.304    0.621   0.8244     H
C      0.30463  0.04324   0.5735     C
H       0.3061   0.0256   0.5386     H
C      0.30613  0.29878  0.83996     C
C      0.30624  0.81742   0.5531     C
H       0.3074   0.9014   0.0214     H
C      0.30893  0.69778  0.11596     C
Mn    0.309646     0.75 0.380708    Mn
H       0.3131   0.7602   0.9462     H
C      0.31599  0.63818  0.47284     C
H       0.3163   0.2812   0.1024     H
C      0.31814  0.82034  0.60718     C
H       0.3205      0.4   0.1128     H
C      0.32141  0.85492  0.27106     C
H       0.3232   0.9116   0.1716     H
H       0.3248   0.0174   0.6036     H
O      0.32555  0.34534  0.80934     O
C      0.32619  0.87964  0.05458     C
C      0.32819  0.72294  0.66908     C
H       0.3288   0.4014   0.9786     H
O      0.32911  0.34534  0.69066     O
C       0.3293   0.1432    0.618     C
H       0.3317   0.9744   0.0386     H
H       0.3333      0.1   0.3872     H
C      0.33689  0.05766  0.37676     C
N      0.33762  0.53802  0.37054     N
H       0.3388   0.8326   0.0512     H
C      0.33963  0.10662  0.56432     C
O      0.34005  0.67626  0.31364     O
H       0.3422   0.9826   0.1036     H
H        0.343    0.716   0.7854     H
H       0.3432   0.1884   0.1404     H
C      0.34429  0.47906  0.39916     C
H       0.3443   0.3964   0.9146     H
H       0.3444    0.784   0.7146     H
H       0.3461   0.7452   0.9454     H
O      0.34631  0.82374  0.31364     O
C      0.34787  0.95676   0.0735     C
H       0.3503   0.6336     0.02     H
H       0.3506   0.5668    0.052     H
C      0.35282  0.45756   0.2058     C
H       0.3544    0.387   0.2676     H
C      0.35562  0.23636    0.663     C
C      0.35615  0.03732  0.83418     C
H       0.3564   0.7818   0.5308     H
H       0.3598   0.8078   0.9002     H
H       0.3613   0.4956   0.2232     H
H       0.3619    0.012   0.5912     H
H       0.3627   0.2036   0.0974     H
H       0.3629   0.5474   0.5504     H
H       0.3669   0.0722   0.8102     H
H        0.367   0.2086   0.9172     H
H       0.3703   0.1336     0.98     H
H       0.3703   0.4744   0.9614     H
H        0.371    0.449   0.9034     H
H       0.3713    0.163   0.4966     H
H       0.3739    0.988   0.0912     H
C      0.37427  0.66236   0.2167     C
C      0.37733  0.19778  0.61596     C
H       0.3777   0.0684    0.188     H
H        0.378    0.113   0.2676     H
H       0.3789   0.6794   0.6748     H
C      0.38077  0.37964  0.94542     C
H       0.3819   0.4664   0.4288     H
C      0.38225  0.03024  0.57346     C
O      0.38371  0.48396  0.63482     O
C       0.3848   0.6972   0.6294     C
H       0.3862   0.0076   0.5406     H
C       0.3879   0.7244   0.8108     C
H       0.3885   0.3666   0.0022     H
H         0.39   0.3326   0.9488     H
C       0.3905   0.7422   0.9074     C
C      0.39068  0.87456  0.16928     C
H       0.3907   0.8666   0.9978     H
C      0.39347  0.96268  0.33418     C
H       0.3938   0.9924   0.0406     H
C      0.39455  0.94234  0.87676     C
H       0.3949    0.685   0.5918     H
C      0.39509  0.29878  0.66004     C
C      0.40148   0.5924  0.03004     C
H       0.4025   0.2812   0.3976     H
H       0.4026   0.0668    0.948     H
C      0.40753  0.64508  0.27106     C
C      0.40802  0.23636    0.837     C
C      0.40837  0.76386    0.631     C
C      0.40903  0.83764   0.2167     C
C       0.4095   0.6432    0.118     C
C      0.41249  0.96976  0.07346     C
C      0.41497  0.84444  0.03002     C
H       0.4155   0.0044   0.2232     H
H       0.4161   0.7632   0.7992     H
H       0.4187   0.7812   0.8976     H
O      0.41927  0.59812  0.45714     O
H       0.4193   0.8206   0.6912     H
C      0.41958  0.12684   0.5144     C
H       0.4199   0.9956   0.7232     H
C      0.42137  0.45676   0.9265     C
C       0.4231   0.7756   0.6892     C
N      0.42369   0.0196  0.33582     N
H       0.4244   0.2086   0.5828     H
C      0.42489  0.19778  0.88404     C
C      0.43061   0.7103  0.83568     C
H       0.4311   0.6794   0.8088     H
C      0.43152   0.0924  0.96996     C
H       0.4322   0.3078   0.4002     H
H       0.4333      0.9   0.8872     H
H       0.4337   0.2036   0.4026     H
H       0.4343   0.4316    0.188     H
H       0.4344   0.4924   0.9594     H
H       0.4374   0.5186   0.0818     H
H       0.4391   0.9278   0.3102     H
C      0.43918  0.62684   0.0144     C
C      0.44004  0.62544  0.16928     C
C      0.44138  0.04244   0.2058     C
H       0.4421   0.6646   0.6462     H
N      0.44329   0.9804  0.83582     N
C      0.44499  0.34444  0.96998     C
H       0.4458   0.4826   0.8964     H
H       0.4461   0.9316    0.688     H
C      0.44625  0.89338  0.06432     C
H       0.4468    0.068   0.0028     H
H       0.4496    0.568   0.9972     H
C      0.45358  0.12684   0.9856     C
H       0.4543     0.09   0.0106     H
H       0.4555   0.6842   0.5786     H
H       0.4557     0.09   0.4894     H
H       0.4557    0.813   0.6884     H
H       0.4571    0.687   0.8116     H
C      0.45768  0.08464     0.25     C
H       0.4593   0.7466   0.8172     H
C       0.4599   0.2422   0.4074     C
H       0.4601   0.7036   0.9026     H
H       0.4622   0.0186   0.5818     H
H       0.4633   0.2452   0.4454     H
H       0.4649     0.59   0.9894     H
H       0.4651    0.488   0.9088     H
H       0.4657    0.163   0.0034     H
H       0.4684   0.1884   0.3596     H
Mn    0.468614 0.598012  0.36972    Mn
H       0.4691    0.663   0.9966     H
H       0.4694   0.9332    0.448     H
C       0.4725   0.8568    0.118     C
C      0.47608   0.0924  0.53004     C
C      0.47659   0.7897  0.66432     C
H       0.4769   0.2466   0.3172     H
H       0.4785   0.7368   0.7008     H
H       0.4805   0.2602   0.4462     H
H       0.4808   0.9814   0.0818     H
H       0.4819   0.2448   0.7558     H
H       0.4834   0.1408   0.5248     H
H       0.4836   0.6884   0.8596     H
C      0.48382  0.95756   0.7058     C
H       0.4852    0.068   0.4972     H
C      0.48595  0.46976  0.92654     C
H        0.486   0.8076   0.0188     H
C      0.48943  0.60662  0.06432     C
H        0.491    0.887   0.7676     H
C      0.49191  0.21872  0.78706     C
H       0.4948   0.4116   0.8284     H
O      0.49483  0.30266   0.6255     O
H       0.4952   0.6924   0.0188     H
C      0.49591  0.71554  0.58664     C
O      0.49855  0.40324   0.7254     O
O      0.50145  0.59676   0.2746     O
H       0.5039   0.8664     0.48     H
C      0.50409  0.28446  0.41336     C
H       0.5048   0.3076   0.9812     H
O      0.50517  0.69734   0.3745     O
H       0.5052   0.5884   0.1716     H
C      0.50809  0.78128  0.21294     C
H        0.509    0.113   0.2324     H
C      0.51057  0.39338  0.93568     C
H        0.514   0.1924   0.9812     H
C      0.51405  0.53024  0.07346     C
H       0.5148    0.932   0.5028     H
C      0.51618  0.04244   0.2942     C
H       0.5164   0.3116   0.1404     H
H       0.5181   0.7552   0.2442     H
H       0.5192   0.0186   0.9182     H
H       0.5195   0.7398   0.5538     H
H       0.5215   0.2632   0.2992     H
H       0.5231   0.7534   0.6828     H
C      0.52341   0.2103  0.33568     C
C      0.52392   0.9076  0.46996     C
C       0.5275   0.1432    0.882     C
H       0.5306   0.0668    0.552     H
H       0.5309    0.337   0.0034     H
Mn    0.531386 0.401988  0.63028    Mn
H       0.5316   0.8116   0.6404     H
H       0.5343    0.837   0.9966     H
H       0.5349    0.512   0.0912     H
H       0.5351     0.41   0.0106     H
H       0.5367   0.7548   0.5546     H
H       0.5378   0.9814   0.4182     H
H       0.5399   0.2964   0.0974     H
C       0.5401   0.7578   0.5926     C
H       0.5407   0.2534   0.1828     H
C      0.54232  0.91536     0.75     C
H       0.5429    0.313   0.1884     H
H       0.5443    0.187   0.3116     H
H       0.5443     0.91   0.5106     H
H       0.5445   0.3158   0.4214     H
H       0.5457     0.91   0.9894     H
C      0.54642  0.87316   0.0144     C
H       0.5504    0.432   0.0028     H
H       0.5532    0.932   0.9972     H
C      0.55375  0.10662  0.93568     C
H       0.5539   0.0684    0.312     H
H       0.5542   0.5174   0.1036     H
C      0.55501  0.65556  0.03002     C
N      0.55671   0.0196  0.16418     N
H       0.5579   0.3354   0.3538     H
C      0.55862  0.95756   0.7942     C
C      0.55996  0.37456  0.83072     C
C      0.56082  0.37316   0.9856     C
H       0.5609   0.0722   0.6898     H
H       0.5626   0.4814   0.9182     H
H       0.5656   0.5076   0.0406     H
H       0.5657   0.5684    0.812     H
H       0.5663   0.7964   0.5974     H
H       0.5667      0.1   0.1128     H
H       0.5678   0.6922   0.5998     H
C      0.56848   0.9076  0.03004     C
H       0.5689   0.3206   0.1912     H
C      0.56939   0.2897  0.16432     C
C      0.57511  0.80222  0.11596     C
H       0.5756   0.7914   0.4172     H
N      0.57631   0.9804  0.66418     N
C       0.5769   0.2244   0.3108     C
C      0.57863  0.54324   0.0735     C
H       0.5801   0.0044   0.2768     H
C      0.58042  0.87316   0.4856     C
H       0.5807   0.1794   0.3088     H
O      0.58073  0.40188  0.54286     O
H       0.5813   0.2188   0.1024     H
H       0.5839   0.2368   0.2008     H
H       0.5845   0.9956   0.7768     H
C      0.58503  0.15556  0.96998     C
C      0.58751  0.03024  0.92654     C
C       0.5905   0.3568    0.882     C
C      0.59097  0.16236   0.7833     C
C      0.59163  0.23614    0.369     C
C      0.59198  0.76364    0.163     C
C      0.59247  0.35492  0.72894     C
H       0.5974   0.9332    0.052     H
H       0.5975   0.7188   0.6024     H
C      0.59852   0.4076  0.96996     C
H       0.5992   0.6714    0.052     H
C      0.60491  0.70122  0.33996     C
H       0.6051    0.315   0.4082     H
C      0.60545  0.05766  0.12324     C
H       0.6062   0.0076   0.9594     H
C      0.60653  0.03732  0.66582     C
H       0.6093   0.1334   0.0022     H
C      0.60932  0.12544  0.83072     C
C       0.6095   0.2578   0.0926     C
H       0.6115   0.6334   0.9978     H
C       0.6121   0.2756   0.1892     C
H       0.6138   0.9924   0.4594     H
C       0.6152   0.3028   0.3706     C
O      0.61629  0.51604  0.36518     O
C      0.61775  0.96976  0.42654     C
H       0.6181   0.5336   0.5712     H
C      0.61923  0.62036  0.05458     C
H       0.6211   0.3206   0.3252     H
H        0.622    0.887   0.7324     H
H       0.6223   0.9316    0.812     H
C      0.62267  0.80222  0.38404     C
H       0.6242   0.8592   0.0248     H
C      0.62573  0.33764   0.7833     C
H       0.6261    0.012   0.9088     H
H       0.6287    0.837   0.5034     H
H        0.629    0.551   0.0966     H
H       0.6297   0.5256   0.0386     H
H        0.633   0.7914   0.0828     H
H       0.6331   0.9278   0.1898     H
H       0.6371   0.4526   0.4496     H
H       0.6373   0.7964   0.9026     H
H       0.6381    0.988   0.4088     H
H       0.6387   0.5044   0.7768     H
H       0.6402   0.1922   0.0998     H
H       0.6436   0.2182   0.4692     H
C      0.64385  0.96268  0.16582     C
C      0.64438  0.76364    0.337     C
H       0.6456    0.613   0.7324     H
C      0.64718  0.54244   0.7942     C
H        0.649   0.3592   0.9752     H
H       0.6494   0.4332    0.948     H
H       0.6512   0.1714    0.948     H
C      0.65213  0.04324   0.9265     C
O      0.65369  0.17626  0.68636     O
H       0.6539   0.2548   0.0546     H
H       0.6556    0.216   0.2854     H
H       0.6557   0.6036   0.0854     H
C      0.65571  0.52094  0.60084     C
H       0.6568   0.8116   0.8596     H
H        0.657    0.284   0.2146     H
H       0.6578   0.0174   0.8964     H
O      0.65995  0.32374  0.68636     O
C      0.66037  0.89338  0.43568     C
N      0.66238  0.46198  0.62946     N
C      0.66311  0.94234  0.62324     C
H       0.6667      0.9   0.6128     H
H       0.6683   0.0256   0.9614     H
C       0.6707   0.8568    0.382     C
O      0.67089  0.65466  0.30934     O
H       0.6712   0.5986   0.0214     H
C      0.67181  0.27706  0.33092     C
C      0.67381  0.12036  0.94542     C
O      0.67445  0.65466  0.19066     O
H       0.6752   0.9826   0.3964     H
H       0.6768   0.0884   0.8284     H
C      0.67859  0.14508  0.72894     C
H       0.6795      0.6   0.8872     H
C      0.68186  0.17966  0.39282     C
H       0.6837   0.7188   0.8976     H
C      0.68401  0.36182  0.52716     C
H       0.6869   0.2398   0.0538     H
Mn    0.690354     0.25 0.619292    Mn
C      0.69107  0.30222  0.88404     C
H       0.6926   0.0986   0.9786     H
C      0.69376  0.18258   0.4469     C
C      0.69387  0.70122  0.16004     C
H       0.6939   0.9744   0.4614     H
C      0.69537  0.95676   0.4265     C
H        0.696    0.379   0.1756     H
C      0.69677  0.26386    0.131     C
H       0.6977   0.3006   0.3506     H
C      0.70191  0.21554  0.08664     C
C       0.7021   0.7578   0.9074     C
O      0.70573   0.1811  0.55824     O
H       0.7064   0.8076   0.4812     H
C      0.70768  0.58464     0.75     C
H       0.7079    0.255    0.296     H
N      0.70816  0.03802  0.62946     N
H       0.7085   0.7548   0.9454     H
C      0.70918  0.41994   0.4355     C
C      0.71063  0.78128  0.28706     C
Mn    0.712152 0.575696     0.25    Mn
O      0.71269  0.49658  0.19724     O
C      0.71365  0.55766  0.62324     C
H       0.7158   0.2914   0.9172     H
H       0.7205      0.6   0.6128     H
N      0.72089   0.5196  0.83582     N
C      0.72103  0.28128  0.78706     C
C      0.72251  0.02094  0.10084     C
H       0.7226   0.6674   0.4488     H
H       0.7235   0.7534   0.8172     H
C      0.72483  0.48318  0.34696     C
H       0.7256    0.051   0.9034     H
H       0.7267   0.7552   0.2558     H
C      0.72765  0.46268  0.66582     C
C      0.72869  0.55766  0.87676     C
H       0.7302   0.5986   0.4786     H
H       0.7313    0.813   0.8116     H
C      0.73371   0.7897  0.83568     C
C      0.73476  0.87456  0.33072     C
H       0.7357   0.2808    0.348     H
O      0.73603   0.3189  0.55824     O
H         0.74   0.6922   0.9002     H
C      0.74059  0.84444  0.46998     C
H       0.7407   0.6036   0.4146     H
H       0.7407   0.7398   0.9462     H
H       0.7411   0.1036   0.9146     H
H       0.7414    0.613   0.7676     H
H       0.7427   0.8666   0.5022     H
C       0.7432   0.3753   0.1395     C
C      0.74345  0.97906  0.60084     C
N      0.74618  0.96198  0.12946     N
H       0.7471   0.1646   0.1462     H
H       0.7493   0.4278   0.6898     H
H       0.7506    0.121   0.3244     H
C      0.75246  0.36654  0.46854     C
C      0.75333  0.83764   0.2833     C
C      0.75434  0.32034  0.10718     C
C      0.75498  0.26364    0.837     C
H       0.7551   0.6334   0.5022     H
C        0.758   0.1247   0.3605     C
H       0.7589    0.245    0.204     H
N      0.75951   0.5196  0.66418     N
H       0.7601   0.8206   0.8088     H
C      0.76041  0.62036  0.44542     C
H       0.7623   0.2552   0.7558     H
H       0.7652   0.9116   0.3284     H
H       0.7669   0.1794   0.1748     H
C      0.77398  0.42424   0.3816     C
O      0.77605  0.09676   0.7254     O
H       0.7766    0.949   0.4034     H
H       0.7771   0.0336   0.0712     H
C        0.779  0.13346  0.46854     C
C      0.77979  0.22294  0.16908     C
H       0.7817   0.1842   0.0786     H
H       0.7847   0.7368   0.7992     H
C      0.78855  0.71554  0.91336     C
C       0.7886   0.1972   0.1294     C
C      0.78883  0.13818  0.52716     C
C      0.78943  0.65556  0.46998     C
O      0.79073  0.49658  0.30276     O
H       0.7912   0.9014   0.4786     H
C      0.79199  0.48318  0.15304     C
H       0.7941   0.7466   0.6828     H
C      0.79417  0.87964  0.44542     C
O      0.79749  0.69734   0.1255     O
H       0.8001   0.7812   0.6024     H
C       0.8013   0.7756   0.8108     C
C      0.80178  0.42424   0.1184     C
C      0.80967  0.46268  0.83418     C
C      0.81038  0.54244   0.7058     C
H       0.8107   0.9664   0.5712     H
H       0.8124   0.6924   0.4812     H
H         0.82    0.551   0.4034     H
H       0.8207   0.7632   0.7008     H
H       0.8226   0.8286    0.448     H
H       0.8229   0.4278   0.8102     H
C      0.82324  0.31742   0.0531     C
C      0.82335  0.52094  0.89916     C
C      0.82367  0.85492  0.22894     C
C      0.82777  0.76386    0.869     C
H        0.828   0.6884   0.6404     H
H       0.8283    0.185   0.0918     H
O      0.82995  0.82374  0.18636     O
H        0.831   0.2818   0.0308     H
H       0.8324   0.8078   0.5998     H
H       0.8363   0.7036   0.5974     H
Mn    0.838334 0.098012  0.63028    Mn
C      0.84442  0.07576   0.3816     C
H       0.8447   0.5256   0.4614     H
H       0.8447   0.8964   0.4146     H
H       0.8483   0.5336   0.9288     H
H       0.8489   0.1994   0.1494     H
C      0.85391  0.20122  0.83996     C
C      0.85532  0.08006   0.4355     C
H       0.8559    0.687   0.6884     H
H       0.8569   0.5044   0.7232     H
C      0.85909   0.7103  0.66432     C
C      0.85934  0.31742   0.4469     C
H       0.8603   0.6842   0.9214     H
C      0.86152  0.82034  0.89282     C
H       0.8618   0.7818   0.9692     H
H       0.8645   0.2192    0.152     H
O      0.86511  0.15466  0.80934     O
H       0.8659   0.5684    0.688     H
C       0.8673   0.7422   0.5926     C
O      0.86767  0.51604  0.13482     O
H       0.8679    0.663   0.5034     H
C      0.87088  0.41994   0.0645     C
H       0.8716    0.784   0.7854     H
H       0.8716    0.879   0.8244     H
O      0.87281  0.90324   0.2254     O
N      0.87564  0.46198  0.87054     N
C      0.87634  0.81742   0.9469     C
O      0.87641  0.09812  0.54286     O
C      0.87813  0.54324   0.4265     C
O      0.87967  0.19734   0.6255     O
C        0.881  0.36654  0.03146     C
C       0.8815   0.3753   0.3605     C
C       0.8827   0.8753   0.8605     C
O      0.88683   0.8189  0.05824     O
H       0.8872   0.2818   0.4692     H
C       0.8877   0.7244   0.6892     C
H       0.8895   0.6794   0.6912     H
H       0.8933   0.6646   0.8538     H
O      0.90179  0.59676   0.2254     O
C      0.90395  0.60662  0.43568     C
H       0.9064   0.5884   0.3284     H
O      0.90651  0.00342  0.30276     O
H       0.9087   0.7452   0.5546     H
O      0.90993  0.99658  0.80276     O
H       0.9103   0.4526   0.0504     H
H       0.9117   0.8354   0.6462     H
C      0.91246  0.86654  0.96854     C
H       0.9133   0.0474   0.4496     H
H       0.9163   0.2192    0.348     H
H       0.9174   0.4332    0.552     H
C      0.91745  0.78446  0.58664     C
C        0.918   0.6972   0.8706     C
H       0.9201    0.685   0.9082     H
C      0.92018  0.92424   0.8816     C
O      0.92299  0.19734   0.8745     O
H        0.925    0.379   0.3244     H
C      0.92532  0.32034  0.39282     C
H       0.9267   0.7602   0.5538     H
H       0.9268   0.5076   0.4594     H
C      0.92701  0.86182  0.02716     C
C      0.92821  0.01682  0.34696     C
H       0.9284   0.5174   0.3964     H
Mn    0.933374 0.598012  0.13028    Mn
C      0.93398  0.62684   0.4856     C
C      0.93452  0.62544  0.33072     C
C      0.93538  0.91994   0.9355     C
Mn    0.936346 0.901988  0.13028    Mn
Mn    0.940354     0.75 0.119292    Mn
H        0.941    0.716   0.7146     H
H       0.9417   0.6794   0.8252     H
C      0.94487  0.20122  0.66004     C
C      0.94503  0.98318  0.84696     C
O      0.94507   0.3189  0.94176     O
H       0.9451     0.59   0.5106     H
H       0.9463   0.8206   0.6748     H
C       0.9473   0.6432    0.382     C
C      0.94739  0.64508  0.22894     C
C      0.94887  0.72294  0.83092     C
H       0.9517   0.1994   0.3506     H
H       0.9531    0.512   0.4088     H
C      0.95417  0.36182  0.97284     C
C      0.95571  0.53024  0.42654     C
H        0.956   0.4814   0.5818     H
C      0.96063  0.73614    0.631     C
H       0.9607   0.9526   0.9496     H
Mn    0.962152 0.075696     0.75    Mn
H       0.9629    0.745    0.796     H
C      0.96337  0.66236   0.2833     C
H       0.9659   0.8158   0.5786     H
O      0.97453  0.90188  0.04286     O
O      0.98023  0.15466  0.69066     O
C      0.98138  0.26364    0.663     C
O      0.98147  0.01604  0.63482     O
H       0.9824    0.568   0.5028     H
H       0.9825   0.2552   0.7442     H
O      0.98261  0.59812  0.04286     O
H       0.9835   0.2808    0.152     H
O      0.98369  0.67626  0.18636     O
H       0.9839   0.3664     0.52     H
C       0.9858   0.8028   0.6294     C
H       0.9867    0.185   0.4082     H
H       0.9928   0.2914   0.5828     H
C      0.99329  0.69778  0.38404     C
C      0.99388   0.4076  0.53004     C
H       0.9961    0.245    0.296     H
C      0.99727  0.22294  0.33092     C
O      0.99751  0.98396  0.13482     O
C      0.99769  0.28128  0.71294     C
H       0.9983   0.6994   0.8506     H
