data_I
_chemical_name_common  '/Users/gianmarcoterrones/Research/MOFs/MOF_structures/water_stability_work_extra_structs/cleaned_from_CCDC/YEGCOE'
_cell_length_a 16.34000
_cell_length_b 16.70424
_cell_length_c 17.81675
_cell_angle_alpha 109.22600
_cell_angle_beta  108.41902
_cell_angle_gamma 107.70884
_space_group_name_H-M_alt      'P 1'


loop_
_space_group_symop_operation_xyz
  'x, y, z' 

loop_
_atom_site_label
_atom_site_fract_x
_atom_site_fract_y
_atom_site_fract_z
_atom_site_type_symbol
H       0.0003   0.0097    0.606     H
C      0.00477  0.01377  0.35414     C
O      0.00494  0.65294  0.20128     O
H       0.0053   0.5192   0.3378     H
O      0.00856  0.62666  0.48312     O
C      0.00927  0.01157  0.79134     C
N      0.01434  0.31484  0.98508     N
C      0.01528  0.04708  0.73216     C
C      0.01652  0.08352  0.23244     C
H        0.019   0.7784   0.7908     H
H       0.0229   0.0527   0.8486     H
H       0.0249   0.5101    0.834     H
O      0.02544  0.14354  0.51688     O
C       0.0265   0.1218   0.1662     C
C      0.02862  0.43212  0.25004     C
C      0.03115  0.38495   0.0593     C
C      0.03229  0.10939  0.37958     C
H       0.0329   0.2398   0.1516     H
C       0.0343   0.2212   0.1974     C
C      0.03539  0.57029  0.83358     C
N      0.03784  0.63584  0.91448     N
O      0.03874  0.17774  0.70208     O
C      0.03882  0.14392  0.32004     C
C      0.03995  0.15015   0.7595     C
Mn     0.04911  0.81196  0.40912    Mn
H       0.0512   0.4054   0.4082     H
H       0.0536   0.9208   0.9664     H
C      0.05524  0.17854  0.47288     C
H       0.0584   0.2086   0.3384     H
C       0.0616   0.9428   0.9246     C
O      0.06365  0.20385   0.8399     O
C       0.0649   0.5259   0.3344     C
H        0.069   0.0066   0.9452     H
H       0.0699   0.4116   0.2516     H
C      0.07404  0.75864  0.03828     C
H       0.0768   0.3855   0.7212     H
H        0.082   0.5933    0.101     H
C      0.08236  0.70566  0.52712     C
H       0.0839   0.4257   0.2448     H
H        0.086   0.4436   0.0906     H
O      0.09155  0.34155   0.6831     O
Mn     0.09306  0.34761  0.91088    Mn
H        0.094    0.586   0.3344     H
C      0.09413  0.70673  0.25726     C
H       0.0942   0.2652   0.2514     H
H       0.0974   0.5972   0.8342     H
O      0.10183  0.26443  0.49806     O
O      0.10377  0.76637  0.50194     O
H       0.1057   0.5963    0.606     H
H       0.1066   0.8707   0.1534     H
C      0.10758  0.72818  0.97636     C
C      0.11038  0.45998  0.43996     C
H       0.1123   0.0609   0.1366     H
C       0.1182   0.1242   0.1588     C
H       0.1182   0.9419   0.9196     H
O      0.12249  0.49489  0.98238     O
O      0.12275  0.76095   0.3385     O
H        0.126   0.1484   0.1182     H
C       0.1279   0.8496   0.1116     C
N      0.13225  0.52695   0.4135     N
Mn     0.13999  0.40284  0.59088    Mn
H        0.143   0.9972   0.5918     H
H       0.1444   0.3357   0.7212     H
C       0.1456   0.6396   0.1402     C
C      0.15063  0.65963  0.64586     C
C      0.15271  0.72981  0.62042     C
O      0.16334  0.52434  0.70208     O
N       0.1656   0.9639    0.485     N
H       0.1675   0.1814   0.6622     H
C      0.17007  0.70587  0.22694     C
C      0.17042  0.02002  0.56004     C
H       0.1736   0.1647   0.2168     H
N       0.1806   0.4789    0.515     N
C       0.1952   0.7854   0.9846     C
C      0.19587  0.57357  0.02174     C
H       0.2135    0.945    0.344     H
C        0.215   0.9069   0.1188     C
C       0.2157   0.0254   0.4604     C
C      0.21688  0.68508  0.73216     C
H       0.2173   0.7641   0.9436     H
C      0.21803  0.64453  0.11426     C
N      0.21875  0.11345   0.5865     N
C      0.21878  0.82388  0.67996     C
C      0.21955  0.60935   0.7595     C
H         0.22   0.8702   0.6616     H
C      0.22541  0.59631  0.47622     C
H       0.2263   0.1795   0.9436     H
C       0.2305   0.1915   0.6656     C
C      0.23366  0.00696  0.38592     C
H       0.2365   0.1224   0.7436     H
H       0.2368    0.237   0.8342     H
H        0.237   0.3881   0.2356     H
O      0.23826  0.39196  0.99172     O
H       0.2418   0.4388   0.2442     H
C       0.2475   0.8753   0.0566     C
C      0.24919  0.12009  0.52378     C
H       0.2527   0.9682   0.1666     H
H       0.2532   0.4365   0.3344     H
O      0.25346  0.59976  0.99172     O
C       0.2553    0.565   0.5396     C
H       0.2579   0.1479   0.0642     H
H       0.2596   0.2516   0.6656     H
H       0.2627   0.7023    0.443     H
H       0.2633   0.4963    0.283     H
H       0.2654   0.4805   0.3454     H
C      0.26728  0.77338  0.28536     C
H       0.2718   0.0124   0.7908     H
C       0.2737   0.4458   0.2918     C
O      0.27625  0.63605   0.8399     O
C      0.27858  0.18208  0.74996     C
C       0.2818   0.0833   0.3774     C
C      0.28207  0.77977  0.79134     C
H       0.2831   0.8166   0.3426     H
C       0.2833   0.6823   0.4852     C
C      0.28408  0.85108  0.76756     C
O      0.28425  0.42245   0.6615     O
C       0.2894   0.1992   0.9846     C
H       0.2934   0.4368   0.1538     H
H       0.2939   0.0725   0.3282     H
C       0.2981   0.1971   0.5148     C
C      0.29819  0.26329  0.83358     C
H       0.3014   0.9777   0.9196     H
H       0.3031   0.3257   0.2602     H
O      0.30366  0.45166  0.79872     O
H       0.3063   0.9163   0.0642     H
C       0.3091   0.1813   0.0566     C
H       0.3091   0.3239    0.834     H
C       0.3134   0.1772   0.4398     C
C      0.31346  0.71356  0.17312     C
Mn     0.31782  0.56327  0.91088    Mn
H       0.3183     0.16   0.7484     H
H       0.3197   0.2593    0.557     H
H       0.3257   0.7959   0.8486     H
C      0.32587  0.44817  0.02174     C
C      0.33687  0.44947  0.74274     C
C       0.3369   0.0238   0.8026     C
H       0.3372   0.3681   0.3636     H
H       0.3391   0.1809   0.7552     H
C      0.34068  0.77848  0.26136     C
H       0.3428   0.0138   0.7486     H
H       0.3451   0.2271    0.431     H
C      0.34774  0.62104  0.61408     C
C       0.3558   0.3722   0.3184     C
C      0.35966  0.45956  0.17312     C
O      0.35989  0.48749  0.98238     O
C       0.3603   0.9556   0.8338     C
H       0.3604    0.717   0.1538     H
H       0.3611   0.3346   0.2934     H
C        0.363   0.9818   0.9246     C
C      0.36878  0.24818  0.97636     C
H       0.3695    0.601    0.656     H
C       0.3736   0.7374   0.5602     C
H       0.3762   0.9386   0.9452     H
N      0.37664  0.27864  0.91448     N
H       0.3774   0.3897   0.3912     H
H       0.3813   0.0882   0.8484     H
C       0.3815    0.472   0.3268     C
C      0.39623  0.46973  0.11426     C
C       0.4038   0.2119   0.1188     C
C       0.4044   0.7059   0.6226     C
H       0.4048   0.9597   0.3702     H
H       0.4111   0.3604   0.3264     H
H       0.4128   0.0456   0.9664     H
H       0.4139   0.1984   0.1666     H
H       0.4141   0.7961    0.569     H
H       0.4153    0.966   0.3264     H
H       0.4175   0.5606   0.4578     H
H       0.4188   0.1021   0.6656     H
H         0.42   0.1351   0.6546     H
C      0.42068  0.48288  0.26136     C
H       0.4244   0.9014   0.4382     H
H       0.4291   0.6164   0.4032     H
H       0.4302   0.5378   0.4632     H
H       0.4318    0.855   0.4388     H
H       0.4323   0.9588   0.2934     H
C       0.4392   0.5672    0.415     C
H       0.4405    0.474   0.6574     H
C      0.44313  0.47893  0.77306     C
C       0.4453   0.8548   0.3268     C
C       0.4494   0.9528   0.3472     C
H       0.4532   0.7173   0.8466     H
H       0.4568   0.9479   0.7832     H
H       0.4572   0.8212   0.4298     H
C       0.4594   0.9654   0.8412     C
H       0.4597   0.1028   0.5422     H
C      0.46424  0.27964  0.03828     C
H       0.4657   0.7443   0.6718     H
H        0.467   0.0746   0.5368     H
C        0.467   0.8779   0.4236     C
N      0.47074  0.67024  0.98508     N
C      0.47185  0.32565   0.9407     C
H       0.4726   0.6086   0.4298     H
H       0.4736   0.0045   0.6364     H
H       0.4757   0.9243   0.8634     H
H       0.4803   0.2133    0.717     H
H        0.481   0.4923    0.899     H
C       0.4819    0.154   0.7082     C
C      0.48192  0.48802  0.71464     C
C       0.4837    0.262   0.1116     C
H       0.4862   0.4632   0.5618     H
H       0.4862   0.9985   0.6088     H
H       0.4922   0.9698   0.1182     H
H        0.493   0.4162   0.5612     H
C       0.4946   0.5006   0.1402     C
H       0.4954    0.353   0.9094     H
H       0.4976   0.1946   0.7558     H
H       0.5014   0.1525   0.7644     H
H       0.5024   0.8054   0.2442     H
H        0.503   0.7602   0.3086     H
H       0.5046    0.647   0.0906     H
C       0.5054   0.4994   0.8598     C
H        0.507   0.5838   0.4388     H
H       0.5078   0.0302   0.8818     H
H       0.5138   0.0015   0.3912     H
C       0.5141   0.8179   0.3042     C
C       0.5163    0.738   0.8884     C
C      0.51808  0.51198  0.28536     C
H        0.519   0.5077    0.101     H
H       0.5197   0.7867    0.283     H
C       0.5242   0.1522    0.585     C
H       0.5243   0.0757   0.1366     H
H       0.5259   0.2132   0.5968     H
H       0.5264   0.9955   0.3636     H
H       0.5274   0.3914   0.5702     H
C      0.52815  0.67435   0.0593     C
N      0.52926  0.32976  0.01492     N
H        0.533   0.9254   0.4632     H
H       0.5343   0.2557   0.3282     H
H       0.5346   0.5895   0.6298     H
C      0.53576  0.72036  0.96172     C
C       0.5374   0.0538   0.6816     C
H       0.5403   0.8972   0.4578     H
C       0.5406   0.0346   0.1588     C
H       0.5428   0.1788   0.5702     H
H       0.5429   0.0655   0.7398     H
H       0.5432   0.0521   0.2168     H
C       0.5434   0.4543   0.5764     C
H       0.5468   0.2827   0.1534     H
C       0.5547   0.1452   0.6732     C
C      0.55687  0.52107  0.22694     C
H       0.5595    0.526   0.3426     H
H       0.5677   0.0412   0.7066     H
H       0.5682    0.145   0.5612     H
H       0.5698   0.4622   0.5368     H
C      0.57932  0.51712  0.73864     C
H         0.58   0.8649   0.3454     H
H       0.5812   0.8979   0.3344     H
H       0.5825   0.4394   0.5422     H
H       0.5847    0.034   0.6736     H
H       0.5859   0.2039    0.431     H
H       0.5861   0.8016   0.8334     H
H       0.5872   0.9544   0.0336     H
H       0.5889   0.6396   0.6736     H
C       0.5956   0.2941   0.3774     C
C       0.5962   0.7881   0.8812     C
C       0.6022   0.6056   0.6528     C
C      0.60377  0.53027  0.88574     C
C       0.6185    0.528   0.6732     C
H       0.6187   0.9118   0.1516     H
H       0.6226   0.6103   0.6088     H
N      0.62336  0.72136  0.08552     N
H       0.6238   0.0614   0.0548     H
C       0.6264   0.2626   0.4398     C
H       0.6273   0.7391    0.242     H
H       0.6305    0.399    0.344     H
C      0.63122  0.75182  0.02364     C
C        0.637   0.0182   0.0754     C
H       0.6389   0.6654   0.7066     H
H       0.6396    0.283   0.8462     H
C       0.6397   0.0444   0.1662     C
O      0.64011  0.51251  0.01762     O
C      0.64034  0.54044  0.82688     C
C      0.65226  0.37896  0.38592     C
H       0.6549   0.7729    0.569     H
H       0.6572   0.9862   0.2514     H
C      0.65932  0.22152  0.73864     C
H       0.6609   0.8191   0.2448     H
H       0.6628   0.6319   0.6364     H
C       0.6631   0.9762   0.1974     C
C      0.66313  0.55053  0.25726     C
C      0.67413  0.55183  0.97826     C
H       0.6743   0.2041   0.1514     H
H       0.6803   0.7407    0.443     H
H       0.6817     0.84   0.2516     H
Mn     0.68218  0.43673  0.08912    Mn
C      0.68654  0.28644  0.82688     C
C       0.6866   0.8228   0.5602     C
C      0.68731  0.78301  0.24882     C
H       0.6909   0.6761    0.166     H
C       0.6909   0.8187   0.9434     C
H       0.6937   0.0837   0.9358     H
H       0.6944   0.4516   0.6914     H
O      0.69634  0.54834  0.20128     O
H       0.6986   0.0223   0.0804     H
C      0.70181  0.73671  0.16642     C
C       0.7019   0.8029   0.4852     C
H       0.7061   0.9275   0.6718     H
H       0.7066   0.5632   0.8462     H
C       0.7099   0.5137   0.6958     C
C       0.7106   0.8008   0.0154     C
O      0.71575  0.57755   0.3385     O
C      0.71592  0.14892  0.23244     C
C       0.7167   0.3177   0.5148     C
H       0.7169   0.1834   0.6574     H
C      0.71793  0.22023  0.20866     C
C       0.7182   0.9167   0.6226     C
O      0.72375  0.36395   0.1601     O
H       0.7282   0.9876   0.2092     H
C      0.73272  0.22662  0.71464     C
H       0.7346   0.5195   0.6546     H
H       0.7367   0.5037    0.717     H
H       0.7373   0.2977    0.557     H
H       0.7404   0.7484   0.3344     H
H       0.7421   0.8521   0.9358     H
C       0.7447    0.435   0.4604     C
O      0.74654  0.40024  0.00828     O
H       0.7468   0.5635   0.6656     H
H       0.7473   0.0318   0.8334     H
C      0.75081  0.87991  0.47622     C
C       0.7525   0.1247   0.9434     C
H       0.7582   0.5612   0.7558     H
O      0.76174  0.60804  0.00828     O
H       0.7632    0.763   0.1658     H
C      0.76634  0.99304  0.61408     C
C       0.7695   0.8085   0.3344     C
H       0.7737   0.8205   0.0564     H
C      0.77459  0.40369  0.52378     C
H         0.78   0.1298   0.3384     H
C      0.78045  0.39065   0.2405     C
C      0.78122  0.17612  0.32004     C
N      0.78125  0.88655   0.4135     N
C      0.78197  0.35547  0.88574     C
H       0.7827   0.2359   0.0564     H
C      0.78312  0.31492  0.26784     C
C       0.7843   0.9746   0.5396     C
C        0.785   0.0931   0.8812     C
H       0.7865    0.055    0.656     H
C      0.80413  0.42643  0.97826     C
C       0.8048   0.2146   0.0154     C
N       0.8194   0.5211    0.485     N
H       0.8264   0.8353   0.7832     H
C      0.82958  0.97998  0.43996     C
C      0.82993  0.29413  0.77306     C
H       0.8325   0.8186   0.3378     H
N       0.8344   0.0361    0.515     N
O      0.83666  0.47566  0.29792     O
C      0.84729  0.27019  0.37958     C
C      0.84937  0.34037  0.35414     C
C       0.8544   0.3604   0.8598     C
H       0.8556   0.6643   0.2788     H
H        0.857   0.0028   0.4082     H
Mn     0.86001  0.59716  0.40912    Mn
N      0.86775  0.47305   0.5865     N
C       0.8721   0.1504   0.8884     C
H        0.874   0.8516   0.8818     H
O      0.87725  0.23905   0.6615     O
O      0.87751  0.50511  0.01762     O
H       0.8818   0.0581   0.0804     H
C       0.8818   0.8758   0.8412     C
H       0.8853   0.4971    0.758     H
H       0.8877   0.9391   0.8634     H
C      0.88962  0.54002  0.56004     C
C      0.89242  0.27182  0.02364     C
H       0.8934   0.1293   0.8466     H
H       0.8943   0.4037    0.394     H
O      0.89623  0.23363  0.49806     O
O      0.89817  0.73557  0.50194     O
H       0.9026   0.4028   0.1658     H
H       0.9058   0.7348   0.7486     H
C      0.90587  0.29327  0.74274     C
H        0.906    0.414   0.6656     H
Mn     0.90694  0.65239  0.08912    Mn
O      0.90845  0.65845   0.3169     O
H        0.914   0.5564   0.9094     H
H       0.9161   0.5743   0.7552     H
C      0.91764  0.29434  0.47288     C
H        0.918   0.4067    0.899     H
H       0.9232   0.6145   0.2788     H
C      0.92596  0.24136  0.96172     C
H       0.9301   0.5884   0.7484     H
H        0.931   0.9934   0.0548     H
C       0.9351   0.4741   0.6656     C
O      0.93635  0.79615   0.1601     O
C       0.9384   0.0572   0.0754     C
C      0.93849  0.53419  0.75118     C
H       0.9416   0.7914   0.6616     H
C      0.94476  0.82146  0.52712     C
H       0.9464   0.0792   0.0336     H
H       0.9488   0.5946   0.5918     H
Mn     0.95089  0.18804  0.59088    Mn
C      0.96005  0.84985   0.2405     C
C      0.96118  0.85608  0.67996     C
O      0.96126  0.82226  0.29792     O
N      0.96216  0.36416  0.08552     N
C      0.96461  0.42971  0.16642     C
C       0.9657   0.7788   0.8026     C
H       0.9671   0.7602   0.8484     H
C      0.96771  0.89061  0.62042     C
C      0.96885  0.61505   0.9407     C
C       0.9735   0.8782   0.8338     C
O      0.97456  0.85646  0.48312     O
H       0.9751   0.4899    0.166     H
H       0.9771   0.9473   0.1514     H
H        0.981   0.2216   0.2092     H
C      0.98348  0.91648  0.76756     C
C      0.98472  0.95292  0.26784     C
N      0.98566  0.68516  0.01492     N
C      0.99073  0.98843  0.20866     C
O      0.99144  0.37334  0.51688     O
H       0.9929   0.3788   0.2564     H
H       0.9947   0.4808   0.6622     H
O      0.99506  0.34706  0.79872     O
C      0.99523  0.98623  0.64586     C
H       0.9997   0.9903    0.394     H
