data_I
_chemical_name_common  '/Users/gianmarcoterrones/Research/MOFs/MOF_structures/water_stability_work_extra_structs/cleaned_from_CCDC/YEGSUZ'
_cell_length_a 16.02024
_cell_length_b 16.02024
_cell_length_c 16.02024
_cell_angle_alpha 101.29423
_cell_angle_beta  113.70804
_cell_angle_gamma 113.70804
_space_group_name_H-M_alt      'P 1'


loop_
_space_group_symop_operation_xyz
  'x, y, z' 

loop_
_atom_site_label
_atom_site_fract_x
_atom_site_fract_y
_atom_site_fract_z
_atom_site_type_symbol
O          0.0   0.1354   0.1354     O
Cu         0.0  0.24331  0.24331    Cu
Cu         0.0  0.29427  0.29427    Cu
Cu         0.0  0.37268  0.37268    Cu
O          0.0   0.4774   0.4774     O
O          0.0   0.5226   0.5226     O
Cu         0.0  0.62732  0.62732    Cu
Cu         0.0  0.70573  0.70573    Cu
Cu         0.0  0.75669  0.75669    Cu
O          0.0   0.8646   0.8646     O
O      0.01441  0.16083  0.71882     O
O      0.01441  0.29559  0.85358     O
C       0.0278  0.19801  0.66001     C
C       0.0278  0.36779  0.82979     C
O      0.02982  0.63986  0.25608     O
O      0.02982  0.77374  0.38996     O
O       0.0524    0.908   0.1444     O
O       0.0742   0.3411   0.1627     O
O       0.0742   0.9115   0.7331     O
O       0.0784   0.3621   0.2237     O
O       0.0784   0.8547   0.7163     O
H       0.0785   0.0271    0.591     H
H       0.0785   0.4875   0.0514     H
H       0.0909   0.1834   0.5733     H
H       0.0909   0.5176   0.9075     H
O       0.0915   0.4741   0.3456     O
O       0.0915   0.7459   0.6174     O
Cu     0.09527  0.84632  0.24895    Cu
H       0.0964    0.924   0.1258     H
H       0.0964   0.9706   0.1724     H
O        0.102   0.4202   0.3084     O
O        0.102   0.7936   0.6818     O
C       0.1061   0.4457   0.2754     C
C       0.1061   0.8307   0.6604     C
O       0.1118   0.3182   0.4202     O
O       0.1118   0.6916   0.7936     O
C       0.1124   0.4194    0.234     C
C       0.1124   0.8784    0.693     C
C       0.1203   0.2136   0.6465     C
C       0.1203   0.4738   0.9067     C
H        0.124    0.547    0.225     H
H        0.124    0.899    0.577     H
O       0.1285   0.3826   0.4741     O
O       0.1285   0.6544   0.7459     O
O       0.1384   0.2837   0.3621     O
O       0.1384   0.7763   0.8547     O
Cu     0.14432  0.76731  0.37701    Cu
C       0.1477   0.0707   0.6512     C
C       0.1477   0.4965    0.077     C
H       0.1493   0.6403   0.4448     H
H       0.1493   0.7045    0.509     H
C       0.1694    0.529    0.247     C
C       0.1694   0.9224   0.6404     C
C       0.1703   0.3396   0.4457     C
C       0.1703   0.7246   0.8307     C
H       0.1705    0.287   0.6725     H
H       0.1705    0.498   0.8835     H
O       0.1784   0.2669   0.3411     O
O       0.1784   0.8373   0.9115     O
O         0.18   0.7026   0.4774     O
C       0.1846   0.1718   0.6958     C
C       0.1846   0.4888   0.0128     C
C       0.1854    0.307   0.4194     C
C       0.1854    0.766   0.8784     C
H       0.1955    0.491   0.6403     H
H       0.1955   0.5552   0.7045     H
H       0.2018   0.1258   0.0294     H
H       0.2018   0.1724    0.076     H
O      0.20827  0.83888  0.23271     O
O      0.20827  0.97556  0.36939     O
C       0.2092    0.031   0.6922     C
C       0.2092    0.517   0.1782     C
H        0.224    0.588    0.302     H
H        0.224    0.922    0.636     H
O       0.2252   0.5226   0.7026     O
O       0.2364   0.1444    0.092     O
O        0.249  0.77257  0.34209     O
O        0.249  0.90691  0.47643     O
C       0.2606   0.8057   0.2803     C
C       0.2606   0.9803   0.4549     C
H       0.2614   0.1929   0.5439     H
H       0.2614   0.7175   0.0685     H
C        0.282   0.3596    0.529     C
C        0.282    0.753   0.9224     C
H        0.286    0.364    0.588     H
H        0.286    0.698    0.922     H
C       0.2873   0.2344   0.7839     C
C       0.2873   0.5034   0.0529     C
C       0.3086   0.0947   0.7787     C
C       0.3086   0.5299   0.2139     C
H       0.3152   0.3042   0.8156     H
H       0.3152   0.4996    0.011     H
C        0.316   0.2213   0.5299     C
C        0.316   0.7861   0.0947     C
H        0.322    0.423    0.547     H
H        0.322    0.775    0.899     H
H       0.3223   0.0883   0.5924     H
H       0.3223   0.7299    0.234     H
C       0.3388   0.3078    0.517     C
C       0.3388   0.8218    0.031     C
C       0.3453   0.0827   0.5438     C
C       0.3453   0.8015   0.2626     C
C       0.3489   0.1953   0.8256     C
C       0.3489   0.5233   0.1536     C
H        0.351   0.0685   0.8071     H
H        0.351   0.5439   0.2825     H
C       0.3697   0.1744   0.5233     C
C       0.3697   0.8464   0.1953     C
O      0.38378  0.61004  0.63986     O
O      0.38378  0.74392  0.77374     O
H       0.3855   0.6725    0.502     H
H       0.3855   0.8835    0.713     H
H       0.3899   0.5733   0.4824     H
H       0.3899   0.9075   0.8166     H
Cu      0.3903  0.62299  0.76731    Cu
O      0.39383  0.23271  0.02444     O
O      0.39383  0.36939  0.16112     O
Cu     0.40263  0.24895  0.15368    Cu
H       0.4133   0.0843   0.5774     H
H       0.4133   0.8359    0.329     H
C       0.4195   0.3488   0.4965     C
C       0.4195    0.923   0.0707     C
O      0.43048  0.52357  0.77257     O
O      0.43048  0.65791  0.90691     O
C       0.4329   0.6465   0.5262     C
C       0.4329   0.9067   0.7864     C
H       0.4361    0.409   0.4875     H
H       0.4361   0.9486   0.0271     H
O      0.44201  0.14642  0.16083     O
O      0.44201  0.28118  0.29559     O
C       0.4505   0.2161   0.5034     C
C       0.4505   0.9471   0.2344     C
C       0.4611   0.2626   0.9173     C
C       0.4611   0.5438   0.1985     C
C        0.462  0.66001  0.63221     C
C        0.462  0.82979  0.80199     C
C       0.4746   0.2803   0.0197     C
C       0.4746   0.4549   0.1943     C
C        0.476   0.3042   0.4888     C
C        0.476   0.9872   0.1718     C
H       0.4886   0.1844   0.4996     H
H       0.4886    0.989   0.3042     H
H       0.4931    0.329   0.9157     H
H       0.4931   0.5774   0.1641     H
H       0.4959   0.4076   0.7299     H
H       0.4959    0.766   0.0883     H
H       0.5041    0.234   0.9117     H
H       0.5041   0.5924   0.2701     H
H       0.5069   0.4226   0.8359     H
H       0.5069    0.671   0.0843     H
H       0.5114    0.011   0.6958     H
H       0.5114   0.8156   0.5004     H
C        0.524   0.0128   0.8282     C
C        0.524   0.6958   0.5112     C
C       0.5254   0.5451   0.8057     C
C       0.5254   0.7197   0.9803     C
C        0.538  0.17021  0.19801     C
C        0.538  0.33999  0.36779     C
C       0.5389   0.4562   0.8015     C
C       0.5389   0.7374   0.0827     C
C       0.5495   0.0529   0.7656     C
C       0.5495   0.7839   0.4966     C
O      0.55799  0.71882  0.70441     O
O      0.55799  0.85358  0.83917     O
H       0.5639   0.0514   0.9729     H
H       0.5639    0.591   0.5125     H
C       0.5671   0.0933   0.2136     C
C       0.5671   0.3535   0.4738     C
O      0.56952  0.34209  0.09309     O
O      0.56952  0.47643  0.22743     O
C       0.5805    0.077   0.9293     C
C       0.5805   0.6512   0.5035     C
H       0.5867   0.1641    0.671     H
H       0.5867   0.9157   0.4226     H
Cu     0.59737  0.75105  0.84632    Cu
O      0.60617  0.63061  0.83888     O
O      0.60617  0.76729  0.97556     O
Cu      0.6097  0.37701  0.23269    Cu
H       0.6101   0.0925   0.1834     H
H       0.6101   0.4267   0.5176     H
H       0.6145   0.1165    0.287     H
H       0.6145   0.3275    0.498     H
O      0.61622  0.25608  0.22626     O
O      0.61622  0.38996  0.36014     O
C       0.6303   0.1536   0.8047     C
C       0.6303   0.8256   0.4767     C
H        0.649   0.4561   0.7175     H
H        0.649   0.9315   0.1929     H
C       0.6511   0.4767   0.8464     C
C       0.6511   0.8047   0.1744     C
C       0.6547   0.1985   0.7374     C
C       0.6547   0.9173   0.4562     C
C       0.6612   0.1782    0.969     C
C       0.6612   0.6922    0.483     C
H       0.6777   0.2701    0.766     H
H       0.6777   0.9117   0.4076     H
H        0.678    0.225    0.101     H
H        0.678    0.577    0.453     H
C        0.684   0.2139   0.9053     C
C        0.684   0.7787   0.4701     C
H       0.6848   0.5004    0.989     H
H       0.6848   0.6958   0.1844     H
C       0.6914   0.4701   0.7861     C
C       0.6914   0.9053   0.2213     C
C       0.7127   0.4966   0.9471     C
C       0.7127   0.7656   0.2161     C
H        0.714    0.302    0.078     H
H        0.714    0.636    0.412     H
C        0.718    0.247   0.0776     C
C        0.718   0.6404    0.471     C
H       0.7386   0.2825   0.9315     H
H       0.7386   0.8071   0.4561     H
C       0.7394   0.0197   0.5451     C
C       0.7394   0.1943   0.7197     C
O        0.751  0.09309  0.52357     O
O        0.751  0.22743  0.65791     O
O       0.7636   0.8556    0.908     O
O       0.7748   0.4774   0.2974     O
H        0.776    0.078    0.364     H
H        0.776    0.412    0.698     H
C       0.7908    0.483   0.8218     C
C       0.7908    0.969   0.3078     C
O      0.79173  0.02444  0.63061     O
O      0.79173  0.16112  0.76729     O
H       0.7982   0.8276    0.924     H
H       0.7982   0.8742   0.9706     H
H       0.8045   0.4448   0.2955     H
H       0.8045    0.509   0.3597     H
C       0.8146    0.234   0.1216     C
C       0.8146    0.693   0.5806     C
C       0.8154   0.5112   0.9872     C
C       0.8154   0.8282   0.3042     C
O         0.82   0.2974   0.5226     O
O       0.8216   0.1627   0.0885     O
O       0.8216   0.7331   0.6589     O
H       0.8295    0.502   0.1165     H
H       0.8295    0.713   0.3275     H
C       0.8297   0.2754   0.1693     C
C       0.8297   0.6604   0.5543     C
C       0.8306   0.0776   0.3596     C
C       0.8306    0.471    0.753     C
H       0.8507   0.2955    0.491     H
H       0.8507   0.3597   0.5552     H
C       0.8523   0.5035    0.923     C
C       0.8523   0.9293   0.3488     C
Cu     0.85568  0.23269  0.62299    Cu
O       0.8616   0.2237   0.1453     O
O       0.8616   0.7163   0.6379     O
O       0.8715   0.3456   0.2541     O
O       0.8715   0.6174   0.5259     O
H        0.876    0.101    0.423     H
H        0.876    0.453    0.775     H
C       0.8797   0.5262   0.0933     C
C       0.8797   0.7864   0.3535     C
C       0.8876   0.1216    0.307     C
C       0.8876   0.5806    0.766     C
O       0.8882   0.3084   0.2064     O
O       0.8882   0.6818   0.5798     O
C       0.8939   0.1693   0.3396     C
C       0.8939   0.5543   0.7246     C
O        0.898   0.2064   0.3182     O
O        0.898   0.5798   0.6916     O
H       0.9036   0.0294   0.8276     H
H       0.9036    0.076   0.8742     H
Cu     0.90473  0.15368  0.75105    Cu
O       0.9085   0.2541   0.3826     O
O       0.9085   0.5259   0.6544     O
H       0.9091   0.4824   0.0925     H
H       0.9091   0.8166   0.4267     H
H       0.9215   0.5125   0.9486     H
H       0.9215   0.9729    0.409     H
O       0.9216   0.1453   0.2837     O
O       0.9216   0.6379   0.7763     O
O       0.9258   0.0885   0.2669     O
O       0.9258   0.6589   0.8373     O
O       0.9476    0.092   0.8556     O
O      0.97018  0.22626  0.61004     O
O      0.97018  0.36014  0.74392     O
C       0.9722  0.63221  0.17021     C
C       0.9722  0.80199  0.33999     C
O      0.98559  0.70441  0.14642     O
O      0.98559  0.83917  0.28118     O
