data_I
_chemical_name_common  '/Users/gianmarcoterrones/Research/MOFs/MOF_structures/water_stability_work_extra_structs/cleaned_from_CCDC/YUQMUU'
_cell_length_a  8.01800
_cell_length_b 12.30442
_cell_length_c 12.66826
_cell_angle_alpha 77.23208
_cell_angle_beta  71.55101
_cell_angle_gamma 70.98487
_space_group_name_H-M_alt      'P 1'


loop_
_space_group_symop_operation_xyz
  'x, y, z' 

loop_
_atom_site_label
_atom_site_fract_x
_atom_site_fract_y
_atom_site_fract_z
_atom_site_type_symbol
C      0.01317  0.94469  0.69977     C
F       0.0143   0.6099   0.4407     F
C      0.02225   0.6636   0.5271     C
F         0.04   0.8846   0.9898     F
F       0.0649   0.8901   0.0593     F
F       0.0856   0.3846   0.4898     F
O      0.08709  0.55972   0.6955     O
F       0.0908   0.7259   0.4431     F
F       0.1019   0.2556    0.399     F
H       0.1126   0.3657   0.8115     H
N      0.12414  0.02421  0.23811     N
H       0.1336   0.2369   0.8783     H
F       0.1351   0.2862   0.4274     F
H       0.1443   0.0629   0.5133     H
C      0.15047  0.57682  0.59444     C
F       0.1513   0.7862   0.9274     F
C      0.18104  0.90831  0.61501     C
C       0.1933  0.30045  0.84935     C
C      0.21295   0.8364   0.9729     C
H       0.2148   0.5055   0.8701     H
C      0.22273   0.9864  0.51994     C
C      0.22359  0.33922   0.9444     C
C       0.2336   0.4521   0.9349     C
H       0.2356   0.1864   0.0476     H
F       0.2435   0.7556    0.899     F
C      0.24532  0.26261  0.04075     C
H       0.2488   0.2631   0.6217     H
F       0.2598   0.7741   0.0569     F
H       0.2683   0.7438    0.693     H
C      0.27093   0.4864  0.01994     C
H       0.2795   0.5629   0.0133     H
C      0.28085  0.29618  0.12692     C
H       0.2898   0.1343   0.6885     H
H       0.2949   0.2438    0.193     H
C      0.29564  0.40831  0.11501     C
C      0.29605  0.79618  0.62692     C
O      0.30713  0.53349  0.53737     O
C      0.32173  0.92318  0.90556     C
O      0.34231  0.94028   0.8045     O
C      0.34237  0.44469  0.19977     C
C       0.3431  0.19955  0.65065     C
O      0.37799  0.96651  0.96263     O
C       0.3794   0.9521   0.4349     C
N      0.38646  0.47579  0.26189     N
H       0.4096   0.0055   0.3701     H
Ag     0.41102 0.929065 0.149133    Ag
S      0.41517     0.25     0.75     S
C      0.45132  0.76261  0.54075     C
H       0.4696   0.3136   0.4524     H
Ag    0.489218 0.570935 0.350867    Ag
C      0.49279  0.83922   0.4444     C
C      0.50721  0.16078   0.5556     C
Ag    0.510782 0.429065 0.649133    Ag
H       0.5304   0.6864   0.5476     H
C      0.54868  0.23739  0.45925     C
S      0.58483     0.75     0.25     S
Ag     0.58898 0.070935 0.850867    Ag
H       0.5904   0.9945   0.6299     H
N      0.61354  0.52421  0.73811     N
C       0.6206   0.0479   0.5651     C
O      0.62201  0.03349  0.03737     O
C       0.6569  0.80045  0.34935     C
C      0.65763  0.55531  0.80023     C
O      0.65769  0.05972   0.1955     O
C      0.67827  0.07682  0.09444     C
F       0.6916   0.2437   0.9573     F
O      0.69287  0.46651  0.46263     O
C      0.70395  0.20382  0.37308     C
C      0.70436  0.59169  0.88499     C
H       0.7051   0.7562    0.807     H
H       0.7102   0.8657   0.3115     H
C      0.71915  0.70382  0.87308     C
H       0.7205   0.4371   0.9867     H
C      0.72907   0.5136  0.98006     C
H       0.7317   0.2562    0.307     H
H       0.7512   0.7369   0.3783     H
C      0.75468  0.73739  0.95925     C
F       0.7565   0.2444    0.101     F
H       0.7644   0.8136   0.9524     H
C       0.7664   0.5479   0.0651     C
C      0.77641  0.66078   0.0556     C
C      0.77727   0.0136  0.48006     C
H       0.7852   0.4945   0.1299     H
C      0.78705   0.1636   0.0271     C
C       0.8067  0.69955  0.15065     C
C      0.81896  0.09169  0.38499     C
F       0.8487   0.2138   0.0726     F
C      0.84953  0.42318  0.40556     C
H       0.8557   0.9371   0.4867     H
F       0.8649   0.7138   0.5726     F
H       0.8664   0.7631   0.1217     H
N      0.87586  0.97579  0.76189     N
H       0.8874   0.6343   0.1885     H
F       0.8926   0.2563   0.5427     F
F       0.8981   0.7444    0.601     F
O      0.91291  0.44028   0.3045     O
F       0.9144   0.6154   0.5102     F
F       0.9351   0.1099   0.9407     F
F         0.96   0.1154   0.0102     F
C      0.97775   0.3364   0.4729     C
F       0.9857   0.3901   0.5593     F
C      0.98683  0.05531  0.30023     C
