data_I
_chemical_name_common  '/Users/gianmarcoterrones/Research/MOFs/MOF_structures/water_stability_work_extra_structs/cleaned_from_CCDC/YUQMOO'
_cell_length_a  7.25750
_cell_length_b  8.15410
_cell_length_c 16.19390
_cell_angle_alpha 103.27800
_cell_angle_beta  90.89600
_cell_angle_gamma 114.30200
_space_group_name_H-M_alt      'P 1'


loop_
_space_group_symop_operation_xyz
  'x, y, z' 

loop_
_atom_site_label
_atom_site_fract_x
_atom_site_fract_y
_atom_site_fract_z
_atom_site_type_symbol
C       0.0017   0.2251  0.97095     C
H       0.0126   0.3436   0.1777     H
C       0.0168   0.2385  0.42349     C
C        0.034   0.6815    0.881     C
C       0.0698     0.26  0.05685     C
N       0.0947   0.8495  0.63661     N
C       0.1142   0.1693  0.90657     C
H         0.12   0.1375    0.553     H
C       0.1601   0.3511  0.49889     C
C         0.17   0.7535  0.05275     C
H       0.1865   0.2436   0.0725     H
C       0.1936   0.2678  0.55998     C
C       0.2059   0.6589  0.90359     C
N       0.2081   0.1265  0.85777     N
H       0.2155    0.777   0.1114     H
H       0.2176     0.51   0.7834     H
H       0.2441   0.5975   0.4664     H
C       0.2673   0.5417  0.50853     C
C       0.2745   0.6971  0.98952     C
H       0.2846    0.219   0.3004     H
C       0.3157   0.5933  0.83457     C
Ag     0.31625  0.95217 0.753647    Ag
C       0.3353   0.3768  0.63077     C
H       0.3461   0.3964   0.2625     H
H        0.359   0.3209   0.6727     H
H       0.3818   0.5229   0.8551     H
H       0.3938   0.6845   0.0051     H
C       0.3995   0.3164   0.2824     C
C       0.4076   0.6487  0.57979     C
C       0.4432    0.567  0.64138     C
H       0.4805   0.7792    0.587     H
S      0.49269  0.20367  0.19267     S
S      0.50731  0.79633  0.80733     S
H       0.5195   0.2208    0.413     H
C       0.5568    0.433  0.35862     C
C       0.5924   0.3513  0.42021     C
C       0.6005   0.6836   0.7176     C
H       0.6062   0.3155   0.9949     H
H       0.6182   0.4771   0.1449     H
H        0.641   0.6791   0.3273     H
H       0.6539   0.6036   0.7375     H
C       0.6647   0.6232  0.36923     C
Ag     0.68375  0.04783 0.246353    Ag
C       0.6843   0.4067  0.16543     C
H       0.7154    0.781   0.6996     H
C       0.7255   0.3029  0.01048     C
C       0.7327   0.4583  0.49147     C
H       0.7559   0.4025   0.5336     H
H       0.7824     0.49   0.2166     H
H       0.7845    0.223   0.8886     H
N       0.7919   0.8735  0.14223     N
C       0.7941   0.3411  0.09641     C
C       0.8064   0.7322  0.44002     C
H       0.8135   0.7564   0.9275     H
C         0.83   0.2465  0.94725     C
C       0.8399   0.6489  0.50111     C
H         0.88   0.8625    0.447     H
C       0.8858   0.8307  0.09343     C
N       0.9053   0.1505  0.36339     N
C       0.9302     0.74  0.94315     C
C        0.966   0.3185    0.119     C
C       0.9832   0.7615  0.57651     C
H       0.9874   0.6564   0.8223     H
C       0.9983   0.7749  0.02905     C
