data_I
_chemical_name_common  '/Users/gianmarcoterrones/Research/MOFs/MOF_structures/water_stability_work_extra_structs/cleaned_from_CCDC/ZEVWOO'
_cell_length_a  9.61100
_cell_length_b 14.83100
_cell_length_c 16.74000
_cell_angle_alpha 74.76000
_cell_angle_beta  75.04000
_cell_angle_gamma 81.55000
_space_group_name_H-M_alt      'P 1'


loop_
_space_group_symop_operation_xyz
  'x, y, z' 

loop_
_atom_site_label
_atom_site_fract_x
_atom_site_fract_y
_atom_site_fract_z
_atom_site_type_symbol
H       0.0343   0.2981   0.8032     H
H       0.0346   0.6597   0.9759     H
N       0.0388   0.9323   0.1544     N
H       0.0423   0.5475   0.2566     H
C       0.0478   0.6892   0.2209     C
H       0.0654    0.503   0.0473     H
C       0.0806   0.8573   0.1825     C
C       0.0924  0.59781  0.25735     C
H       0.1046   0.1413   0.1335     H
H       0.1105    0.206   0.5951     H
C       0.1108  0.63889  0.00476     C
C        0.125   0.7621   0.2201     C
H       0.1265   0.2576   0.1996     H
H       0.1267   0.5641   0.4605     H
C        0.129  0.54627  0.04747     C
H       0.1322   0.2599   0.4486     H
H       0.1528   0.5325      0.6     H
C       0.1532  0.19531   0.1014     C
Cu      0.1659  0.00303  0.86552    Cu
C       0.1663  0.26432  0.14042     C
N        0.172  0.87239  0.91998     N
C       0.1875  0.79679  0.95813     C
N       0.1903   0.0808  0.93859     N
C       0.1959   0.1893   0.5565     C
C       0.1959   0.5158   0.4791     C
C       0.1995   0.1355   0.9734     C
C        0.206  0.70139  0.00461     C
C       0.2088    0.221  0.46971     C
C       0.2101  0.57916  0.29516     C
C       0.2117   0.4975   0.5617     C
C       0.2122   0.2061   0.0148     C
C       0.2382  0.34434  0.09268     C
C       0.2388  0.51549  0.09072     C
C       0.2429   0.7444    0.257     C
C       0.2547  0.41567  0.13564     C
C       0.2583   0.4821   0.3354     C
N       0.2665   0.0581  0.74764     N
C       0.2796   0.2865   0.9656     C
C       0.2799  0.41436  0.29191     C
C         0.28  0.39033  0.21439     C
C        0.281   0.4636  0.42237     C
C       0.2836   0.6534   0.2954     C
C       0.2904   0.0929   0.6769     C
C       0.2905  0.35541   0.0051     C
H       0.2926   0.0485   0.3656     H
H       0.2952   0.7945   0.2558     H
C       0.3091   0.1327   0.5869     C
C       0.3094   0.3183  0.28543     C
C       0.3143   0.4277   0.5882     C
C       0.3165  0.67241  0.04801     C
H       0.3173   0.2937   0.9062     H
C       0.3269    0.407   0.6754     C
H       0.3273   0.9377   0.2844     H
C       0.3325  0.57927  0.09101     C
C       0.3332  0.19608   0.4132     C
H       0.3342    0.411   0.9722     H
N       0.3364   0.3891   0.7443     N
C       0.3368  0.06499  0.30659     C
C       0.3435  0.22685  0.32018     C
C       0.3577   0.9989   0.2586     C
H       0.3625   0.6413   0.3222     H
C       0.3798  0.15579  0.26946     C
H       0.3799   0.7158   0.0482     H
C       0.3854   0.3959   0.4495     C
C       0.4027   0.3769   0.5324     C
H       0.4075   0.5586   0.1208     H
C       0.4238   0.0229  0.17226     C
C       0.4364   0.1094   0.5311     C
C       0.4382   0.9546   0.1223     C
N       0.4453   0.8991   0.0845     N
H       0.4459   0.3618   0.4108     H
C       0.4475   0.1405   0.4443     C
C       0.4519  0.17675  0.18401     C
H        0.467   0.8759   0.5943     H
H        0.474     0.33   0.5506     H
C       0.4741   0.1112  0.13518     C
H       0.4768   0.8735   0.9231     H
H       0.4855   0.9273   0.4476     H
H       0.4864    0.237   0.1587     H
H       0.5136    0.763   0.8413     H
H       0.5145   0.0727   0.5524     H
H       0.5232   0.1265   0.0769     H
C       0.5259   0.8888  0.86482     C
H        0.526     0.67   0.4494     H
H        0.533   0.1241   0.4057     H
C       0.5481  0.82325  0.81599     C
C       0.5525   0.8595   0.5557     C
H       0.5541   0.6382   0.5892     H
N       0.5547   0.1009   0.9155     N
C       0.5618   0.0454   0.8777     C
C       0.5636   0.8906   0.4689     C
C       0.5762   0.9771  0.82774     C
H       0.5925   0.4414   0.8792     H
C       0.5973   0.6231   0.4676     C
C       0.6146   0.6041   0.5505     C
H       0.6201   0.2842   0.9518     H
C       0.6202  0.84421  0.73054     C
H       0.6375   0.3587   0.6778     H
C       0.6423   0.0011   0.7414     C
C       0.6565  0.77315  0.67982     C
C       0.6632  0.93501  0.69341     C
N       0.6636   0.6109   0.2557     N
H       0.6658    0.589   0.0278     H
C       0.6668  0.80392   0.5868     C
C       0.6675  0.42073  0.90899     C
H       0.6727   0.0623   0.7156     H
C       0.6731    0.593   0.3246     C
H       0.6827   0.7063   0.0938     H
C       0.6835  0.32759  0.95199     C
C       0.6857   0.5723   0.4118     C
C       0.6906   0.6817  0.71457     C
C       0.6909   0.8673   0.4131     C
H       0.7048   0.2055   0.7442     H
H       0.7074   0.9515   0.6344     H
C       0.7095  0.64459   0.9949     C
C       0.7096   0.9071   0.3231     C
C       0.7164   0.3466   0.7046     C
C        0.719   0.5364  0.57763     C
C         0.72  0.60967  0.78561     C
C       0.7201  0.58564  0.70809     C
C       0.7204   0.7135   0.0344     C
N       0.7335   0.9419  0.25236     N
C       0.7417   0.5179   0.6646     C
C       0.7453  0.58433  0.86436     C
C       0.7571   0.2556    0.743     C
C       0.7612  0.48451  0.90928     C
C       0.7618  0.65566  0.90732     C
C       0.7878   0.7939   0.9852     C
C       0.7883   0.5025   0.4383     C
C       0.7899  0.42084  0.70484     C
C       0.7912    0.779  0.53029     C
C        0.794  0.29861  0.99539     C
C       0.8005   0.8645   0.0266     C
C       0.8041   0.4842   0.5209     C
C       0.8041   0.8107   0.4435     C
N       0.8097   0.9192  0.06141     N
C       0.8125  0.20321  0.04187     C
N        0.828  0.12761  0.08002     N
C       0.8337  0.73568  0.85958     C
Cu      0.8341  0.99697  0.13448    Cu
C       0.8468  0.80469   0.8986     C
H       0.8472   0.4675      0.4     H
H       0.8678   0.7401   0.5514     H
C        0.871  0.45373  0.95253     C
H       0.8733   0.4359   0.5395     H
H       0.8735   0.7424   0.8004     H
C        0.875   0.2379   0.7799     C
C       0.8892  0.36111  0.99524     C
H       0.8895    0.794   0.4049     H
H       0.8954   0.8587   0.8665     H
C       0.9076  0.40219  0.74265     C
C       0.9194   0.1427   0.8175     C
H       0.9346    0.497   0.9527     H
C       0.9522   0.3108   0.7791     C
H       0.9577   0.4525   0.7434     H
N       0.9612   0.0677   0.8456     N
H       0.9654   0.3403   0.0241     H
H       0.9657   0.7019   0.1968     H
