data_I
_chemical_name_common  '/Users/gianmarcoterrones/Downloads/ZIF-90'
_cell_length_a 17.27154
_cell_length_b 17.27154
_cell_length_c 17.27154
_cell_angle_alpha 90.00000
_cell_angle_beta  90.00000
_cell_angle_gamma 90.00000
_space_group_name_H-M_alt      'P 1'


loop_
_space_group_symop_operation_xyz
  'x, y, z' 

loop_
_atom_site_label
_atom_site_fract_x
_atom_site_fract_y
_atom_site_fract_z
_atom_site_type_symbol
C     -0.593717 0.810216 0.139717     C
C     -0.593717 0.860317 0.189816     C
N     -0.585713 0.684511 -0.03231     N
N     -0.53231 0.815511 0.085713     N
N     -0.53231 0.914313 0.184511     N
C     -0.51331  0.87477  0.12537     C
Zn        -0.5     0.75      0.0    Zn
Zn        -0.5      1.0     0.25    Zn
N     -0.46771 0.815511 -0.085713     N
H     -0.436348 0.645535 -0.0922022     H
C     -0.43261 0.897413 0.102613     C
N     -0.414313 0.684511  0.03231     N
H     -0.407798 0.854465 0.0636517     H
C     -0.397413 0.602613 -0.06741     C
O     -0.38719 0.948611 0.114413     O
O     -0.385613 0.551411 -0.11299     O
C     -0.37477  0.62537  0.01331     C
C     -0.360317 0.689816 0.093717     C
N     -0.315511 0.414313 -0.03231     N
N     -0.315511 0.585713  0.03231     N
C     -0.310216 0.639717 0.093717     C
Zn       -0.25     -0.5      1.0    Zn
Zn       -0.25      0.0      0.5    Zn
Zn       -0.25      0.5      0.0    Zn
C     -0.189816 -0.406317 0.860317     C
C     -0.189816 -0.139717 0.593717     C
C     -0.189816 0.406317 0.139717     C
N     -0.184511 -0.46771 0.914313     N
N     -0.184511 -0.085713  0.53231     N
N     -0.184511  0.46771 0.085713     N
H     -0.145535 -0.0636517 0.407798     H
H     -0.145535 0.592202 0.0636517     H
C     -0.139717 -0.406317 0.810216     C
C     -0.139717 -0.189816 0.593717     C
C     -0.139717 0.406317 0.189816     C
C     -0.12537 -0.48671  0.87477     C
C     -0.12537 -0.12537  0.51331     C
C     -0.12537  0.48671  0.12537     C
O     -0.114413 -0.61299 0.948611     O
O     -0.11299 -0.448611 0.614413     O
O     -0.11299 0.448611 0.385613     O
C     -0.102613 -0.56741 0.897413     C
C     -0.102613 -0.102613  0.43261     C
C     -0.102613  0.56741 0.102613     C
C     -0.093717 0.310216 0.639717     C
C     -0.093717 0.360317 0.689816     C
C     -0.093717 0.639717 0.310216     C
C     -0.093717 0.689816 0.360317     C
H     -0.0922022 -0.354465 0.563652     H
H     -0.0922022 0.354465 0.436348     H
N     -0.085713 -0.46771 0.815511     N
N     -0.085713 -0.184511  0.53231     N
N     -0.085713 0.184511  0.46771     N
N     -0.085713  0.46771 0.184511     N
C     -0.06741 -0.397413 0.602613     C
C     -0.06741 0.397413 0.397413     C
H     -0.0636517 -0.592202 0.854465     H
O     -0.051411 -0.114413  0.38719     O
O     -0.051411  0.61299 0.114413     O
N     -0.03231 -0.585713 0.684511     N
N     -0.03231 -0.315511 0.414313     N
N     -0.03231 0.315511 0.585713     N
N     -0.03231 0.585713 0.315511     N
C     -0.01331  0.37477  0.62537     C
C     -0.01331  0.62537  0.37477     C
Zn         0.0     -0.5     0.75    Zn
Zn         0.0    -0.25      0.5    Zn
Zn         0.0     0.25      0.5    Zn
Zn         0.0      0.5     0.25    Zn
Zn         0.0      0.5     0.75    Zn
Zn         0.0     0.75      0.5    Zn
C      0.01331 -0.37477  0.62537     C
C      0.01331  0.37477  0.37477     C
N      0.03231 -0.414313 0.684511     N
N      0.03231 -0.315511 0.585713     N
N      0.03231 0.315511 0.414313     N
N      0.03231 0.414313 0.315511     N
O     0.051411 -0.38719 0.885613     O
O     0.051411 -0.114413  0.61299     O
O     0.051411 0.114413  0.38719     O
H     0.0636517 0.407798 0.145535     H
C      0.06741 0.397413 0.602613     C
C      0.06741 0.602613 0.397413     C
N     0.085713 -0.53231 0.815511     N
N     0.085713 -0.184511  0.46771     N
N     0.085713 0.184511  0.53231     N
N     0.085713  0.53231 0.184511     N
H     0.0922022 0.354465 0.563652     H
H     0.0922022 0.645535 0.436348     H
C     0.093717 -0.360317 0.689816     C
C     0.093717 -0.310216 0.639717     C
C     0.093717 0.310216 0.360317     C
C     0.093717 0.360317 0.310216     C
C     0.102613 -0.43261 0.897413     C
C     0.102613 -0.102613  0.56741     C
C     0.102613 0.102613  0.43261     C
C     0.102613  0.43261 0.102613     C
O      0.11299 0.448611 0.614413     O
O      0.11299 0.551411 0.385613     O
O     0.114413  0.38719 0.051411     O
C      0.12537 -0.51331  0.87477     C
C      0.12537 -0.12537  0.48671     C
C      0.12537  0.12537  0.51331     C
C      0.12537  0.51331  0.12537     C
C     0.139717 -0.593717 0.810216     C
C     0.139717 -0.189816 0.406317     C
C     0.139717 0.189816 0.593717     C
C     0.139717 0.593717 0.189816     C
H     0.145535 -0.407798 0.936348     H
H     0.145535 -0.0636517 0.592202     H
H     0.145535 0.0636517 0.407798     H
N     0.184511 -0.53231 0.914313     N
N     0.184511 -0.085713  0.46771     N
N     0.184511 0.085713  0.53231     N
N     0.184511  0.53231 0.085713     N
C     0.189816 -0.593717 0.860317     C
C     0.189816 -0.139717 0.406317     C
C     0.189816 0.139717 0.593717     C
C     0.189816 0.593717 0.139717     C
Zn        0.25     -0.5      1.0    Zn
Zn        0.25      0.0      0.5    Zn
Zn        0.25      0.5      0.0    Zn
C     0.310216 -0.093717 0.639717     C
C     0.310216 0.093717 0.360317     C
C     0.310216 0.360317 0.093717     C
C     0.310216 0.639717 -0.093717     C
N     0.315511 -0.03231 0.585713     N
N     0.315511  0.03231 0.414313     N
N     0.315511 0.414313  0.03231     N
N     0.315511 0.585713 -0.03231     N
C     0.360317 -0.093717 0.689816     C
C     0.360317 0.093717 0.310216     C
C     0.360317 0.310216 0.093717     C
C     0.360317 0.689816 -0.093717     C
C      0.37477 -0.01331  0.62537     C
C      0.37477  0.01331  0.37477     C
C      0.37477  0.37477  0.01331     C
C      0.37477  0.62537 -0.01331     C
O     0.385613 -0.11299 0.448611     O
O     0.385613  0.11299 0.551411     O
O     0.385613 0.448611 -0.11299     O
O     0.385613 0.551411  0.11299     O
O      0.38719 -0.051411 -0.114413     O
O      0.38719 0.051411 0.114413     O
C     0.397413 -0.06741 0.397413     C
C     0.397413  0.06741 0.602613     C
C     0.397413 0.397413 -0.06741     C
C     0.397413 0.602613  0.06741     C
C     0.406317 0.139717 -0.189816     C
C     0.406317 0.189816 -0.139717     C
H     0.407798 -0.145535 -0.0636517     H
H     0.407798 0.145535 0.0636517     H
N     0.414313 -0.03231 -0.315511     N
N     0.414313  0.03231 0.315511     N
N     0.414313 0.315511  0.03231     N
C      0.43261 -0.102613 -0.102613     C
C      0.43261 0.102613 0.102613     C
H     0.436348 -0.0922022 0.354465     H
H     0.436348 0.0922022 0.645535     H
H     0.436348 0.354465 -0.0922022     H
H     0.436348 0.645535 0.0922022     H
N      0.46771 0.085713 -0.184511     N
N      0.46771 0.184511 -0.085713     N
C      0.48671  0.12537 -0.12537     C
Zn         0.5    -0.25      0.0    Zn
Zn         0.5      0.0    -0.25    Zn
Zn         0.5      0.0     0.25    Zn
Zn         0.5      0.0     0.75    Zn
Zn         0.5     0.25      0.0    Zn
Zn         0.5     0.75      0.0    Zn
C      0.51331 -0.12537 -0.12537     C
C      0.51331  0.12537  0.12537     C
N      0.53231 -0.085713 -0.184511     N
N      0.53231 0.085713 0.184511     N
N      0.53231 0.184511 0.085713     N
H     0.563652 -0.0922022 -0.354465     H
H     0.563652 0.0922022 0.354465     H
H     0.563652 0.354465 0.0922022     H
C      0.56741 0.102613 -0.102613     C
N     0.585713 -0.03231 0.315511     N
N     0.585713  0.03231 -0.315511     N
N     0.585713 0.315511 -0.03231     N
H     0.592202 0.145535 -0.0636517     H
C     0.593717 -0.189816 -0.139717     C
C     0.593717 -0.139717 -0.189816     C
C     0.593717 0.139717 0.189816     C
C     0.593717 0.189816 0.139717     C
C     0.602613 -0.06741 -0.397413     C
C     0.602613  0.06741 0.397413     C
C     0.602613 0.397413  0.06741     C
O      0.61299 0.051411 -0.114413     O
O     0.614413 -0.11299 -0.448611     O
O     0.614413  0.11299 0.448611     O
O     0.614413 0.448611  0.11299     O
C      0.62537 -0.01331  0.37477     C
C      0.62537  0.01331 -0.37477     C
C      0.62537  0.37477 -0.01331     C
C     0.639717 -0.093717 0.310216     C
C     0.639717 0.093717 -0.310216     C
C     0.639717 0.310216 -0.093717     C
N     0.684511 -0.03231 -0.585713     N
N     0.684511  0.03231 -0.414313     N
C     0.689816 -0.093717 0.360317     C
C     0.689816 0.093717 -0.360317     C
C     0.689816 0.360317 -0.093717     C
Zn        0.75      0.0     -0.5    Zn
Zn        0.75      0.0      0.5    Zn
Zn        0.75      0.5      0.0    Zn
C     0.810216 0.139717 -0.593717     C
N     0.815511 0.085713 -0.53231     N
C     0.860317 0.189816 -0.593717     C
C      0.87477  0.12537 -0.51331     C
O     0.885613 0.051411 -0.38719     O
C     0.897413 0.102613 -0.43261     C
H     0.936348 0.145535 -0.407798     H
Zn         1.0     0.25     -0.5    Zn
