data_I
_chemical_name_common  '/Users/gianmarcoterrones/Downloads/ZIF-8_no_solvent'
_cell_length_a 16.99101
_cell_length_b 16.99101
_cell_length_c 16.99101
_cell_angle_alpha 90.00000
_cell_angle_beta  90.00000
_cell_angle_gamma 90.00000
_space_group_name_H-M_alt      'P 1'


loop_
_space_group_symop_operation_xyz
  'x, y, z' 

loop_
_atom_site_label
_atom_site_fract_x
_atom_site_fract_y
_atom_site_fract_z
_atom_site_type_symbol
H     -0.628499 0.0969034 0.141337     H
H     -0.60502  0.13045 0.0450156     H
N     -0.5902688 0.0316811 0.3172211     N
N     -0.5902688 0.3172211 0.0316811     N
C     -0.58548  0.09392  0.09392     C
H     -0.579576 0.0332171 0.0742178     H
N     -0.5316789 -0.0902688 0.1827811     N
N     -0.5316789 0.1827811 -0.0902688     N
C     -0.50786 0.122951 0.122951     C
Zn        -0.5      0.0     0.25    Zn
Zn        -0.5     0.25      0.0    Zn
N     -0.4683189 0.0902712 0.1827811     N
N     -0.4683189 0.1827811 0.0902712     N
H     -0.466762 0.0795844 0.425877     H
H     -0.466762 0.425877 0.0795844     H
N     -0.4097288 -0.0316789 0.3172211     N
N     -0.4097288 0.3172211 -0.0316789     N
C     -0.40608  0.08552  0.40612     C
C     -0.40608  0.40612  0.08552     C
H     -0.40316 0.128552 0.358711     H
H     -0.40316 0.358711 0.128552     H
C     -0.3991384 0.1314917 0.1875018     C
C     -0.3991384 0.1875018 0.1314917     C
H     -0.379286 -0.147989 0.270426     H
H     -0.379286 0.270426 -0.147989     H
C     -0.377049  0.00794 0.377051     C
C     -0.377049 0.377051  0.00794     C
H     -0.369514 0.105065 0.454995     H
H     -0.369514 0.454995 0.105065     H
C     -0.3685083 -0.1008584 0.3125018     C
C     -0.3685083 0.3125018 -0.1008584     C
H     -0.352008 0.120714 0.229578     H
H     -0.352008 0.229578 0.120714     H
N     -0.3172189 -0.0316789 0.4097312     N
N     -0.3172189 0.0316811 0.5902712     N
N     -0.3172189 0.4097312 -0.0316789     N
N     -0.3172189 0.5902712 0.0316811     N
C     -0.3124982 -0.1008584 0.3685117     C
C     -0.3124982 0.3685117 -0.1008584     C
H     -0.270422 -0.147989  0.37929     H
H     -0.270422  0.37929 -0.147989     H
Zn       -0.25      0.0      0.5    Zn
Zn       -0.25      0.5      0.0    Zn
Zn       -0.25      0.5      1.0    Zn
Zn       -0.25      1.0      1.5    Zn
H     -0.229574 0.120714 0.352011     H
H     -0.229574 0.352011 0.120714     H
H     -0.229574 0.647993  0.87929     H
H     -0.229574  0.87929  1.64799     H
C     -0.1874982 0.1314917 0.3991416     C
C     -0.1874982 0.3991416 0.1314917     C
C     -0.1874982 0.6008616 0.8685117     C
C     -0.1874982 0.8685117 1.6008616     C
N     -0.1827789 -0.0902688 0.5316811     N
N     -0.1827789 0.0902712 0.4683211     N
N     -0.1827789 0.4683211 0.0902712     N
N     -0.1827789 0.5316811 -0.0902688     N
H     -0.147989 0.270426 0.620714     H
H     -0.147989  0.37929 0.729578     H
H     -0.147989 0.620714  1.27043     H
H     -0.147989 0.729578  1.37929     H
H     -0.141289 0.0968403 0.628552     H
H     -0.141289 0.628552 0.0968403     H
H     -0.141286 0.371487 0.903174     H
H     -0.141286 0.903174  1.37149     H
C     -0.1314883 0.1875018 0.3991416     C
C     -0.1314883 0.3991416 0.1875018     C
C     -0.1314883 0.6008616 0.8125018     C
C     -0.1314883 0.8125018 1.6008616     C
H     -0.128513 0.358714 0.403174     H
H     -0.128499 0.596903 0.641337     H
C     -0.122949 0.122951  0.50794     C
C     -0.122949  0.49214 0.877051     C
C     -0.122949  0.50794 0.122951     C
C     -0.122949 0.877051  1.49214     C
H     -0.12071 0.229578 0.352011     H
H     -0.12071 0.352011 0.229578     H
H     -0.12071 0.647993 0.770426     H
H     -0.12071 0.770426  1.64799     H
H     -0.105026 0.455018 0.369584     H
H     -0.10502  0.63045 0.545016     H
C     -0.1008584 0.3125018 0.6314917     C
C     -0.1008584 0.3685117 0.6875018     C
C     -0.1008584 0.6314917 1.3125018     C
C     -0.1008584 0.6875018 1.3685117     C
C     -0.09388  0.09392  0.58552     C
C     -0.09388  0.41452  0.90612     C
C     -0.09388  0.58552  0.09392     C
C     -0.09388  0.90612  1.41452     C
N     -0.0902688 0.1827811 0.4683211     N
N     -0.0902688 0.4683211 0.1827811     N
N     -0.0902688 0.5316811 0.8172211     N
N     -0.0902688 0.8172211 1.5316811     N
C     -0.08548  0.40612  0.40612     C
C     -0.08548  0.59392  0.59392     C
H     -0.0795761 0.533217 0.574218     H
H     -0.0795403  0.42584 0.466814     H
H     -0.0741596  0.42046 0.966814     H
H     -0.0741596 0.966814  1.42046     H
H     -0.0741229 0.033238 0.579584     H
H     -0.0741229 0.579584 0.033238     H
H     -0.0450048 0.130486 0.605065     H
H     -0.0450048 0.605065 0.130486     H
H     -0.0449824 0.394974 0.869584     H
H     -0.0449824 0.869584  1.39497     H
N     -0.0316789 0.3172211 0.5902712     N
N     -0.0316789 0.4097312 0.6827811     N
N     -0.0316789 0.5902712 1.3172211     N
N     -0.0316789 0.6827811 1.4097312     N
C     -0.00786 0.377051 0.377051     C
C     -0.00786 0.622951 0.622951     C
Zn         0.0     0.25      0.5    Zn
Zn         0.0      0.5     0.25    Zn
Zn         0.0      0.5     0.75    Zn
Zn         0.0      0.5     1.25    Zn
Zn         0.0     0.75      0.5    Zn
Zn         0.0     0.75      1.5    Zn
C      0.00794 0.377051 0.622951     C
C      0.00794 0.622951 1.377051     C
N     0.0316811 0.3172211 0.4097312     N
N     0.0316811 0.4097312 0.3172211     N
N     0.0316811 0.5902712 0.6827811     N
N     0.0316811 0.6827811 0.5902712     N
H     0.0332171 0.0742178 0.420424     H
H     0.0332171 0.420424  1.07422     H
H     0.033238 0.579584 0.925877     H
H     0.033238 0.925877  1.57958     H
H     0.0795844 0.425877 0.533238     H
H     0.0795844 0.533238  1.42588     H
C      0.08552  0.40612  0.59392     C
C      0.08552  0.59392  1.40612     C
N     0.0902712 0.1827811 0.5316811     N
N     0.0902712 0.4683211 0.8172211     N
N     0.0902712 0.5316811 1.1827811     N
N     0.0902712 0.8172211 1.4683211     N
C      0.09392  0.09392  0.41452     C
C      0.09392  0.41452  1.09392     C
C      0.09392  0.58552  0.90612     C
C      0.09392  0.90612  1.58552     C
H     0.0968403 0.628552 0.858711     H
H     0.0968403 0.858711  1.62855     H
H     0.0969034 0.141337 0.371501     H
H     0.0969034 0.371501  1.14134     H
C     0.1008616 0.3125018 0.3685117     C
C     0.1008616 0.3685117 0.3125018     C
C     0.1008616 0.6314917 0.6875018     C
C     0.1008616 0.6875018 0.6314917     C
H     0.105065 0.454995 0.630486     H
H     0.105065 0.630486    1.455     H
H     0.120714 0.229578 0.647992     H
H     0.120714 0.352011 0.770426     H
H     0.120714 0.647992  1.22958     H
H     0.120714 0.770426  1.35201     H
C     0.122951 0.122951  0.49214     C
C     0.122951  0.49214 1.122951     C
C     0.122951  0.50794 0.877051     C
C     0.122951 0.877051  1.50794     C
H     0.128552 0.358711  0.59684     H
H     0.128552  0.59684  1.35871     H
H      0.13045 0.0450156  0.39498     H
H      0.13045  0.39498  1.04502     H
H     0.130486 0.605065 0.954995     H
H     0.130486 0.954995  1.60506     H
C     0.1314917 0.1875018 0.6008616     C
C     0.1314917 0.3991416 0.8125018     C
C     0.1314917 0.6008616 1.1875018     C
C     0.1314917 0.8125018 1.3991416     C
H     0.147992 0.620714 0.729578     H
H     0.147992 0.729578 0.620714     H
H     0.147993 0.270426  0.37929     H
H     0.147993  0.37929 0.270426     H
N     0.1827811 -0.0902688 0.4683211     N
N     0.1827811 0.0902712 0.5316811     N
N     0.1827811 0.4683211 0.9097312     N
N     0.1827811 0.5316811 1.0902712     N
C     0.1875018 0.1314917 0.6008616     C
C     0.1875018 0.3991416 0.8685117     C
C     0.1875018 0.6008616 1.1314917     C
C     0.1875018 0.8685117 1.3991416     C
H     0.229578 0.120714 0.647992     H
H     0.229578 0.352011  0.87929     H
H     0.229578 0.647992  1.12071     H
H     0.229578  0.87929  1.35201     H
Zn        0.25      0.0      0.5    Zn
Zn        0.25      0.5      1.0    Zn
Zn        0.25      1.0      1.5    Zn
H     0.270426 -0.147989 0.620714     H
H     0.270426 0.147993  0.37929     H
H     0.270426  0.37929  1.14799     H
H     0.270426 0.620714 0.852011     H
C     0.3125018 -0.1008584 0.6314917     C
C     0.3125018 0.1008616 0.3685117     C
C     0.3125018 0.3685117 1.1008616     C
C     0.3125018 0.6314917 0.8991416     C
N     0.3172211 -0.0316789 0.5902712     N
N     0.3172211 0.0316811 0.4097312     N
N     0.3172211 0.4097312 1.0316811     N
N     0.3172211 0.5902712 0.9683211     N
H     0.352011 0.120714 0.770426     H
H     0.352011 0.229578  0.87929     H
H     0.352011 0.770426  1.12071     H
H     0.352011  0.87929  1.22958     H
H     0.358711 0.128552  0.59684     H
H     0.358711  0.59684  1.12855     H
H     0.358714 -0.128513 0.403174     H
H     0.358714 0.403174 0.871487     H
C     0.3685117 -0.1008584 0.6875018     C
C     0.3685117 0.1008616 0.3125018     C
C     0.3685117 0.3125018 1.1008616     C
C     0.3685117 0.6875018 0.8991416     C
H     0.371487 -0.141286 0.903174     H
C     0.377051 -0.00786 0.377051     C
C     0.377051  0.00794 0.622951     C
C     0.377051 0.377051  0.99214     C
C     0.377051 0.622951  1.00794     C
H      0.37929 -0.147989 0.729578     H
H      0.37929 0.147993 0.270426     H
H      0.37929 0.270426  1.14799     H
H      0.37929 0.729578 0.852011     H
H     0.394974 -0.0449824 0.869584     H
C     0.3991416 0.1314917 0.8125018     C
C     0.3991416 0.1875018 0.8685117     C
C     0.3991416 0.8125018 1.1314917     C
C     0.3991416 0.8685117 1.1875018     C
C      0.40612 -0.08548  0.40612     C
C      0.40612  0.08552  0.59392     C
C      0.40612  0.40612  0.91452     C
C      0.40612  0.59392  1.08552     C
N     0.4097312 -0.0316789 0.6827811     N
N     0.4097312 0.6827811 0.9683211     N
C      0.41452 -0.09388  0.90612     C
H      0.42046 -0.0741596 0.966814     H
H      0.42584 -0.0795403 0.466814     H
H      0.42584 0.466814  0.92046     H
H     0.425877 0.0795844 0.533238     H
H     0.425877 0.533238  1.07958     H
H     0.454995 0.105065 0.630486     H
H     0.454995 0.630486  1.10506     H
H     0.455018 -0.105026 0.369584     H
H     0.455018 0.369584 0.894974     H
N     0.4683211 0.0902712 0.8172211     N
N     0.4683211 0.8172211 1.0902712     N
C      0.49214 -0.122949 0.877051     C
Zn         0.5    -0.25      1.0    Zn
Zn         0.5      0.0     0.25    Zn
Zn         0.5      0.0     0.75    Zn
Zn         0.5     0.25      1.0    Zn
Zn         0.5     0.75      1.0    Zn
Zn         0.5      1.0     1.25    Zn
C      0.50794 0.122951 0.877051     C
C      0.50794 0.877051 1.122951     C
N     0.5316811 -0.1827789 0.9097312     N
N     0.5316811 -0.0902688 0.8172211     N
H     0.533217 -0.0795761 0.574218     H
H     0.533217 0.574218 0.920424     H
H     0.579584 0.033238 0.925877     H
H     0.579584 0.925877  1.03324     H
C      0.58552  0.09392  0.90612     C
C      0.58552  0.90612  1.09392     C
N     0.5902712 0.0316811 0.6827811     N
N     0.5902712 0.6827811 1.0316811     N
C      0.59392 -0.08548  0.59392     C
C      0.59392  0.59392  0.91452     C
H     0.596903 -0.128499 0.641337     H
H     0.596903 0.641337 0.871501     H
C     0.6008616 -0.1874982 0.8685117     C
C     0.6008616 -0.1314883 0.8125018     C
H     0.605065 0.130486 0.954995     H
H     0.605065 0.954995  1.13049     H
H     0.620714 0.147992 0.729578     H
H     0.620714 0.729578  1.14799     H
C     0.622951 -0.00786 0.622951     C
C     0.622951 0.622951  0.99214     C
H     0.628552 0.0968403 0.858711     H
H     0.628552 0.858711  1.09684     H
H      0.63045 -0.10502 0.545016     H
H      0.63045 0.545016  0.89498     H
C     0.6314917 0.1008616 0.6875018     C
C     0.6314917 0.6875018 1.1008616     C
H     0.647993 -0.229574  0.87929     H
H     0.647993 -0.12071 0.770426     H
C     0.6875018 0.1008616 0.6314917     C
C     0.6875018 0.6314917 1.1008616     C
H     0.729578 0.147992 0.620714     H
H     0.729578 0.620714  1.14799     H
Zn        0.75      0.0      0.5    Zn
Zn        0.75      0.5      1.0    Zn
