data_I
_chemical_name_common  '/Users/gianmarcoterrones/Downloads/Zn-DMOF-Br'
_cell_length_a 14.62730
_cell_length_b 16.17630
_cell_length_c  9.64120
_cell_angle_alpha 90.00000
_cell_angle_beta  90.00000
_cell_angle_gamma 90.00000
_space_group_name_H-M_alt      'P 1'


loop_
_space_group_symop_operation_xyz
  'x, y, z' 

loop_
_atom_site_label
_atom_site_fract_x
_atom_site_fract_y
_atom_site_fract_z
_atom_site_type_symbol
Zn       -0.25     0.25 0.346651    Zn
Zn       -0.25     0.25 0.653351    Zn
Zn       -0.25     1.25 0.346651    Zn
Zn       -0.25     1.25 0.653351    Zn
O     -0.15775  0.34114  0.61557     O
O     -0.15775  1.15894  0.38457     O
O     -0.15235  0.33614  0.38187     O
O     -0.15235  1.16394  0.61827     O
C     -0.12787  0.36335  0.49847     C
C     -0.12787  1.13675  0.50167     C
H     -0.103668 0.478347 0.695939     H
H     -0.103668  1.02165 0.304061     H
C     -0.06097  0.43185  0.49737     C
C     -0.06097  1.06825  0.50277     C
C     -0.05767  0.48707  0.60849     C
C     -0.05767  1.01307  0.39169     C
Br    -0.01914  0.87504  0.23455    Br
H     -0.00536904  1.09385 0.699173     H
C     -0.00377  0.44695  0.39079     C
C     -0.00377  1.05315  0.60939     C
C      0.00377  0.55315  0.60939     C
C      0.00377  0.94695  0.39079     C
H     0.00536904 0.593852 0.699173     H
Br     0.01914  0.37504  0.23455    Br
C      0.05767  0.51307  0.39169     C
C      0.05767  0.98707  0.60849     C
C      0.06097  0.56825  0.50277     C
C      0.06097  0.93185  0.49737     C
H     0.103668 0.521653 0.304061     H
H     0.103668 0.978347 0.695939     H
C      0.12787  0.63675  0.50167     C
C      0.12787  0.86335  0.49847     C
O      0.15235  0.66394  0.61827     O
O      0.15235  0.83614  0.38187     O
H       0.1542   0.8396   0.0024     H
O      0.15775  0.65894  0.38457     O
O      0.15775  0.84114  0.61557     O
H        0.185   0.6402  -0.1647     H
H        0.185   0.8598   0.1647     H
H       0.1884   0.6368  -0.0058     H
C     0.205014 0.671213  -0.0842     C
C     0.205014 0.828813   0.0842     C
H       0.2297   0.6195   0.0199     H
H       0.2297   0.8805  -0.0199     H
H       0.2311   0.6354   0.1761     H
H       0.2311   0.8646  -0.1761     H
C      0.23511 0.663611   0.0882     C
C      0.23511 0.836411  -0.0882     C
Zn        0.25     0.75 -0.346651    Zn
N         0.25     0.75 -0.13469     N
N         0.25     0.75  0.13469     N
Zn        0.25     0.75 0.346651    Zn
Zn        0.25     0.75 0.653351    Zn
O      0.34235  0.65894  0.61557     O
O      0.34235  0.84114  0.38457     O
C     0.345415 0.733413  -0.0853     C
C     0.345415 0.766613   0.0853     C
O      0.34775  0.66394  0.38187     O
O      0.34775  0.83614  0.61827     O
Br    0.369513  0.99669 0.228715    Br
C      0.37227  0.63675  0.49847     C
C      0.37227  0.86335  0.50167     C
H       0.3779   0.7303  -0.1726     H
H       0.3779   0.7697   0.1726     H
H       0.3928    0.727  -0.0157     H
H       0.3928    0.773   0.0157     H
H     0.396332 0.521653 0.695939     H
C      0.43917  0.56825  0.49737     C
C      0.43917  0.93185  0.50277     C
C      0.44247  0.51307  0.60849     C
C      0.44247  0.98707  0.39169     C
H     0.494631 0.593852 0.300827     H
H     0.494631 0.906148 0.699173     H
C      0.49637  0.55315  0.39079     C
C      0.49637  0.94695  0.60939     C
C      0.50377  0.44695  0.60939     C
C      0.50377  1.05315  0.39079     C
H     0.505369 0.406148 0.699173     H
H     0.505369  1.09385 0.300827     H
C      0.55767  0.48707  0.39169     C
C      0.55767  1.01307  0.60849     C
C      0.56097  0.43185  0.50277     C
C      0.56097  1.06825  0.49737     C
H     0.603668  1.02165 0.695939     H
C      0.62787  0.36335  0.50167     C
C      0.62787  1.13675  0.49847     C
Br    0.630513  0.49669 0.228715    Br
H       0.6351   0.1972   0.9912     H
H       0.6463   0.1549   0.8431     H
O      0.65235  0.16394  0.38187     O
O      0.65235  0.33614  0.61827     O
O      0.65775  0.15894  0.61557     O
O      0.65775  0.34114  0.38457     O
C     0.678113 0.183711   0.9172     C
H        0.685   0.1402   1.1647     H
C     0.705014 0.171213   1.0842     C
H       0.7297   0.3805   1.0199     H
H       0.7311   0.3646   1.1761     H
C      0.73511 0.336411   1.0882     C
N         0.75     0.25  0.13469     N
Zn        0.75     0.25 0.346651    Zn
Zn        0.75     0.25 0.653351    Zn
N         0.75     0.25  0.86549     N
Zn        0.75     0.25 1.346651    Zn
Zn        0.75     1.25 0.346651    Zn
Zn        0.75     1.25 0.653351    Zn
C      0.76491 0.336411   0.9122     C
H     0.767917 0.136722  1.06666     H
H       0.7689   0.3646   0.8239     H
H       0.7703   0.3805   0.9801     H
C     0.836513  0.20961   0.9202     C
C     0.845415 0.233413   1.0853     C
H       0.8458   0.1604   0.9976     H
H       0.8779   0.2303   1.1726     H
H       0.8801     0.19   0.8518     H
H       0.8928    0.227   1.0157     H
