data_I
_chemical_name_common  '/Users/gianmarcoterrones/Downloads/Zn-NDC'
_cell_length_a  7.75300
_cell_length_b 10.45800
_cell_length_c 11.23858
_cell_angle_alpha 62.27227
_cell_angle_beta  85.33359
_cell_angle_gamma 79.92990
_space_group_name_H-M_alt      'P 1'


loop_
_space_group_symop_operation_xyz
  'x, y, z' 

loop_
_atom_site_label
_atom_site_fract_x
_atom_site_fract_y
_atom_site_fract_z
_atom_site_type_symbol
H       0.0361   0.9032      0.0     H
O       0.0671   0.2586   0.1462     O
O       0.0671   0.4048   0.8538     O
H       0.1003   0.0282   0.3796     H
H       0.1003   0.4078   0.6204     H
Zn      0.1124  0.60011      0.0    Zn
C       0.1592   0.8843      0.0     C
C        0.193   0.2846   0.1908     C
C        0.193   0.4754   0.8092     C
H       0.1973   0.0715      0.0     H
C       0.2108   0.0374    0.401     C
C       0.2108   0.4384    0.599     C
H       0.2284   0.4273   0.4268     H
H       0.2284   0.8541   0.5732     H
O       0.2392   0.4084   0.1406     O
O       0.2392    0.549   0.8594     O
N        0.245    0.756      0.0     N
C       0.2553   0.9848      0.0     C
C        0.285   0.1624   0.3106     C
C        0.285    0.473   0.6894     C
C       0.2876   0.4463   0.4852     C
C       0.2876   0.9315   0.5148     C
H       0.3538   0.1904      0.0     H
C        0.427   0.7281      0.0     C
C       0.4373   0.9568      0.0     C
C       0.4524   0.1727   0.3372     C
C       0.4524   0.5099   0.6628     C
C       0.4607    0.484    0.453     C
C       0.4607    0.937    0.547     C
C       0.4769   0.1715      0.0     C
H       0.4851   0.6413      0.0     H
H       0.4934   0.4693   0.2778     H
H       0.4934   0.7471   0.7222     H
H       0.5066   0.2529   0.2778     H
H       0.5066   0.5307   0.7222     H
H       0.5149   0.3587      0.0     H
C       0.5231   0.8285      0.0     C
C       0.5393    0.063    0.453     C
C       0.5393    0.516    0.547     C
C       0.5476   0.4901   0.3372     C
C       0.5476   0.8273   0.6628     C
C       0.5627   0.0432      0.0     C
C        0.573   0.2719      0.0     C
H       0.6462   0.8096      0.0     H
C       0.7124   0.0685   0.4852     C
C       0.7124   0.5537   0.5148     C
C        0.715    0.527   0.3106     C
C        0.715   0.8376   0.6894     C
C       0.7447   0.0152      0.0     C
N        0.755    0.244      0.0     N
O       0.7608    0.451   0.1406     O
O       0.7608   0.5916   0.8594     O
H       0.7716   0.1459   0.4268     H
H       0.7716   0.5727   0.5732     H
C       0.7892   0.5616    0.401     C
C       0.7892   0.9626    0.599     C
H       0.8027   0.9285      0.0     H
C        0.807   0.5246   0.1908     C
C        0.807   0.7154   0.8092     C
C       0.8408   0.1157      0.0     C
Zn      0.8876  0.39989      0.0    Zn
H       0.8997   0.5922   0.3796     H
H       0.8997   0.9718   0.6204     H
O       0.9329   0.5952   0.1462     O
O       0.9329   0.7414   0.8538     O
H       0.9639   0.0968      0.0     H
