data_I
_chemical_name_common  '/Users/gianmarcoterrones/Downloads/Zn:Co-BTEC'
_cell_length_a 18.71074
_cell_length_b 18.71074
_cell_length_c 11.76032
_cell_angle_alpha 90.00000
_cell_angle_beta  90.00000
_cell_angle_gamma 90.00000
_space_group_name_H-M_alt      'P 1'


loop_
_space_group_symop_operation_xyz
  'x, y, z' 

loop_
_atom_site_label
_atom_site_fract_x
_atom_site_fract_y
_atom_site_fract_z
_atom_site_type_symbol
H       0.0087   0.7717   0.4102     H
H       0.0134   0.6502    0.997     H
C      0.01807  0.76217 0.488111     C
C      0.02455  0.26685 0.677113     C
N      0.02827  0.91377 0.787011     N
S     0.0306518  0.71412  0.15974     S
H       0.0343   0.1041   0.1958     H
H       0.0349   0.9456   0.6225     H
C      0.03767  0.25187  0.56101     C
H       0.0383   0.0619   0.4283     H
C      0.03857  0.10647 0.781013     C
C      0.04707  0.73197 0.712911     C
H       0.0477   0.8779   0.9434     H
C      0.05309  0.65368 0.051113     C
H       0.0544   0.0349   0.1225     H
O      0.05624  0.78744  0.12238     O
H       0.0567    0.721   0.7902     H
H       0.0616   0.1177   0.8506     H
H       0.0619   0.9617   0.9283     H
H       0.0622   0.6064   0.0842     H
O      0.06465  0.30047  0.86121     O
C      0.06507  0.28318 0.134915     C
C      0.06691  0.91478 0.892515     C
C      0.06817  0.92888 0.681117     C
C      0.07128  0.06817 0.181117     C
O      0.07464  0.11214  0.69259     O
H       0.0752   0.2509   0.0712     H
C      0.08017  0.27927 0.766713     C
H       0.0822   0.3312   0.1167     H
C      0.08538  0.06691 0.392515     C
N      0.08637  0.02827 0.287011     N
C      0.08877  0.76207  0.52851     C
H       0.0892   0.2657   0.2033     H
H       0.0917   0.8851   0.6549     H
H       0.0949   0.1176   0.3778     H
H        0.096   0.6704   0.0116     H
H       0.1041   0.9657   0.6958     H
C      0.10475  0.74585  0.64069     C
H       0.1064   0.5622   0.5842     H
C      0.10647  0.96157 0.281013     C
C      0.11067  0.24827  0.50751     C
O      0.11214  0.92544  0.19259     O
H       0.1149   0.0917   0.1549     H
H       0.1176   0.9051   0.8778     H
H       0.1177   0.9384   0.3506     H
O      0.12055  0.29255  0.42707     O
H       0.1221   0.0477   0.4434     H
O      0.12264  0.80535  0.34699     O
C      0.14487  0.78215  0.44239     C
O      0.14564  0.26265  0.74027     O
H       0.1502   0.5134    0.497     H
C      0.15368  0.55309 0.551113     C
Co    0.153898 0.821688  0.18212    Co
O      0.15464  0.19794  0.52877     O
H       0.1688   0.4178   0.6167     H
H       0.1704    0.596   0.5116     H
Co    0.178328 0.153898  0.68212    Co
C      0.17835  0.74095 0.689911     C
O      0.18714  0.71494  0.17329     O
O      0.19475  0.12264  0.84699     O
O      0.19525  0.79204  0.75968     O
O      0.19794  0.84544  0.02877     O
O      0.19967  0.43545  0.36121     O
O      0.20755  0.37955  0.92707     O
O      0.20804  0.19525  0.25968     O
O      0.20904  0.77745  0.46888     O
O      0.21264  0.05624  0.62238     O
S      0.21412 0.5306518  0.65974     S
Zn    0.214297 0.281627 0.3561417    Zn
O      0.21494  0.68714  0.67329     O
C      0.21698  0.43507 0.634915     C
C      0.21795  0.14487  0.94239     C
Zn    0.218387 0.285717 0.8561417    Zn
C      0.22087  0.41997 0.266713     C
H        0.221   0.5567   0.2902     H
O      0.22265  0.20904  0.96888     O
H       0.2283   0.0087   0.9102     H
C      0.23197  0.54707 0.212911     C
C      0.23325  0.47555 0.177113     C
H       0.2343   0.4108   0.7033     H
O      0.23745  0.35444  0.24027     O
C      0.23797  0.01807 0.988111     C
C      0.23807  0.08877  0.02851     C
C      0.24095  0.67835 0.189911     C
C      0.24585  0.60475  0.14069     C
C      0.24827  0.46247  0.06101     C
C      0.24827  0.88947  0.00751     C
H       0.2491   0.4248   0.5712     H
H       0.2509   0.9248   0.5712     H
C      0.25187  0.38947  0.00751     C
C      0.25187  0.96247  0.06101     C
C      0.25425  0.10475  0.14069     C
C      0.25915  0.17835 0.189911     C
C      0.26207  0.58877  0.02851     C
C      0.26217  0.51807 0.988111     C
O      0.26265  0.85444  0.24027     O
H       0.2657   0.9108   0.7033     H
C      0.26685  0.97555 0.177113     C
C      0.26817  0.04707 0.212911     C
H       0.2717   0.5087   0.9102     H
O      0.27745  0.70904  0.96888     O
H        0.279   0.0567   0.2902     H
C      0.27927  0.91997 0.266713     C
Zn    0.281627 0.785717 0.8561417    Zn
C      0.28215  0.64487  0.94239     C
C      0.28318  0.93507 0.634915     C
O      0.28514  0.18714  0.67329     O
Zn    0.285717 0.781627 0.3561417    Zn
S      0.28592 0.0306518  0.65974     S
O      0.28744  0.55624  0.62238     O
O      0.29104  0.27745  0.46888     O
O      0.29204  0.69525  0.25968     O
O      0.29255  0.87955  0.92707     O
O      0.30047  0.93545  0.36121     O
O      0.30214  0.34544  0.02877     O
O      0.30485  0.29204  0.75968     O
O      0.30535  0.62264  0.84699     O
O      0.31294  0.21494  0.17329     O
Co    0.321688 0.653898  0.68212    Co
C      0.32175  0.24095 0.689911     C
H       0.3296    0.096   0.5116     H
H       0.3312   0.9178   0.6167     H
O      0.34544  0.69794  0.52877     O
Co    0.346118 0.321688  0.18212    Co
C      0.34648  0.05309 0.551113     C
H       0.3498   0.0134    0.497     H
O      0.35444  0.76265  0.74027     O
C      0.35527  0.28215  0.44239     C
O      0.37744  0.30535  0.34699     O
H       0.3779   0.5477   0.4434     H
O      0.37955  0.79255  0.42707     O
H       0.3823   0.4384   0.3506     H
H       0.3824   0.4051   0.8778     H
H       0.3851   0.5917   0.1549     H
O      0.38794  0.42544  0.19259     O
C      0.38947  0.74827  0.50751     C
H       0.3936   0.0622   0.5842     H
C      0.39367  0.46157 0.281013     C
C      0.39535  0.24585  0.64069     C
H       0.3959   0.4657   0.6958     H
H        0.404   0.1704   0.0116     H
H       0.4051   0.6176   0.3778     H
H       0.4083   0.3851   0.6549     H
H       0.4108   0.7657   0.2033     H
C      0.41137  0.26207  0.52851     C
N      0.41377  0.52827 0.287011     N
C      0.41478  0.56691 0.392515     C
H       0.4178   0.8312   0.1167     H
C      0.41997  0.77927 0.766713     C
H       0.4248   0.7509   0.0712     H
O      0.42544  0.61214  0.69259     O
C      0.42888  0.56817 0.181117     C
C      0.43197  0.42888 0.681117     C
C      0.43311  0.41478 0.892515     C
C      0.43507  0.78318 0.134915     C
O      0.43545  0.80047  0.86121     O
H       0.4378   0.1064   0.0842     H
H       0.4381   0.4617   0.9283     H
H       0.4384   0.6177   0.8506     H
H       0.4433    0.221   0.7902     H
O      0.44384  0.28744  0.12238     O
H       0.4456   0.5349   0.1225     H
C      0.44709  0.15368 0.051113     C
H       0.4523   0.3779   0.9434     H
C      0.45307  0.23197 0.712911     C
C      0.46157  0.60647 0.781013     C
H       0.4617   0.5619   0.4283     H
C      0.46247  0.75187  0.56101     C
H       0.4651   0.4456   0.6225     H
H       0.4657   0.6041   0.1958     H
S     0.4693518  0.21412  0.15974     S
N      0.47187  0.41377 0.787011     N
C      0.47555  0.76685 0.677113     C
C      0.48207  0.26217 0.488111     C
H       0.4866   0.1502    0.997     H
H       0.4913   0.2717   0.4102     H
H       0.5087   0.7283   0.4102     H
H       0.5134   0.8498    0.997     H
C      0.51807  0.73797 0.488111     C
C      0.52455  0.23325 0.677113     C
N      0.52827  0.58637 0.787011     N
S     0.5306518  0.78592  0.15974     S
H       0.5343   0.3959   0.1958     H
H       0.5349   0.5544   0.6225     H
C      0.53767  0.24827  0.56101     C
H       0.5383   0.4381   0.4283     H
C      0.53857  0.39367 0.781013     C
C      0.54707  0.76817 0.712911     C
H       0.5477   0.6221   0.9434     H
C      0.55309  0.84648 0.051113     C
H       0.5544   0.4651   0.1225     H
O      0.55624  0.71264  0.12238     O
H       0.5567    0.779   0.7902     H
H       0.5616   0.3823   0.8506     H
H       0.5619   0.5383   0.9283     H
H       0.5622   0.8936   0.0842     H
O      0.56465  0.19967  0.86121     O
C      0.56507  0.21698 0.134915     C
C      0.56691  0.58538 0.892515     C
C      0.56817  0.57128 0.681117     C
C      0.57128  0.43197 0.181117     C
O      0.57464  0.38794  0.69259     O
H       0.5752   0.2491   0.0712     H
C      0.58017  0.22087 0.766713     C
H       0.5822   0.1688   0.1167     H
C      0.58538  0.43311 0.392515     C
N      0.58637  0.47187 0.287011     N
C      0.58877  0.73807  0.52851     C
H       0.5892   0.2343   0.2033     H
H       0.5917   0.6149   0.6549     H
H       0.5949   0.3824   0.3778     H
H        0.596   0.8296   0.0116     H
H       0.6041   0.5343   0.6958     H
C      0.60475  0.75425  0.64069     C
H       0.6064   0.9378   0.5842     H
C      0.60647  0.53857 0.281013     C
C      0.61067  0.25187  0.50751     C
O      0.61214  0.57464  0.19259     O
H       0.6149   0.4083   0.1549     H
H       0.6176   0.5949   0.8778     H
H       0.6177   0.5616   0.3506     H
O      0.62055  0.20755  0.42707     O
H       0.6221   0.4523   0.4434     H
O      0.62264  0.69475  0.34699     O
C      0.64487  0.71795  0.44239     C
O      0.64564  0.23745  0.74027     O
H       0.6502   0.9866    0.497     H
C      0.65368  0.94709 0.551113     C
Co    0.653898 0.678328  0.18212    Co
O      0.65464  0.30214  0.52877     O
H       0.6688   0.0822   0.6167     H
H       0.6704    0.904   0.5116     H
Co    0.678328 0.346118  0.68212    Co
C      0.67835  0.75915 0.689911     C
O      0.68714  0.78514  0.17329     O
O      0.69475  0.37744  0.84699     O
O      0.69525  0.70804  0.75968     O
O      0.69794  0.65464  0.02877     O
O      0.69967  0.06465  0.36121     O
O      0.70755  0.12055  0.92707     O
O      0.70804  0.30485  0.25968     O
O      0.70904  0.72265  0.46888     O
O      0.71264  0.44384  0.62238     O
S      0.71412 0.9693518  0.65974     S
Zn    0.714297 0.218387 0.3561417    Zn
O      0.71494  0.81294  0.67329     O
C      0.71698  0.06507 0.634915     C
C      0.71795  0.35527  0.94239     C
Zn    0.718387 0.214297 0.8561417    Zn
C      0.72087  0.08017 0.266713     C
H        0.721   0.9433   0.2902     H
O      0.72265  0.29104  0.96888     O
H       0.7283   0.4913   0.9102     H
C      0.73197  0.95307 0.212911     C
C      0.73325  0.02455 0.177113     C
H       0.7343   0.0892   0.7033     H
O      0.73745  0.14564  0.24027     O
C      0.73797  0.48207 0.988111     C
C      0.73807  0.41137  0.02851     C
C      0.74095  0.82175 0.189911     C
C      0.74585  0.89535  0.14069     C
C      0.74827  0.03767  0.06101     C
C      0.74827  0.61067  0.00751     C
H       0.7491   0.0752   0.5712     H
H       0.7509   0.5752   0.5712     H
C      0.75187  0.11067  0.00751     C
C      0.75187  0.53767  0.06101     C
C      0.75425  0.39535  0.14069     C
C      0.75915  0.32175 0.189911     C
C      0.76207  0.91137  0.02851     C
C      0.76217  0.98207 0.988111     C
O      0.76265  0.64564  0.24027     O
H       0.7657   0.5892   0.7033     H
C      0.76685  0.52455 0.177113     C
C      0.76817  0.45307 0.212911     C
H       0.7717   0.9913   0.9102     H
O      0.77745  0.79104  0.96888     O
H        0.779   0.4433   0.2902     H
C      0.77927  0.58017 0.266713     C
Zn    0.781627 0.714297 0.8561417    Zn
C      0.78215  0.85527  0.94239     C
C      0.78318  0.56507 0.634915     C
O      0.78514  0.31294  0.67329     O
Zn    0.785717 0.718387 0.3561417    Zn
S      0.78592 0.4693518  0.65974     S
O      0.78744  0.94384  0.62238     O
O      0.79104  0.22265  0.46888     O
O      0.79204  0.80485  0.25968     O
O      0.79255  0.62055  0.92707     O
O      0.80047  0.56465  0.36121     O
O      0.80214  0.15464  0.02877     O
O      0.80485  0.20804  0.75968     O
O      0.80535  0.87744  0.84699     O
O      0.81294  0.28514  0.17329     O
Co    0.821688 0.846118  0.68212    Co
C      0.82175  0.25915 0.689911     C
H       0.8296    0.404   0.5116     H
H       0.8312   0.5822   0.6167     H
O      0.84544  0.80214  0.52877     O
Co    0.846118 0.178328  0.18212    Co
C      0.84648  0.44709 0.551113     C
H       0.8498   0.4866    0.497     H
O      0.85444  0.73745  0.74027     O
C      0.85527  0.21795  0.44239     C
O      0.87744  0.19475  0.34699     O
H       0.8779   0.9523   0.4434     H
O      0.87955  0.70755  0.42707     O
H       0.8823   0.0616   0.3506     H
H       0.8824   0.0949   0.8778     H
H       0.8851   0.9083   0.1549     H
O      0.88794  0.07464  0.19259     O
C      0.88947  0.75187  0.50751     C
H       0.8936   0.4378   0.5842     H
C      0.89367  0.03857 0.281013     C
C      0.89535  0.25425  0.64069     C
H       0.8959   0.0343   0.6958     H
H        0.904   0.3296   0.0116     H
H       0.9051   0.8824   0.3778     H
H       0.9083   0.1149   0.6549     H
H       0.9108   0.7343   0.2033     H
C      0.91137  0.23807  0.52851     C
N      0.91377  0.97187 0.287011     N
C      0.91478  0.93311 0.392515     C
H       0.9178   0.6688   0.1167     H
C      0.91997  0.72087 0.766713     C
H       0.9248   0.7491   0.0712     H
O      0.92544  0.88794  0.69259     O
C      0.92888  0.93197 0.181117     C
C      0.93197  0.07128 0.681117     C
C      0.93311  0.08538 0.892515     C
C      0.93507  0.71698 0.134915     C
O      0.93545  0.69967  0.86121     O
H       0.9378   0.3936   0.0842     H
H       0.9381   0.0383   0.9283     H
H       0.9384   0.8823   0.8506     H
H       0.9433    0.279   0.7902     H
O      0.94384  0.21264  0.12238     O
H       0.9456   0.9651   0.1225     H
C      0.94709  0.34648 0.051113     C
H       0.9523   0.1221   0.9434     H
C      0.95307  0.26817 0.712911     C
C      0.96157  0.89367 0.781013     C
H       0.9617   0.9381   0.4283     H
C      0.96247  0.74827  0.56101     C
H       0.9651   0.0544   0.6225     H
H       0.9657   0.8959   0.1958     H
S     0.9693518  0.28592  0.15974     S
N      0.97187  0.08637 0.787011     N
C      0.97555  0.73325 0.677113     C
C      0.98207  0.23797 0.488111     C
H       0.9866   0.3498    0.997     H
H       0.9913   0.2283   0.4102     H
