data_I
_chemical_name_common  '/Users/gianmarcoterrones/Downloads/Zn2(2,6-NDC)2(2,2-dimethyl-BPY)'
_cell_length_a 18.19840
_cell_length_b 18.60740
_cell_length_c 13.92230
_cell_angle_alpha 90.00000
_cell_angle_beta  113.77630
_cell_angle_gamma 90.00000
_space_group_name_H-M_alt      'P 1'


loop_
_space_group_symop_operation_xyz
  'x, y, z' 

loop_
_atom_site_label
_atom_site_fract_x
_atom_site_fract_y
_atom_site_fract_z
_atom_site_type_symbol
C      0.00034  0.10154  0.95704     C
C      0.00034  0.89854  0.45704     C
C      0.00784  0.15484  0.70144     C
C      0.00784  0.84524  0.20144     C
C      0.01264  0.09684  0.86724     C
C      0.01264  0.90324  0.36724     C
H       0.0145   0.0615   0.0033     H
H       0.0145   0.9385   0.5033     H
Zn    0.027143 0.160363 0.366624    Zn
Zn    0.027143 0.839643 0.866624    Zn
N      0.03104  0.16012  0.51594     N
N      0.03104  0.83992  0.01594     N
H       0.0349   0.0545   0.8516     H
H       0.0349   0.9455   0.3516     H
C      0.04014  0.21484  0.67554     C
C      0.04014  0.78524  0.17554     C
O      0.05142 0.2434018  0.18114     O
O      0.05142 0.7566018  0.68114     O
H       0.0516   0.2983   0.4846     H
H       0.0516   0.7017   0.9846     H
C      0.05254  0.21644  0.58334     C
C      0.05254  0.78364  0.08334     C
H        0.054   0.2553   0.7208     H
H        0.054   0.7447   0.2208     H
O      0.07162  0.09282  0.19884     O
O      0.07162  0.90722  0.69884     O
C      0.08864  0.28074  0.55354     C
C      0.08864  0.71934  0.05354     C
O      0.09602 0.0736818  0.36814     O
O      0.09602 0.9263218  0.86814     O
H       0.0981   0.3186    0.606     H
H       0.0981   0.6814    0.106     H
C      0.10554  0.25574  0.27074     C
C      0.10554  0.74434  0.77074     C
C      0.10744  0.06194  0.28584     C
C      0.10744  0.93814  0.78584     C
O      0.11272  0.22382  0.35464     O
O      0.11272  0.77622  0.85464     O
H       0.1317    0.324   0.1225     H
H       0.1317    0.676   0.6225     H
H       0.1397    0.267   0.5505     H
H       0.1397    0.733   0.0505     H
H       0.1401    0.001   0.6385     H
H       0.1401    0.999   0.1385     H
C      0.16484  0.31314  0.27784     C
C      0.16484  0.68694  0.77784     C
C      0.16724  0.34194  0.18905     C
C      0.16724  0.65814  0.68905     C
C      0.16784  0.00474  0.29334     C
C      0.16784  0.99534  0.79334     C
C      0.17334  0.02134  0.70454     C
C      0.17334  0.97874  0.20454     C
H       0.1924   0.4059   0.0355     H
H       0.1924   0.5941   0.5355     H
H       0.1927   0.0919   0.5488     H
H       0.1927   0.9081   0.0488     H
H       0.2171   0.0029   0.9536     H
H       0.2171   0.9971   0.4536     H
H       0.2182   0.3189   0.4387     H
H       0.2182   0.6811   0.9387     H
C      0.21904  0.33914  0.37644     C
C      0.21904  0.66094  0.87644     C
C      0.21935  0.02184  0.89145     C
C      0.21935  0.97824  0.39145     C
C      0.22065  0.39674  0.19335     C
C      0.22065  0.60334  0.69335     C
C      0.22624  0.07674  0.70754     C
C      0.22624  0.92334  0.20754     C
C      0.22645  0.42445  0.10237     C
C      0.22645  0.57565  0.60237     C
C      0.22864  0.10824  0.61614     C
C      0.22864  0.89184  0.11614     C
C      0.27144  0.39184  0.38394     C
C      0.27144  0.60824  0.88394     C
C      0.27365  0.07565  0.89777     C
C      0.27365  0.92445  0.39777     C
C      0.27384  0.42334  0.29254     C
C      0.27384  0.57674  0.79254     C
C      0.27945  0.10334  0.80675     C
C      0.27945  0.89674  0.30675     C
C      0.28075  0.47824  0.10865     C
C      0.28075  0.52184  0.60865     C
C      0.28104  0.16094  0.62364     C
C      0.28104  0.83914  0.12364     C
H       0.2818   0.1811   0.5613     H
H       0.2818   0.8189   0.0613     H
H       0.2829   0.4971   0.0464     H
H       0.2829   0.5029   0.5464     H
H       0.3073   0.4081   0.4512     H
H       0.3073   0.5919   0.9512     H
H       0.3076   0.0941   0.9645     H
H       0.3076   0.9059   0.4645     H
C      0.32674  0.47874  0.29554     C
C      0.32674  0.52134  0.79554     C
C      0.33224  0.49534  0.70674     C
C      0.33224  0.50474  0.20674     C
C      0.33284  0.15814  0.81105     C
C      0.33284  0.84194  0.31105     C
C      0.33524  0.18694  0.72224     C
C      0.33524  0.81314  0.22224     C
H       0.3599    0.499   0.3615     H
H       0.3599    0.501   0.8615     H
H       0.3603    0.233   0.4495     H
H       0.3603    0.767   0.9495     H
H       0.3683    0.176   0.8775     H
H       0.3683    0.824   0.3775     H
O      0.38732  0.27622  0.64544     O
O      0.38732  0.72382  0.14544     O
C      0.39264  0.43814  0.71424     C
C      0.39264  0.56194  0.21424     C
C      0.39454  0.24434  0.72934     C
C      0.39454  0.75574  0.22934     C
H       0.4019   0.1814    0.394     H
H       0.4019   0.8186    0.894     H
O      0.40402 0.4263218  0.63194     O
O      0.40402 0.5736818  0.13194     O
C      0.41144  0.21934  0.44654     C
C      0.41144  0.78074  0.94654     C
O      0.42842  0.40722  0.80124     O
O      0.42842  0.59282  0.30124     O
H        0.446   0.2447   0.2792     H
H        0.446   0.7553   0.7792     H
C      0.44754  0.28364  0.41674     C
C      0.44754  0.71644  0.91674     C
H       0.4484   0.2017   0.5154     H
H       0.4484   0.7983   0.0154     H
O      0.44862 0.2566018  0.81894     O
O      0.44862 0.7434018  0.31894     O
C      0.45994  0.28524  0.32454     C
C      0.45994  0.71484  0.82454     C
H       0.4651   0.4455   0.1484     H
H       0.4651   0.5545   0.6484     H
N      0.46904  0.33992  0.48414     N
N      0.46904  0.66012  0.98414     N
Zn    0.472863 0.339643 0.633384    Zn
Zn    0.472863 0.660363 0.133384    Zn
H       0.4855   0.4385   0.9967     H
H       0.4855   0.5615   0.4967     H
C      0.48744  0.40324  0.13284     C
C      0.48744  0.59684  0.63284     C
C      0.49224  0.34524  0.29864     C
C      0.49224  0.65484  0.79864     C
C      0.49974  0.39854  0.04304     C
C      0.49974  0.60154  0.54304     C
C      0.50034  0.39854  0.45704     C
C      0.50034  0.60154  0.95704     C
C      0.50784  0.34524  0.20144     C
C      0.50784  0.65484  0.70144     C
C      0.51264  0.40324  0.36724     C
C      0.51264  0.59684  0.86724     C
H       0.5145   0.4385   0.5033     H
H       0.5145   0.5615   0.0033     H
Zn    0.527143 0.339643 0.866624    Zn
Zn    0.527143 0.660363 0.366624    Zn
N      0.53104  0.33992  0.01594     N
N      0.53104  0.66012  0.51594     N
H       0.5349   0.4455   0.3516     H
H       0.5349   0.5545   0.8516     H
C      0.54014  0.28524  0.17554     C
C      0.54014  0.71484  0.67554     C
O      0.55142 0.2566018  0.68114     O
O      0.55142 0.7434018  0.18114     O
H       0.5516   0.2017   0.9846     H
H       0.5516   0.7983   0.4846     H
C      0.55254  0.28364  0.08334     C
C      0.55254  0.71644  0.58334     C
H        0.554   0.2447   0.2208     H
H        0.554   0.7553   0.7208     H
O      0.57162  0.40722  0.69884     O
O      0.57162  0.59282  0.19884     O
C      0.58864  0.21934  0.05354     C
C      0.58864  0.78074  0.55354     C
O      0.59602 0.4263218  0.86814     O
O      0.59602 0.5736818  0.36814     O
H       0.5981   0.1814    0.106     H
H       0.5981   0.8186    0.606     H
C      0.60554  0.24434  0.77074     C
C      0.60554  0.75574  0.27074     C
C      0.60744  0.43814  0.78584     C
C      0.60744  0.56194  0.28584     C
O      0.61272  0.27622  0.85464     O
O      0.61272  0.72382  0.35464     O
H       0.6317    0.176   0.6225     H
H       0.6317    0.824   0.1225     H
H       0.6397    0.233   0.0505     H
H       0.6397    0.767   0.5505     H
H       0.6401    0.499   0.1385     H
H       0.6401    0.501   0.6385     H
C      0.66484  0.18694  0.77784     C
C      0.66484  0.81314  0.27784     C
C      0.66724  0.15814  0.68905     C
C      0.66724  0.84194  0.18905     C
C      0.66784  0.49534  0.79334     C
C      0.66784  0.50474  0.29334     C
C      0.67334  0.47874  0.20454     C
C      0.67334  0.52134  0.70454     C
H       0.6924   0.0941   0.5355     H
H       0.6924   0.9059   0.0355     H
H       0.6927   0.4081   0.0488     H
H       0.6927   0.5919   0.5488     H
H       0.7171   0.4971   0.4536     H
H       0.7171   0.5029   0.9536     H
H       0.7182   0.1811   0.9387     H
H       0.7182   0.8189   0.4387     H
C      0.71904  0.16094  0.87644     C
C      0.71904  0.83914  0.37644     C
C      0.71935  0.47824  0.39145     C
C      0.71935  0.52184  0.89145     C
C      0.72065  0.10334  0.69335     C
C      0.72065  0.89674  0.19335     C
C      0.72624  0.42334  0.20754     C
C      0.72624  0.57674  0.70754     C
C      0.72645  0.07565  0.60237     C
C      0.72645  0.92445  0.10237     C
C      0.72864  0.39184  0.11614     C
C      0.72864  0.60824  0.61614     C
C      0.77144  0.10824  0.88394     C
C      0.77144  0.89184  0.38394     C
C      0.77365  0.42445  0.39777     C
C      0.77365  0.57565  0.89777     C
C      0.77384  0.07674  0.79254     C
C      0.77384  0.92334  0.29254     C
C      0.77945  0.39674  0.30675     C
C      0.77945  0.60334  0.80675     C
C      0.78075  0.02184  0.60865     C
C      0.78075  0.97824  0.10865     C
C      0.78104  0.33914  0.12364     C
C      0.78104  0.66094  0.62364     C
H       0.7818   0.3189   0.0613     H
H       0.7818   0.6811   0.5613     H
H       0.7829   0.0029   0.5464     H
H       0.7829   0.9971   0.0464     H
H       0.8073   0.0919   0.9512     H
H       0.8073   0.9081   0.4512     H
H       0.8076   0.4059   0.4645     H
H       0.8076   0.5941   0.9645     H
C      0.82674  0.02134  0.79554     C
C      0.82674  0.97874  0.29554     C
C      0.83224  0.00474  0.20674     C
C      0.83224  0.99534  0.70674     C
C      0.83284  0.34194  0.31105     C
C      0.83284  0.65814  0.81105     C
C      0.83524  0.31314  0.22224     C
C      0.83524  0.68694  0.72224     C
H       0.8599    0.001   0.8615     H
H       0.8599    0.999   0.3615     H
H       0.8603    0.267   0.9495     H
H       0.8603    0.733   0.4495     H
H       0.8683    0.324   0.3775     H
H       0.8683    0.676   0.8775     H
O      0.88732  0.22382  0.14544     O
O      0.88732  0.77622  0.64544     O
C      0.89264  0.06194  0.21424     C
C      0.89264  0.93814  0.71424     C
C      0.89454  0.25574  0.22934     C
C      0.89454  0.74434  0.72934     C
H       0.9019   0.3186    0.894     H
H       0.9019   0.6814    0.394     H
O      0.90402 0.0736818  0.13194     O
O      0.90402 0.9263218  0.63194     O
C      0.91144  0.28074  0.94654     C
C      0.91144  0.71934  0.44654     C
O      0.92842  0.09282  0.30124     O
O      0.92842  0.90722  0.80124     O
H        0.946   0.2553   0.7792     H
H        0.946   0.7447   0.2792     H
C      0.94754  0.21644  0.91674     C
C      0.94754  0.78364  0.41674     C
H       0.9484   0.2983   0.0154     H
H       0.9484   0.7017   0.5154     H
O      0.94862 0.2434018  0.31894     O
O      0.94862 0.7566018  0.81894     O
C      0.95994  0.21484  0.82454     C
C      0.95994  0.78524  0.32454     C
H       0.9651   0.0545   0.6484     H
H       0.9651   0.9455   0.1484     H
N      0.96904  0.16012  0.98414     N
N      0.96904  0.83992  0.48414     N
Zn    0.972863 0.160363 0.133384    Zn
Zn    0.972863 0.839643 0.633384    Zn
H       0.9855   0.0615   0.4967     H
H       0.9855   0.9385   0.9967     H
C      0.98744  0.09684  0.63284     C
C      0.98744  0.90324  0.13284     C
C      0.99224  0.15484  0.79864     C
C      0.99224  0.84524  0.29864     C
C      0.99974  0.10154  0.54304     C
C      0.99974  0.89854  0.04304     C
