data_I
_chemical_name_common  '/Users/gianmarcoterrones/Downloads/Zn2L4'
_cell_length_a  7.02497
_cell_length_b  7.02497
_cell_length_c 19.93620
_cell_angle_alpha 90.00000
_cell_angle_beta  90.00000
_cell_angle_gamma 90.00000
_space_group_name_H-M_alt      'P 1'


loop_
_space_group_symop_operation_xyz
  'x, y, z' 

loop_
_atom_site_label
_atom_site_fract_x
_atom_site_fract_y
_atom_site_fract_z
_atom_site_type_symbol
C          0.0      0.0  0.03744     C
N          0.0      0.0  0.17524     N
Zn         0.0      0.0 0.275973    Zn
Zn         0.0      0.0 0.724033    Zn
N          0.0      0.0  0.82484     N
C          0.0      0.0  0.96264     C
C      0.10138  0.86229  0.07312     C
C      0.10227  0.87058  0.14262     C
C      0.12958  0.89787  0.85742     C
O      0.13467  0.16397 0.6603516     O
C      0.13789  0.89878  0.92692     C
O      0.16397  0.13467 0.3396516     O
H        0.167   0.7665   0.0507     H
O      0.19425  0.76417 0.2495516     O
C      0.21907  0.74477  0.18812     C
H       0.2335    0.833   0.9493     H
O      0.23597  0.80585 0.7504516     O
C      0.24477  0.28107  0.68812     C
C      0.25537  0.78107  0.81192     C
O      0.26417  0.30585 0.7495516     O
H       0.2665    0.333   0.5507     H
C      0.28107  0.24477  0.31192     C
O      0.30585  0.26417 0.2504516     O
H        0.333   0.2665   0.4493     H
O      0.33617  0.63467 0.1603516     O
C      0.36229  0.39878  0.57312     C
O      0.36547  0.66397 0.8396516     O
C      0.37058  0.39787  0.64262     C
C      0.39787  0.37058  0.35742     C
C      0.39878  0.36229  0.42692     C
Zn         0.5      0.5 0.224033    Zn
N          0.5      0.5  0.32484     N
C          0.5      0.5  0.46264     C
C          0.5      0.5  0.53744     C
N          0.5      0.5  0.67524     N
Zn         0.5      0.5 0.775973    Zn
C      0.60138  0.63789  0.42692     C
C      0.60227  0.62958  0.35742     C
C      0.62958  0.60227  0.64262     C
O      0.63467  0.33617 0.8396516     O
C      0.63789  0.60138  0.57312     C
O      0.66397  0.36547 0.1603516     O
H        0.667   0.7335   0.4493     H
O      0.69425  0.73597 0.2504516     O
C      0.71907  0.75537  0.31192     C
H       0.7335    0.667   0.5507     H
O      0.73597  0.69425 0.7495516     O
C      0.74477  0.21907  0.81192     C
C      0.75537  0.71907  0.68812     C
O      0.76417  0.19425 0.7504516     O
H       0.7665    0.167   0.9493     H
C      0.78107  0.25537  0.18812     C
O      0.80585  0.23597 0.2495516     O
H        0.833   0.2335   0.0507     H
O      0.83617  0.86547 0.3396516     O
C      0.86229  0.10138  0.92692     C
O      0.86547  0.83617 0.6603516     O
C      0.87058  0.10227  0.85742     C
C      0.89787  0.12958  0.14262     C
C      0.89878  0.13789  0.07312     C
