data_I
_chemical_name_common  '/Users/gianmarcoterrones/Downloads/Zn3(BPDC)3(2,2'-dimethyl-BPY)'
_cell_length_a 14.58620
_cell_length_b 18.06830
_cell_length_c 24.84630
_cell_angle_alpha 90.00000
_cell_angle_beta  90.00000
_cell_angle_gamma 90.00000
_space_group_name_H-M_alt      'P 1'


loop_
_space_group_symop_operation_xyz
  'x, y, z' 

loop_
_atom_site_label
_atom_site_fract_x
_atom_site_fract_y
_atom_site_fract_z
_atom_site_type_symbol
H      0.00371 0.868039 0.173566     H
Zn    0.003714 0.246823 0.355022    Zn
O      0.00564  0.69822 0.7176717     O
C      0.00574  0.21344  0.64694     C
H      0.00803 0.379473 0.851921     H
C      0.00934  0.70472  0.35374     C
C      0.01534  0.41234  0.60542     C
O      0.01684  0.18902 0.4253516     O
O      0.02044  0.07032 0.2872117     O
C      0.02074  0.90454  0.39614     C
O      0.02614  0.57492 0.5773416     O
N      0.02624  0.06082  0.64322     N
C      0.02845  0.33604  0.60494     C
O      0.03204  0.57802 0.7093216     O
N      0.03304  0.55312  0.35642     N
C      0.03355  0.82894  0.39494     C
Zn    0.034164 0.947273 0.643613    Zn
Zn    0.039514 0.439623 0.355933    Zn
O      0.04184  0.06822 0.4191716     O
C      0.04374  0.76354  0.13784     C
C      0.04385  0.63824  0.73142     C
H     0.045683  0.44522 0.573312     H
H     0.048909  0.93661 0.429292     H
C      0.05164  0.26624  0.86034     C
H     0.056514  0.73919 0.244718     H
H     0.059152 0.748755 0.805189     H
C      0.05955  0.66964  0.31394     C
C      0.06024  0.83464  0.15844     C
C      0.06055  0.17704  0.68474     C
C      0.06085  0.12944  0.43762     C
C      0.06644  0.34204  0.85404     C
C      0.06665  0.10074  0.68154     C
C      0.06685  0.12824  0.27714     C
H      0.06716  0.30932 0.572857     H
C      0.06795  0.59364  0.31734     C
H     0.070425 0.020753 0.199743     H
H     0.073782  0.80191 0.426153     H
H     0.074852  0.25025  0.75108     H
C      0.07535  0.63354  0.56984     C
O      0.08414  0.68402 0.6021617     O
O      0.08844  0.17522 0.3122017     O
C      0.10045  0.70044  0.81514     C
C      0.10095  0.63774  0.77994     C
H     0.105719 0.664056 0.105244     H
H       0.1058   0.5653 0.285638     H
H     0.106586  0.07174 0.711938     H
C      0.10698  0.70895  0.26844     C
C      0.10905  0.06994  0.18832     C
C      0.11035  0.13144  0.22124     C
O      0.11444  0.81112  0.66672     O
H      0.11525 0.161687 0.869881     H
H     0.116689 0.516828 0.504518     H
O      0.11764  0.30834 0.3795118     O
C      0.11795  0.71984  0.12034     C
C      0.11847  0.21624  0.72554     C
C      0.12445  0.13114  0.48502     C
C      0.12554  0.22084  0.86384     C
H     0.126722 0.014576 0.494981     H
H     0.128841 0.250256 0.487589     H
C      0.13415  0.63324  0.52114     C
H     0.141324  0.66853  0.24289     H
H     0.147475 0.528651 0.769408     H
C      0.14875  0.56834  0.49162     C
C      0.15027  0.57844  0.79414     C
C      0.15065  0.06764  0.51042     C
C      0.15135  0.86264  0.15934     C
C      0.15187  0.19904  0.50634     C
H     0.152683  0.74688 0.889979     H
C      0.15355  0.69964  0.86284     C
C      0.15364  0.36984  0.85044     C
H     0.154347  0.17564  0.75011     H
C      0.15677  0.19444  0.20604     C
H     0.157196  0.74745 0.284634     H
H     0.157245 0.750304 0.524009     H
C      0.15747  0.07184  0.14074     C
H     0.159807 0.241983  0.23284     H
H     0.159852 0.022121 0.115924     H
O      0.16394  0.92172  0.64242     O
H     0.164004 0.428866 0.844167     H
H     0.164592  0.91805 0.174605     H
H     0.168107  0.25122  0.70498     H
O      0.16964  0.41462  0.34892     O
C      0.17087  0.69914  0.50234     C
C      0.17634  0.85394  0.65114     C
C      0.18084  0.34834  0.36184     C
C      0.19887  0.19664  0.15694     C
C      0.20335  0.56904  0.44632     C
C      0.20337  0.13494  0.12314     C
C      0.20597  0.57944  0.84084     C
C      0.20605  0.74754  0.12224     C
C      0.20635  0.63834  0.87454     C
C      0.20734  0.06894  0.55572     C
C      0.20795  0.20154  0.55104     C
C      0.21494  0.24894  0.85974     C
H     0.216206 0.517494 0.424835     H
C      0.22414  0.81894  0.14054     C
C      0.22547  0.70084  0.45554     C
H     0.226427 0.711647 0.639437     H
C      0.22764  0.32374  0.85464     C
H      0.22844 0.017412 0.574809     H
H     0.229942 0.248257 0.143644     H
H     0.230119 0.254769 0.566823     H
C      0.23645  0.13634  0.57614     C
H     0.237268 0.212718 0.390918     H
C      0.24215  0.63434  0.42764     C
H     0.245761 0.252765 0.058867     H
H     0.249228 0.531891 0.849771     H
H     0.250772 0.031891 0.650229     H
H     0.254239 0.752765 0.441132     H
C      0.25795  0.13434  0.07244     C
H     0.262732 0.712718 0.109082     H
C      0.26365  0.63634  0.92394     C
H     0.269881 0.754769 0.933177     H
H     0.270058 0.748257 0.356356     H
H      0.27156 0.517412 0.925191     H
C      0.27244  0.82374  0.64544     C
H     0.273573 0.211647 0.860563     H
C      0.27467  0.20084  0.04454     C
C      0.27594  0.31894  0.35954     C
H     0.283794 0.017494 0.075165     H
C      0.28514  0.74894  0.64034     C
C      0.29215  0.70154  0.94904     C
C      0.29274  0.56894  0.94432     C
C      0.29375  0.13834  0.62554     C
C      0.29405  0.24754  0.37784     C
C      0.29417  0.07944  0.65924     C
C      0.29675  0.06904  0.05372     C
C      0.29677  0.63494  0.37694     C
C      0.30127  0.69664  0.34314     C
C      0.31924  0.84834  0.13824     C
C      0.32374  0.35394  0.84894     C
C      0.32927  0.19914  0.99774     C
O      0.33044  0.91462  0.15112     O
H     0.331893  0.75122  0.79502     H
H     0.335408  0.41805 0.325395     H
H     0.335996 0.928866 0.655833     H
O      0.33614  0.42172  0.85762     O
H     0.340148 0.522121 0.384076     H
H     0.340193 0.741983  0.26716     H
C      0.34267  0.57184  0.35934     C
H     0.342755 0.250304 0.975991     H
H     0.342804  0.24745 0.215366     H
C      0.34337  0.69444  0.29404     C
H     0.345653  0.67564  0.74989     H
C      0.34644  0.86984  0.64964     C
C      0.34655  0.19964  0.63724     C
H     0.347317  0.24688 0.610021     H
C      0.34827  0.69904  0.99374     C
C      0.34875  0.36264  0.34074     C
C      0.34945  0.56764  0.98962     C
C      0.34987  0.07844  0.70594     C
C      0.35135  0.06834  0.00842     C
H     0.352525 0.028651 0.730592     H
H     0.358676  0.16853  0.25711     H
C      0.36595  0.13324  0.97894     C
H     0.371159 0.750256 0.012411     H
H     0.373278 0.514576 0.005019     H
C      0.37454  0.72084  0.63624     C
C      0.37565  0.63114  0.01502     C
C      0.38167  0.71624  0.77454     C
C      0.38215  0.21984  0.37974     C
O      0.38244  0.80834 0.1204918     O
H     0.383311 0.016828 0.995482     H
H      0.38475 0.661687 0.630119     H
O      0.38564  0.31112  0.83332     O
C      0.38975  0.63144  0.27884     C
C      0.39105  0.56994  0.31172     C
C      0.39318  0.20895  0.23164     C
H     0.393414  0.57174 0.788062     H
H       0.3942   0.0653 0.214362     H
H     0.394281 0.164056 0.394756     H
C      0.39915  0.13774  0.72014     C
C      0.39965  0.20044  0.68494     C
O      0.41164  0.67522 0.1878017     O
O      0.41594  0.18402 0.8978417     O
C      0.42475  0.13354  0.93024     C
H     0.425148  0.75025  0.74892     H
H     0.426218  0.30191 0.073847     H
H     0.429575 0.520753 0.300257     H
C      0.43215  0.09364  0.18274     C
H      0.43284  0.80932 0.927143     H
C      0.43325  0.62824  0.22294     C
C      0.43345  0.60074  0.81854     C
C      0.43364  0.84204  0.64604     C
C      0.43925  0.62944  0.06242     C
C      0.43955  0.67704  0.81534     C
C      0.43984  0.33464  0.34164     C
C      0.44055  0.16964  0.18614     C
H     0.440848 0.248755 0.694811     H
H     0.443486  0.23919 0.255282     H
C      0.44844  0.76624  0.63974     C
H     0.451091  0.43661 0.070708     H
H     0.454317  0.94522 0.926688     H
C      0.45625  0.13824  0.76862     C
C      0.45634  0.26354  0.36224     C
O      0.45824  0.56822 0.0808316     O
Zn    0.460494 0.939623 0.144073    Zn
Zn    0.465844 0.447273 0.856393    Zn
C      0.46655  0.32894  0.10514     C
N      0.46704  0.05312  0.14362     N
O      0.46804  0.07802 0.7906816     O
C      0.47165  0.83604  0.89514     C
N      0.47384  0.56082  0.85682     N
O      0.47394  0.07492 0.9226616     O
C      0.47934  0.40454  0.10394     C
O      0.47964  0.57032 0.2127917     O
O      0.48324  0.68902 0.0746516     O
C      0.48474  0.91234  0.89462     C
C      0.49074  0.20472  0.14634     C
H      0.49197 0.879473 0.648079     H
C      0.49434  0.71344  0.85314     C
O      0.49444  0.19822 0.7823317     O
H      0.49629 0.368039 0.326434     H
Zn    0.496294 0.746823 0.144982    Zn
H      0.50371 0.631961 0.673566     H
Zn    0.503714 0.253183 0.855022    Zn
O      0.50564  0.80182 0.2176717     O
C      0.50574  0.28664  0.14694     C
H      0.50803 0.120527 0.351921     H
C      0.50934  0.79532  0.85374     C
C      0.51534  0.08774  0.10542     C
O      0.51684  0.31102 0.9253516     O
O      0.52044  0.42972 0.7872117     O
C      0.52074  0.59554  0.89614     C
O      0.52614  0.92512 0.0773416     O
N      0.52624  0.43922  0.14322     N
C      0.52845  0.16404  0.10494     C
O      0.53204  0.92202 0.2093216     O
N      0.53304  0.94692  0.85642     N
C      0.53355  0.67114  0.89494     C
Zn    0.534164 0.552733 0.143613    Zn
Zn    0.539514 0.060383 0.855933    Zn
O      0.54184  0.43182 0.9191716     O
C      0.54374  0.73654  0.63784     C
C      0.54385  0.86184  0.23142     C
H     0.545683  0.05478 0.073312     H
H     0.548909  0.56339 0.929292     H
C      0.55164  0.23384  0.36034     C
H     0.556514  0.76081 0.744718     H
H     0.559152 0.751245 0.305189     H
C      0.55955  0.83044  0.81394     C
C      0.56024  0.66544  0.65844     C
C      0.56055  0.32304  0.18474     C
C      0.56085  0.37064  0.93762     C
C      0.56644  0.15804  0.35404     C
C      0.56665  0.39934  0.18154     C
C      0.56685  0.37184  0.77714     C
H      0.56716  0.19068 0.072857     H
C      0.56795  0.90644  0.81734     C
H     0.570425 0.479247 0.699743     H
H     0.573782  0.69809 0.926153     H
H     0.574852  0.24975  0.25108     H
C      0.57535  0.86654  0.06984     C
O      0.58414  0.81602 0.1021617     O
O      0.58844  0.32482 0.8122017     O
C      0.60045  0.79964  0.31514     C
C      0.60095  0.86234  0.27994     C
H     0.605719 0.835944 0.605244     H
H       0.6058   0.9347 0.785638     H
H     0.606586  0.42826 0.211938     H
C      0.60698  0.79115  0.76844     C
C      0.60905  0.43014  0.68832     C
C      0.61035  0.36864  0.72124     C
O      0.61444  0.68892  0.16672     O
H      0.61525 0.338313 0.369881     H
H     0.616689 0.983172 0.004518     H
O      0.61764  0.19174 0.8795118     O
C      0.61795  0.78024  0.62034     C
C      0.61847  0.28384  0.22554     C
C      0.62445  0.36894  0.98502     C
C      0.62554  0.27924  0.36384     C
H     0.626722 0.485424 0.994981     H
H     0.628841 0.249744 0.987589     H
C      0.63415  0.86684  0.02114     C
H     0.641324  0.83147  0.74289     H
H     0.647475 0.971349 0.269408     H
C      0.64875  0.93174  0.99162     C
C      0.65027  0.92164  0.29414     C
C      0.65065  0.43244  0.01042     C
C      0.65135  0.63744  0.65934     C
C      0.65187  0.30104  0.00634     C
H     0.652683  0.75312 0.389979     H
C      0.65355  0.80044  0.36284     C
C      0.65364  0.13024  0.35044     C
H     0.654347  0.32436  0.25011     H
C      0.65677  0.30564  0.70604     C
H     0.657196  0.75255 0.784634     H
H     0.657245 0.749696 0.024009     H
C      0.65747  0.42824  0.64074     C
H     0.659807 0.258017  0.73284     H
H     0.659852 0.477879 0.615924     H
O      0.66394  0.57832  0.14242     O
H     0.664004 0.071134 0.344167     H
H     0.664592  0.58195 0.674605     H
H     0.668107  0.24878  0.20498     H
O      0.66964  0.08542  0.84892     O
C      0.67087  0.80094  0.00234     C
C      0.67634  0.64614  0.15114     C
C      0.68084  0.15174  0.86184     C
C      0.69887  0.30344  0.65694     C
C      0.70335  0.93104  0.94632     C
C      0.70337  0.36514  0.62314     C
C      0.70597  0.92064  0.34084     C
C      0.70605  0.75254  0.62224     C
C      0.70635  0.86174  0.37454     C
C      0.70734  0.43114  0.05572     C
C      0.70795  0.29854  0.05104     C
C      0.71494  0.25114  0.35974     C
H     0.716206 0.982506 0.924835     H
C      0.72414  0.68114  0.64054     C
C      0.72547  0.79924  0.95554     C
H     0.726427 0.788353 0.139437     H
C      0.72764  0.17634  0.35464     C
H      0.72844 0.482588 0.074809     H
H     0.729942 0.251743 0.643644     H
H     0.730119 0.245231 0.066823     H
C      0.73645  0.36374  0.07614     C
H     0.737268 0.287282 0.890918     H
C      0.74215  0.86574  0.92764     C
H     0.745761 0.247235 0.558868     H
H     0.749228 0.968109 0.349771     H
H     0.750772 0.468109 0.150229     H
H     0.754239 0.747235 0.941132     H
C      0.75795  0.36574  0.57244     C
H     0.762732 0.787282 0.609082     H
C      0.76365  0.86374  0.42394     C
H     0.769881 0.745231 0.433177     H
H     0.770058 0.751743 0.856356     H
H      0.77156 0.982588 0.425191     H
C      0.77244  0.67634  0.14544     C
H     0.773573 0.288353 0.360563     H
C      0.77467  0.29924  0.54454     C
C      0.77594  0.18114  0.85954     C
H     0.783794 0.482506 0.575165     H
C      0.78514  0.75114  0.14034     C
C      0.79215  0.79854  0.44904     C
C      0.79274  0.93114  0.44432     C
C      0.79375  0.36174  0.12554     C
C      0.79405  0.25254  0.87784     C
C      0.79417  0.42064  0.15924     C
C      0.79675  0.43104  0.55372     C
C      0.79677  0.86514  0.87694     C
C      0.80127  0.80344  0.84314     C
C      0.81924  0.65174  0.63824     C
C      0.82374  0.14614  0.34894     C
C      0.82927  0.30094  0.49774     C
O      0.83044  0.58542  0.65112     O
H     0.831893  0.74878  0.29502     H
H     0.835408  0.08195 0.825395     H
H     0.835996 0.571134 0.155833     H
O      0.83614  0.07832  0.35762     O
H     0.840148 0.977879 0.884076     H
H     0.840193 0.758017  0.76716     H
C      0.84267  0.92824  0.85934     C
H     0.842755 0.249696 0.475991     H
H     0.842804  0.25255 0.715366     H
C      0.84337  0.80564  0.79404     C
H     0.845653  0.82436  0.24989     H
C      0.84644  0.63024  0.14964     C
C      0.84655  0.30044  0.13724     C
H     0.847317  0.25312 0.110021     H
C      0.84827  0.80104  0.49374     C
C      0.84875  0.13744  0.84074     C
C      0.84945  0.93244  0.48962     C
C      0.84987  0.42164  0.20594     C
C      0.85135  0.43174  0.50842     C
H     0.852525 0.471349 0.230592     H
H     0.858676  0.33147  0.75711     H
C      0.86595  0.36684  0.47894     C
H     0.871159 0.749744 0.512411     H
H     0.873278 0.985424 0.505019     H
C      0.87454  0.77924  0.13624     C
C      0.87565  0.86894  0.51502     C
C      0.88167  0.78384  0.27454     C
C      0.88215  0.28024  0.87974     C
O      0.88244  0.69174 0.6204918     O
H     0.883311 0.483172 0.495482     H
H      0.88475 0.838313 0.130119     H
O      0.88564  0.18892  0.33332     O
C      0.88975  0.86864  0.77884     C
C      0.89105  0.93014  0.81172     C
C      0.89318  0.29115  0.73164     C
H     0.893414  0.92826 0.288062     H
H       0.8942   0.4347 0.714362     H
H     0.894281 0.335944 0.894756     H
C      0.89915  0.36234  0.22014     C
C      0.89965  0.29964  0.18494     C
O      0.91164  0.82482 0.6878017     O
O      0.91594  0.31602 0.3978417     O
C      0.92475  0.36654  0.43024     C
H     0.925148  0.74975  0.24892     H
H     0.926218  0.19809 0.573847     H
H     0.929575 0.979247 0.800257     H
C      0.93215  0.40644  0.68274     C
H      0.93284  0.69068 0.427143     H
C      0.93325  0.87184  0.72294     C
C      0.93345  0.89934  0.31854     C
C      0.93364  0.65804  0.14604     C
C      0.93925  0.87064  0.56242     C
C      0.93955  0.82304  0.31534     C
C      0.93984  0.16544  0.84164     C
C      0.94055  0.33044  0.68614     C
H     0.940848 0.251245 0.194811     H
H     0.943486  0.26081 0.755282     H
C      0.94844  0.73384  0.13974     C
H     0.951091  0.06339 0.570708     H
H     0.954317  0.55478 0.426688     H
C      0.95625  0.36184  0.26862     C
C      0.95634  0.23654  0.86224     C
O      0.95824  0.93182 0.5808316     O
Zn    0.960494 0.560383 0.644073    Zn
Zn    0.965844 0.052733 0.356393    Zn
C      0.96655  0.17114  0.60514     C
N      0.96704  0.44692  0.64362     N
O      0.96804  0.42202 0.2906816     O
C      0.97165  0.66404  0.39514     C
N      0.97384  0.93922  0.35682     N
O      0.97394  0.42512 0.4226616     O
C      0.97934  0.09554  0.60394     C
O      0.97964  0.92972 0.7127917     O
O      0.98324  0.81102 0.5746516     O
C      0.98474  0.58774  0.39462     C
C      0.99074  0.29532  0.64634     C
H      0.99197 0.620527 0.148079     H
C      0.99434  0.78664  0.35314     C
O      0.99444  0.30182 0.2823317     O
H      0.99629 0.131961 0.826434     H
Zn    0.996294 0.753183 0.644982    Zn
