data_I
_chemical_name_common  '/Users/gianmarcoterrones/Downloads/Zn(1,3-BDP)'
_cell_length_a 22.84715
_cell_length_b 22.84715
_cell_length_c 12.45816
_cell_angle_alpha 90.00000
_cell_angle_beta  90.00000
_cell_angle_gamma 90.00000
_space_group_name_H-M_alt      'P 1'


loop_
_space_group_symop_operation_xyz
  'x, y, z' 

loop_
_atom_site_label
_atom_site_fract_x
_atom_site_fract_y
_atom_site_fract_z
_atom_site_type_symbol
C          0.0 0.071911   0.3732     C
H          0.0 0.073404  0.28563     H
C          0.0  0.07897 0.604711     C
H          0.0 0.092935  0.68824     H
H          0.0 0.407065  0.68824     H
C          0.0  0.42117 0.604711     C
H          0.0 0.426596  0.28563     H
C          0.0 0.428111   0.3732     C
C          0.0 0.571911   0.6272     C
H          0.0 0.573404  0.71437     H
C          0.0  0.57897 0.395311     C
H          0.0 0.592935  0.31176     H
H          0.0 0.907065  0.31176     H
C          0.0  0.92117 0.395311     C
H          0.0 0.926596  0.71437     H
C          0.0 0.928111   0.6272     C
C      0.05258  0.07098 0.431113     C
C      0.05258  0.42918 0.431113     C
C      0.05258  0.57098 0.568913     C
C      0.05258  0.92918 0.568913     C
C      0.05308  0.06859 0.542815     C
C      0.05308  0.43159 0.542815     C
C      0.05308  0.56859 0.457215     C
C      0.05308  0.93159 0.457215     C
H     0.084307 0.072912  0.77932     H
H     0.084307 0.427088  0.77932     H
H     0.084307 0.572912  0.22068     H
H     0.084307 0.927088  0.22068     H
H     0.093913 0.072027  0.38787     H
H     0.093913 0.427973  0.38787     H
H     0.093913 0.572027  0.61213     H
H     0.093913 0.927973  0.61213     H
C      0.10827  0.07387 0.607711     C
C      0.10827  0.42627 0.607711     C
C      0.10827  0.57387 0.392311     C
C      0.10827  0.92627 0.392311     C
C      0.11827  0.06895  0.71831     C
C      0.11827  0.43115  0.71831     C
C      0.11827  0.56895  0.28171     C
C      0.11827  0.93115  0.28171     C
H     0.157065     0.25  0.06176     H
H     0.157065     0.75  0.93824     H
C      0.16327  0.06585  0.56581     C
C      0.16327  0.43425  0.56581     C
C      0.16327  0.56585  0.43421     C
C      0.16327  0.93425  0.43421     C
C      0.17117     0.25 0.145311     C
C      0.17117     0.75 0.854711     C
H     0.173364 0.066304   0.4804     H
H     0.173364 0.433696   0.4804     H
H     0.173364 0.566304   0.5196     H
H     0.173364 0.933696   0.5196     H
N      0.17455  0.05874  0.73937     N
N      0.17455  0.44134  0.73937     N
N      0.17455  0.55874  0.26077     N
N      0.17455  0.94134  0.26077     N
C      0.17627  0.14187 0.142311     C
C      0.17627  0.35827 0.142311     C
C      0.17627  0.64187 0.857711     C
C      0.17627  0.85827 0.857711     C
H     0.176596     0.25  0.46437     H
H     0.176596     0.75  0.53563     H
H     0.177088 0.165693  0.97068     H
H     0.177088 0.334307  0.97068     H
H     0.177088 0.665693  0.02932     H
H     0.177088 0.834307  0.02932     H
H     0.177973 0.156087  0.36213     H
H     0.177973 0.343913  0.36213     H
H     0.177973 0.656087  0.63787     H
H     0.177973 0.843913  0.63787     H
C     0.178111     0.25   0.3772     C
C     0.178111     0.75   0.6232     C
C      0.17918  0.19758 0.318913     C
C      0.17918  0.30258 0.318913     C
C      0.17918  0.69758 0.681113     C
C      0.17918  0.80258 0.681113     C
C      0.18115  0.13187  0.03171     C
C      0.18115  0.36827  0.03171     C
C      0.18115  0.63187  0.96831     C
C      0.18115  0.86827  0.96831     C
C      0.18159  0.19708 0.207215     C
C      0.18159  0.30308 0.207215     C
C      0.18159  0.69708 0.792815     C
C      0.18159  0.80308 0.792815     C
H     0.183696 0.076636   0.2696     H
H     0.183696 0.423364   0.2696     H
H     0.183696 0.576636   0.7304     H
H     0.183696 0.923364   0.7304     H
C      0.18425  0.08687  0.18421     C
C      0.18425  0.41327  0.18421     C
C      0.18425  0.58687  0.81581     C
C      0.18425  0.91327  0.81581     C
N      0.19134  0.07555  0.01077     N
N      0.19134  0.42455  0.01077     N
N      0.19134  0.57555  0.98937     N
N      0.19134  0.92455  0.98937     N
N      0.19274  0.04734  0.10649     N
N      0.19274  0.45274  0.10649     N
N      0.19274  0.54734  0.89369     N
N      0.19274  0.95274  0.89369     N
N      0.20274  0.05734  0.64369     N
N      0.20274  0.44274  0.64369     N
N      0.20274  0.55734  0.35649     N
N      0.20274  0.94274  0.35649     N
Zn    0.213416 0.036596    0.875    Zn
Zn    0.213416 0.463416    0.875    Zn
Zn    0.213416 0.536596    0.125    Zn
Zn    0.213416 0.963416    0.125    Zn
Zn    0.286596 0.036596    0.625    Zn
Zn    0.286596 0.463416    0.625    Zn
Zn    0.286596 0.536596    0.375    Zn
Zn    0.286596 0.963416    0.375    Zn
N      0.29734  0.05734  0.85649     N
N      0.29734  0.44274  0.85649     N
N      0.29734  0.55734  0.14369     N
N      0.29734  0.94274  0.14369     N
N      0.30734  0.04734  0.39369     N
N      0.30734  0.45274  0.39369     N
N      0.30734  0.54734  0.60649     N
N      0.30734  0.95274  0.60649     N
N      0.30874  0.07555  0.48937     N
N      0.30874  0.42455  0.48937     N
N      0.30874  0.57555  0.51077     N
N      0.30874  0.92455  0.51077     N
C      0.31585  0.08687  0.31581     C
C      0.31585  0.41327  0.31581     C
C      0.31585  0.58687  0.68421     C
C      0.31585  0.91327  0.68421     C
H     0.316304 0.076636   0.2304     H
H     0.316304 0.423364   0.2304     H
H     0.316304 0.576636   0.7696     H
H     0.316304 0.923364   0.7696     H
C      0.31859  0.19708 0.292815     C
C      0.31859  0.30308 0.292815     C
C      0.31859  0.69708 0.707215     C
C      0.31859  0.80308 0.707215     C
C      0.31895  0.13187  0.46831     C
C      0.31895  0.36827  0.46831     C
C      0.31895  0.63187  0.53171     C
C      0.31895  0.86827  0.53171     C
C      0.32098  0.19758 0.181113     C
C      0.32098  0.30258 0.181113     C
C      0.32098  0.69758 0.818913     C
C      0.32098  0.80258 0.818913     C
C     0.321911     0.25   0.1232     C
C     0.321911     0.75   0.8772     C
H     0.322027 0.156087  0.13787     H
H     0.322027 0.343913  0.13787     H
H     0.322027 0.656087  0.86213     H
H     0.322027 0.843913  0.86213     H
H     0.322912 0.165693  0.52932     H
H     0.322912 0.334307  0.52932     H
H     0.322912 0.665693  0.47068     H
H     0.322912 0.834307  0.47068     H
H     0.323404     0.25  0.03563     H
H     0.323404     0.75  0.96437     H
C      0.32387  0.14187 0.357711     C
C      0.32387  0.35827 0.357711     C
C      0.32387  0.64187 0.642311     C
C      0.32387  0.85827 0.642311     C
N      0.32555  0.05874  0.76077     N
N      0.32555  0.44134  0.76077     N
N      0.32555  0.55874  0.23937     N
N      0.32555  0.94134  0.23937     N
H     0.326636 0.066304   0.0196     H
H     0.326636 0.433696   0.0196     H
H     0.326636 0.566304   0.9804     H
H     0.326636 0.933696   0.9804     H
C      0.32897     0.25 0.354711     C
C      0.32897     0.75 0.645311     C
C      0.33687  0.06585  0.93421     C
C      0.33687  0.43425  0.93421     C
C      0.33687  0.56585  0.06581     C
C      0.33687  0.93425  0.06581     C
H     0.342935     0.25  0.43824     H
H     0.342935     0.75  0.56176     H
C      0.38187  0.06895  0.78171     C
C      0.38187  0.43115  0.78171     C
C      0.38187  0.56895  0.21831     C
C      0.38187  0.93115  0.21831     C
C      0.39187  0.07387 0.892311     C
C      0.39187  0.42627 0.892311     C
C      0.39187  0.57387 0.107711     C
C      0.39187  0.92627 0.107711     C
H     0.406087 0.072027  0.11213     H
H     0.406087 0.427973  0.11213     H
H     0.406087 0.572027  0.88787     H
H     0.406087 0.927973  0.88787     H
H     0.415693 0.072912  0.72068     H
H     0.415693 0.427088  0.72068     H
H     0.415693 0.572912  0.27932     H
H     0.415693 0.927088  0.27932     H
C      0.44708  0.06859 0.957215     C
C      0.44708  0.43159 0.957215     C
C      0.44708  0.56859 0.042815     C
C      0.44708  0.93159 0.042815     C
C      0.44758  0.07098 0.068913     C
C      0.44758  0.42918 0.068913     C
C      0.44758  0.57098 0.931113     C
C      0.44758  0.92918 0.931113     C
C          0.5 0.071911   0.1272     C
H          0.5 0.073404  0.21437     H
C          0.5  0.07897 0.895311     C
H          0.5 0.092935  0.81176     H
H          0.5 0.407065  0.81176     H
C          0.5  0.42117 0.895311     C
H          0.5 0.426596  0.21437     H
C          0.5 0.428111   0.1272     C
C          0.5 0.571911   0.8732     C
H          0.5 0.573404  0.78563     H
C          0.5  0.57897 0.104711     C
H          0.5 0.592935  0.18824     H
H          0.5 0.907065  0.18824     H
C          0.5  0.92117 0.104711     C
H          0.5 0.926596  0.78563     H
C          0.5 0.928111   0.8732     C
C      0.55258  0.07098 0.068913     C
C      0.55258  0.42918 0.068913     C
C      0.55258  0.57098 0.931113     C
C      0.55258  0.92918 0.931113     C
C      0.55308  0.06859 0.957215     C
C      0.55308  0.43159 0.957215     C
C      0.55308  0.56859 0.042815     C
C      0.55308  0.93159 0.042815     C
H     0.584307 0.072912  0.72068     H
H     0.584307 0.427088  0.72068     H
H     0.584307 0.572912  0.27932     H
H     0.584307 0.927088  0.27932     H
H     0.593913 0.072027  0.11213     H
H     0.593913 0.427973  0.11213     H
H     0.593913 0.572027  0.88787     H
H     0.593913 0.927973  0.88787     H
C      0.60827  0.07387 0.892311     C
C      0.60827  0.42627 0.892311     C
C      0.60827  0.57387 0.107711     C
C      0.60827  0.92627 0.107711     C
C      0.61827  0.06895  0.78171     C
C      0.61827  0.43115  0.78171     C
C      0.61827  0.56895  0.21831     C
C      0.61827  0.93115  0.21831     C
H     0.657065     0.25  0.43824     H
H     0.657065     0.75  0.56176     H
C      0.66327  0.06585  0.93421     C
C      0.66327  0.43425  0.93421     C
C      0.66327  0.56585  0.06581     C
C      0.66327  0.93425  0.06581     C
C      0.67117     0.25 0.354711     C
C      0.67117     0.75 0.645311     C
H     0.673364 0.066304   0.0196     H
H     0.673364 0.433696   0.0196     H
H     0.673364 0.566304   0.9804     H
H     0.673364 0.933696   0.9804     H
N      0.67455  0.05874  0.76077     N
N      0.67455  0.44134  0.76077     N
N      0.67455  0.55874  0.23937     N
N      0.67455  0.94134  0.23937     N
C      0.67627  0.14187 0.357711     C
C      0.67627  0.35827 0.357711     C
C      0.67627  0.64187 0.642311     C
C      0.67627  0.85827 0.642311     C
H     0.676596     0.25  0.03563     H
H     0.676596     0.75  0.96437     H
H     0.677088 0.165693  0.52932     H
H     0.677088 0.334307  0.52932     H
H     0.677088 0.665693  0.47068     H
H     0.677088 0.834307  0.47068     H
H     0.677973 0.156087  0.13787     H
H     0.677973 0.343913  0.13787     H
H     0.677973 0.656087  0.86213     H
H     0.677973 0.843913  0.86213     H
C     0.678111     0.25   0.1232     C
C     0.678111     0.75   0.8772     C
C      0.67918  0.19758 0.181113     C
C      0.67918  0.30258 0.181113     C
C      0.67918  0.69758 0.818913     C
C      0.67918  0.80258 0.818913     C
C      0.68115  0.13187  0.46831     C
C      0.68115  0.36827  0.46831     C
C      0.68115  0.63187  0.53171     C
C      0.68115  0.86827  0.53171     C
C      0.68159  0.19708 0.292815     C
C      0.68159  0.30308 0.292815     C
C      0.68159  0.69708 0.707215     C
C      0.68159  0.80308 0.707215     C
H     0.683696 0.076636   0.2304     H
H     0.683696 0.423364   0.2304     H
H     0.683696 0.576636   0.7696     H
H     0.683696 0.923364   0.7696     H
C      0.68425  0.08687  0.31581     C
C      0.68425  0.41327  0.31581     C
C      0.68425  0.58687  0.68421     C
C      0.68425  0.91327  0.68421     C
N      0.69134  0.07555  0.48937     N
N      0.69134  0.42455  0.48937     N
N      0.69134  0.57555  0.51077     N
N      0.69134  0.92455  0.51077     N
N      0.69274  0.04734  0.39369     N
N      0.69274  0.45274  0.39369     N
N      0.69274  0.54734  0.60649     N
N      0.69274  0.95274  0.60649     N
N      0.70274  0.05734  0.85649     N
N      0.70274  0.44274  0.85649     N
N      0.70274  0.55734  0.14369     N
N      0.70274  0.94274  0.14369     N
Zn    0.713416 0.036596    0.625    Zn
Zn    0.713416 0.463416    0.625    Zn
Zn    0.713416 0.536596    0.375    Zn
Zn    0.713416 0.963416    0.375    Zn
Zn    0.786596 0.036596    0.875    Zn
Zn    0.786596 0.463416    0.875    Zn
Zn    0.786596 0.536596    0.125    Zn
Zn    0.786596 0.963416    0.125    Zn
N      0.79734  0.05734  0.64369     N
N      0.79734  0.44274  0.64369     N
N      0.79734  0.55734  0.35649     N
N      0.79734  0.94274  0.35649     N
N      0.80734  0.04734  0.10649     N
N      0.80734  0.45274  0.10649     N
N      0.80734  0.54734  0.89369     N
N      0.80734  0.95274  0.89369     N
N      0.80874  0.07555  0.01077     N
N      0.80874  0.42455  0.01077     N
N      0.80874  0.57555  0.98937     N
N      0.80874  0.92455  0.98937     N
C      0.81585  0.08687  0.18421     C
C      0.81585  0.41327  0.18421     C
C      0.81585  0.58687  0.81581     C
C      0.81585  0.91327  0.81581     C
H     0.816304 0.076636   0.2696     H
H     0.816304 0.423364   0.2696     H
H     0.816304 0.576636   0.7304     H
H     0.816304 0.923364   0.7304     H
C      0.81859  0.19708 0.207215     C
C      0.81859  0.30308 0.207215     C
C      0.81859  0.69708 0.792815     C
C      0.81859  0.80308 0.792815     C
C      0.81895  0.13187  0.03171     C
C      0.81895  0.36827  0.03171     C
C      0.81895  0.63187  0.96831     C
C      0.81895  0.86827  0.96831     C
C      0.82098  0.19758 0.318913     C
C      0.82098  0.30258 0.318913     C
C      0.82098  0.69758 0.681113     C
C      0.82098  0.80258 0.681113     C
C     0.821911     0.25   0.3772     C
C     0.821911     0.75   0.6232     C
H     0.822027 0.156087  0.36213     H
H     0.822027 0.343913  0.36213     H
H     0.822027 0.656087  0.63787     H
H     0.822027 0.843913  0.63787     H
H     0.822912 0.165693  0.97068     H
H     0.822912 0.334307  0.97068     H
H     0.822912 0.665693  0.02932     H
H     0.822912 0.834307  0.02932     H
H     0.823404     0.25  0.46437     H
H     0.823404     0.75  0.53563     H
C      0.82387  0.14187 0.142311     C
C      0.82387  0.35827 0.142311     C
C      0.82387  0.64187 0.857711     C
C      0.82387  0.85827 0.857711     C
N      0.82555  0.05874  0.73937     N
N      0.82555  0.44134  0.73937     N
N      0.82555  0.55874  0.26077     N
N      0.82555  0.94134  0.26077     N
H     0.826636 0.066304   0.4804     H
H     0.826636 0.433696   0.4804     H
H     0.826636 0.566304   0.5196     H
H     0.826636 0.933696   0.5196     H
C      0.82897     0.25 0.145311     C
C      0.82897     0.75 0.854711     C
C      0.83687  0.06585  0.56581     C
C      0.83687  0.43425  0.56581     C
C      0.83687  0.56585  0.43421     C
C      0.83687  0.93425  0.43421     C
H     0.842935     0.25  0.06176     H
H     0.842935     0.75  0.93824     H
C      0.88187  0.06895  0.71831     C
C      0.88187  0.43115  0.71831     C
C      0.88187  0.56895  0.28171     C
C      0.88187  0.93115  0.28171     C
C      0.89187  0.07387 0.607711     C
C      0.89187  0.42627 0.607711     C
C      0.89187  0.57387 0.392311     C
C      0.89187  0.92627 0.392311     C
H     0.906087 0.072027  0.38787     H
H     0.906087 0.427973  0.38787     H
H     0.906087 0.572027  0.61213     H
H     0.906087 0.927973  0.61213     H
H     0.915693 0.072912  0.77932     H
H     0.915693 0.427088  0.77932     H
H     0.915693 0.572912  0.22068     H
H     0.915693 0.927088  0.22068     H
C      0.94708  0.06859 0.542815     C
C      0.94708  0.43159 0.542815     C
C      0.94708  0.56859 0.457215     C
C      0.94708  0.93159 0.457215     C
C      0.94758  0.07098 0.431113     C
C      0.94758  0.42918 0.431113     C
C      0.94758  0.57098 0.568913     C
C      0.94758  0.92918 0.568913     C
