data_I
_chemical_name_common  '/Users/gianmarcoterrones/Research/MOFs/MOF_structures/water_stability_work_extra_structs/cleaned_from_CCDC/ZOZHIH'
_cell_length_a 18.26818
_cell_length_b 18.26818
_cell_length_c 21.57491
_cell_angle_alpha 110.35966
_cell_angle_beta  110.35966
_cell_angle_gamma 100.26638
_space_group_name_H-M_alt      'P 1'


loop_
_space_group_symop_operation_xyz
  'x, y, z' 

loop_
_atom_site_label
_atom_site_fract_x
_atom_site_fract_y
_atom_site_fract_z
_atom_site_type_symbol
O      0.00418   0.7654  0.12318     O
H       0.0116   0.6972   0.8944     H
H       0.0128   0.7638   0.7702     H
C      0.01362  0.42012  0.24594     C
C      0.01832  0.28132  0.02044     C
H       0.0214   0.5708   0.2486     H
C      0.02498  0.71438  0.76636     C
O      0.02743  0.09077   0.7866     O
O      0.02944  0.17058  0.72982     O
N      0.03193  0.34953  0.24082     N
C      0.03328  0.30218  0.09306     C
H       0.0362   0.7334   0.0164     H
O      0.05924  0.70038  0.22982     O
C      0.06007  0.12827  0.75834     C
C      0.06013  0.57173  0.75386     C
C      0.07044  0.26284  0.92328     C
H       0.0708   0.5214   0.7486     H
C      0.07173  0.56013  0.25386     C
C      0.07988  0.48638  0.25406     C
H       0.0829   0.0467   0.1366     H
H       0.0839   0.1781   0.1334     H
C      0.08447  0.28207  0.00234     C
C      0.10035  0.71095   0.7683     C
Ce    0.102123 0.852123     0.25    Ce
C      0.10589  0.10249  0.18498     C
C      0.10727  0.17747  0.18274     C
N      0.10917  0.32147  0.14584     N
C      0.11855  0.63895   0.7615     C
O      0.12499  0.96007  0.20148     O
C      0.13007  0.69827  0.25834     C
N       0.1323  0.24794  0.24364     N
C      0.13249  0.10033  0.25242     C
O      0.13259  0.27759  0.91238     O
C      0.13287  0.01951  0.25738     C
H       0.1345   0.0165   0.7742     H
O      0.13479  0.77979  0.41238     O
C      0.13895  0.61855   0.2615     C
H       0.1397   0.7577   0.7742     H
O      0.14021  0.01545  0.31608     O
Co     0.14217  0.35783     0.25    Co
O      0.14222    0.881  0.37682     O
C      0.14295  0.12255   0.7615     C
N      0.15047  0.46807  0.25918     N
C      0.15665  0.24615     0.31     C
C      0.15869  0.17329  0.31598     C
C      0.16044  0.85284  0.42328     C
C      0.16297  0.30197  0.05654     C
C      0.16795  0.05735   0.7683     C
C      0.17388  0.32092   0.1278     C
H       0.1777   0.1717   0.3654     H
H       0.1778   0.2272   0.7486     H
N      0.17853  0.39083  0.35416     N
C      0.17908  0.32612   0.3722     C
C      0.19373  0.18213  0.75386     C
O      0.19583  0.75917   0.2866     O
H       0.1972   0.5116   0.3944     H
H       0.1974   0.2914    0.455     H
C      0.19782  0.46672  0.40694     C
C      0.19803  0.33703  0.44346     C
C      0.19827  0.63007  0.75834     C
O      0.19937  0.82413  0.18392     O
O      0.20038  0.55924  0.72982     O
H       0.2086   0.3026    0.045     H
C      0.21095  0.60035   0.2683     C
C      0.21438  0.52498  0.26636     C
H        0.217   0.0198   0.4836     H
C      0.21793  0.41553  0.49766     C
C      0.21868  0.48168  0.47956     C
C      0.22027  0.91787  0.50234     C
O      0.22241  0.36741  0.58762     O
H       0.2334   0.5362   0.5164     H
C      0.23716  0.42956  0.57672     C
C      0.23912  0.00212  0.52044     C
C      0.24138  0.05198  0.76636     C
H       0.2424   0.8364    0.545     H
N      0.25206   0.3677  0.25636     N
C      0.25385  0.34335     0.19     C
C      0.25457  0.89357  0.55654     C
H       0.2574   0.0064   0.7702     H
H       0.2577   0.6397   0.2742     H
O      0.25859  0.92351  0.29852     O
O      0.25917  0.69583   0.7866     O
C      0.26213  0.87549  0.24262     C
H       0.2638   0.5128   0.2702     H
O       0.2654  0.50418  0.62318     O
C      0.26768  0.17418  0.75406     C
H       0.2728   0.3222   0.7514     H
O      0.27979  0.63479  0.91238     O
C      0.29088  0.05978  0.59306     C
N      0.29111  0.10871  0.75918     N
H       0.3028   0.1172   0.6056     H
H       0.3063   0.8123   0.1346     H
C      0.30688  0.95392   0.6278     C
H       0.3123   0.8063   0.6346     H
C      0.31787  0.30627  0.74614     C
H       0.3219   0.4161   0.3666     H
C      0.32253  0.39273  0.31726     C
O      0.32413  0.69937  0.68392     O
N      0.32437  0.03667  0.64584     N
C      0.32582  0.23232  0.74594     C
C      0.32671  0.34131  0.18402     C
H       0.3283   0.3223   0.1346     H
O      0.32942  0.47056  0.77018     O
H       0.3364   0.7424    0.045     H
C      0.34271  0.85731  0.68402     C
C      0.34665  0.93615     0.69     C
C      0.34791  0.88007  0.24758     C
Ce    0.352123 0.602123     0.75    Ce
C      0.35284  0.66044  0.92328     C
C      0.35731  0.84271  0.18402     C
C      0.37173  0.43993  0.74166     C
C      0.37549  0.76213  0.74262     C
C      0.37745  0.35705   0.7385     C
C      0.38007  0.84791  0.74758     C
O        0.381  0.64222  0.87682     O
H       0.3828   0.1972   0.8944     H
N      0.38866   0.0043  0.75636     N
N      0.39129  0.20889  0.74082     N
Co     0.39217  0.10783     0.75    Co
C      0.39357  0.75457  0.05654     C
C      0.39751  0.39411  0.31502     C
C      0.39967  0.36751  0.24758     C
O      0.40923  0.47257   0.7134     O
H       0.4101   0.9463   0.3634     H
C      0.41751  0.92091  0.31502     C
C      0.41787  0.72027  0.00234     C
C      0.42091  0.91751  0.81502     C
O      0.42351  0.75859  0.79852     O
C      0.42453  0.99473  0.81726     C
C      0.43615  0.84665     0.19     C
C      0.44022  0.20912  0.90694     C
C      0.44265  0.33205   0.7317     C
H       0.4463   0.9101   0.8634     H
C      0.44802  0.25862  0.73364     C
H       0.4505   0.0447   0.8666     H
H       0.4533   0.4171   0.3634     H
C      0.45392  0.80688   0.1278     C
H       0.4553   0.0495   0.6334     H
O      0.46007  0.62499  0.70148     O
N      0.46333  0.17563  0.85416     N
H       0.4802    0.283   0.0164     H
C      0.48049  0.36713  0.24262     C
H       0.4835   0.3655   0.7258     H
O      0.48455  0.35979  0.18392     O
H       0.4936   0.2426   0.7298     H
C      0.49473  0.92453  0.31726     C
N       0.4957  0.11134  0.74364     N
C      0.49788  0.26088  0.97956     C
C      0.50212  0.73912  0.02044     C
N       0.5043  0.88866  0.25636     N
C      0.50527  0.07547  0.68274     C
H       0.5064   0.7574   0.2702     H
O      0.51545  0.64021  0.81608     O
H       0.5165   0.6345   0.2742     H
C      0.51951  0.63287  0.75738     C
H       0.5198    0.717   0.9836     H
N      0.53667  0.82437  0.14584     N
O      0.53993  0.37501  0.29852     O
H       0.5447   0.9505   0.3666     H
C      0.54608  0.19312   0.8722     C
H       0.5467   0.5829   0.6366     H
H       0.5495   0.9553   0.1334     H
C      0.55198  0.74138  0.26636     C
H       0.5537   0.0899   0.1366     H
C      0.55735  0.66795   0.2683     C
C      0.55978  0.79088  0.09306     C
C      0.56385  0.15335     0.81     C
C      0.57547  0.00527  0.18274     C
O      0.57649  0.24141  0.20148     O
C      0.57909  0.08249  0.18498     C
C      0.58213  0.27973  0.99766     C
C      0.58249  0.07909  0.68498     C
H       0.5899   0.0537   0.6366     H
O      0.59077  0.52743   0.2866     O
C      0.60033  0.63249  0.75242     C
C      0.60249  0.60589  0.68498     C
C      0.60643  0.24543  0.94346     C
Co     0.60783  0.89217     0.25    Co
N      0.60871  0.79111  0.25918     N
N      0.61134   0.9957  0.24364     N
H       0.6172   0.8028   0.1056     H
O        0.619  0.35778  0.12318     O
C      0.61993  0.15209  0.25242     C
C      0.62255  0.64295   0.2615     C
C      0.62451  0.23787  0.25738     C
C      0.62827  0.56007  0.25834     C
C      0.64269  0.15729  0.81598     C
C      0.64716  0.33956  0.07672     C
Ce    0.647877 0.397877     0.25    Ce
C      0.65209  0.11993  0.75242     C
C      0.65335  0.06385     0.31     C
C      0.65729  0.14269  0.31598     C
H       0.6636   0.2576    0.955     H
O      0.67058  0.52944  0.22982     O
H       0.6717   0.6777   0.8654     H
C      0.67329  0.65869  0.81598     C
C      0.67418  0.76768  0.25406     C
N      0.67563  0.96333  0.35416     N
O      0.67587  0.30063  0.31608     O
C      0.67747  0.60727  0.68274     C
H       0.6781   0.5839   0.6334     H
C      0.68213  0.69373  0.25386     C
H       0.6877   0.1937   0.3654     H
C      0.69312  0.04608   0.3722     C
H       0.6937   0.1877   0.8654     H
H       0.6972   0.8828   0.3944     H
N      0.70889  0.89129  0.24082     N
C      0.70912  0.94022  0.40694     C
O      0.72021  0.36521  0.08762     O
H       0.7272   0.6778   0.2486     H
C      0.73232  0.82582  0.24594     C
O       0.7346  0.49582  0.37682     O
H       0.7362   0.4872   0.7298     H
C      0.73787  0.12451  0.75738     C
O      0.74083  0.30417   0.2134     O
O      0.74141  0.07649  0.70148     O
H       0.7423   0.3603   0.7258     H
H       0.7426   0.9936   0.2298     H
C      0.74543  0.10643  0.44346     C
C      0.74615  0.65665     0.81     C
N      0.74794   0.6323  0.74364     N
H       0.7576   0.1636    0.455     H
C      0.75862  0.94802  0.23364     C
C      0.76088  0.99788  0.47956     C
C      0.76284  0.57044  0.42328     C
H       0.7666   0.4638   0.4836     H
O      0.77759  0.63259  0.41238     O
C      0.77973  0.08213  0.49766     C
C      0.78132  0.51832  0.52044     C
C      0.78207  0.58447  0.50234     C
H        0.783   0.9802   0.5164     H
C      0.78562  0.47502  0.73364     C
C      0.78905  0.39965   0.7317     C
H       0.7914   0.6974    0.955     H
O      0.79962  0.44076  0.27018     O
O      0.80063  0.17587  0.81608     O
C      0.80173  0.36993  0.24166     C
C      0.80197  0.66297  0.55654     C
C      0.80218  0.53328  0.59306     C
H       0.8026   0.7086    0.545     H
H       0.8028   0.4884   0.6056     H
O      0.80417  0.24083   0.7134     O
C      0.80627  0.81787  0.24614     C
C      0.82092  0.67388   0.6278     C
N      0.82147  0.60917  0.64584     N
H       0.8222   0.7728   0.2514     H
H       0.8223   0.8283   0.6346     H
C      0.82612  0.67908   0.8722     C
C      0.83205  0.94265   0.2317     C
C      0.83703  0.69803  0.94346     C
C      0.83956  0.14716  0.57672     C
C      0.84131  0.82671  0.68402     C
C      0.84335  0.75385     0.69     C
N      0.84953  0.53193  0.74082     N
C      0.85705  0.87745   0.2385     C
O      0.85778    0.119  0.62318     O
Co     0.85783  0.64217     0.75    Co
O      0.85979  0.98455  0.68392     O
H       0.8603   0.2423   0.2258     H
C      0.86105  0.38145   0.7385     C
O      0.86521  0.22021  0.58762     O
H       0.8655   0.9835   0.2258     H
C      0.86713  0.98049  0.74262     C
O      0.86741  0.72241  0.08762     O
C      0.86751  0.89967  0.74758     C
N       0.8677  0.75206  0.75636     N
C      0.86993  0.30173  0.74166     C
O      0.87501  0.03993  0.79852     O
C      0.88145  0.36105   0.2385     C
N      0.89083  0.67853  0.85416     N
C      0.89273  0.82253  0.81726     C
C      0.89411  0.89751  0.81502     C
Ce    0.897877 0.147877     0.75    Ce
C      0.89965  0.28905   0.2317     C
C      0.91553  0.71793  0.99766     C
H       0.9161   0.8219   0.8666     H
H       0.9171   0.9533   0.8634     H
C      0.92012  0.51362  0.74594     C
C      0.92827  0.43987  0.74614     C
H       0.9292   0.4786   0.2514     H
C      0.92956  0.73716  0.07672     C
C      0.93987  0.42827  0.24614     C
C      0.93993  0.87173  0.24166     C
O      0.94076  0.29962  0.77018     O
H       0.9638   0.2666   0.9836     H
C      0.96672  0.69782  0.90694     C
N      0.96807  0.65047  0.75918     N
O      0.97056  0.82942  0.27018     O
O      0.97257  0.90923   0.2134     O
C      0.97502  0.28562  0.23364     C
H       0.9786   0.4292   0.7514     H
C      0.98168  0.71868  0.97956     C
C      0.98638  0.57988  0.75406     C
H       0.9872   0.2362   0.2298     H
H       0.9884   0.3028   0.1056     H
O      0.99582   0.2346  0.87682     O
