data_I
_chemical_name_common  '/Users/gianmarcoterrones/Research/MOFs/MOF_structures/water_stability_work_extra_structs/cleaned_from_CoRE/ZULNAX_clean'
_cell_length_a 17.27244
_cell_length_b 17.27244
_cell_length_c 25.98735
_cell_angle_alpha 102.70171
_cell_angle_beta  102.70171
_cell_angle_gamma 109.77763
_space_group_name_H-M_alt      'P 1'


loop_
_space_group_symop_operation_xyz
  'x, y, z' 

loop_
_atom_site_label
_atom_site_fract_x
_atom_site_fract_y
_atom_site_fract_z
_atom_site_type_symbol
Zn     0.00075  0.88283  0.62056    Zn
Zn     0.00304  0.24652  0.00484    Zn
H       0.0082   0.9048   0.9374     H
N       0.0103   0.3035   0.4026     N
C       0.0104   0.1266    0.226     C
H       0.0146   0.1208   0.8862     H
N       0.0153   0.9197   0.6994     N
N       0.0159   0.1539   0.9522     N
C       0.0245   0.0653   0.2254     C
N       0.0281   0.9727   0.1058     N
H       0.0362   0.1542   0.2034     H
N       0.0384   0.1536   0.2818     N
C       0.0445   0.8779    0.929     C
C       0.0476   0.1218     0.92     C
N       0.0508   0.8094   0.9436     N
N       0.0533   0.2523   0.4068     N
C       0.0535   0.9179   0.0776     C
N       0.0543   0.0931    0.282     N
H       0.0548    0.435   0.4312     H
N       0.0569   0.0653   0.9066     N
H       0.0584   0.0664    0.202     H
N       0.0613   0.9473   0.7916     N
H        0.065   0.4452   0.0688     H
C       0.0674   0.3862    0.428     C
H       0.0681   0.6389   0.9486     H
N      0.07652  0.70312  0.02644     N
C       0.0776    0.966   0.7466     C
N       0.0871   0.0973   0.4332     N
C      0.09135  0.65155   0.9869     C
H        0.099   0.7732    0.744     H
N       0.0997   0.0787   0.9268     N
N          0.1   0.9008   0.9004     N
C        0.107   0.1512   0.0096     C
N       0.1077   0.9009   0.5974     N
N       0.1093   0.1337   0.4882     N
H       0.1102    0.928   0.0784     H
C       0.1103   0.7899    0.924     C
N       0.1137   0.3541    0.052     N
C       0.1138   0.4326    0.072     C
Zn     0.11981  0.73773  0.62056    Zn
N       0.1211   0.6455   0.5118     N
C      0.12142  0.70462  0.07584     C
H       0.1218   0.1738    0.048     H
H       0.1229   0.7355   0.1104     H
H       0.1232    0.733   0.7468     H
H       0.1236   0.0038   0.5688     H
H       0.1236   0.0138   0.7468     H
H       0.1251   0.0125   0.3896     H
Zn     0.12638  0.00688  0.87156    Zn
H       0.1273   0.7453    0.928     H
C      0.12878  0.04558  0.42416     C
N       0.1364   0.0968   0.9822     N
C       0.1373   0.3035    0.435     C
H       0.1389   0.5681   0.4486     H
C       0.1394   0.9582    0.572     C
N       0.1407   0.8463   0.8972     N
H        0.145   0.9708    0.744     H
N       0.1455   0.6211   0.0118     N
N       0.1459   0.3863    0.448     N
N       0.1465   0.8455   0.5932     N
C      0.15155  0.59135   0.4869     C
N       0.1539   0.6641   0.5668     N
C       0.1564   0.7892   0.7446     C
N       0.1641   0.6539   0.0668     N
C      0.16465  0.10445   0.5131     C
N      0.17668  0.05008  0.47356     N
H       0.1817   0.2849   0.4438     H
N       0.1841   0.7797   0.6994     N
H       0.1903   0.1195   0.5514     H
C       0.1965   0.3627    0.065     C
N       0.1965   0.4897   0.0974     N
N       0.1979   0.9383    0.552     N
C       0.2023   0.8685    0.565     C
N      0.20312  0.57652  0.52644     N
C      0.20462  0.62142  0.57584     C
H       0.2151   0.3183   0.0562     H
N       0.2275   0.8263   0.7912     N
H        0.233   0.6232   0.2468     H
H       0.2355   0.6229   0.6104     H
Zn     0.23773  0.61981  0.12056    Zn
H       0.2379   0.8411   0.5562     H
Zn     0.24518  0.86468  0.87156    Zn
H       0.2453   0.6273    0.428     H
N       0.2477   0.4467   0.0932     N
Zn     0.25348  0.49696  0.49516    Zn
N       0.2565   0.0509   0.8972     N
N       0.2566   0.8718   0.7182     N
Zn     0.25832   0.0018  0.50484    Zn
H       0.2654   0.8716   0.3862     H
N       0.2723   0.8111    0.718     N
H       0.2732    0.599    0.244     H
N       0.2797   0.6841   0.1994     N
C       0.2806    0.669   0.2466     C
C       0.2844   0.9006    0.774     C
C       0.2899   0.6103    0.424     C
C       0.2982   0.8724     0.42     C
N       0.2983   0.9363   0.4522     N
C       0.2991   0.8399   0.7746     C
N       0.3004   0.9996   0.9004     N
H       0.3007   0.1827    0.928     H
N       0.3094   0.5508   0.4436     N
N       0.3111   0.7723    0.218     N
C       0.3137   0.1341    0.924     C
H       0.3158   0.3586    0.542     H
H       0.3166   0.7738    0.958     H
H       0.3173   0.1993    0.572     H
H       0.3262   0.3782    0.452     H
N       0.3263   0.7275   0.2912     N
N       0.3271   0.8481   0.9268     N
H       0.3328   0.9508   0.7966     H
N       0.3335   0.4479   0.5288     N
C       0.3399   0.7991   0.2746     C
C       0.3403   0.9759   0.4224     C
H       0.3411   0.7379   0.0562     H
N       0.3413   0.8497   0.4066     N
N       0.3455   0.6465   0.0932     N
H       0.3458   0.4638   0.2966     H
N       0.3458   0.8854   0.9822     N
N       0.3463   0.6407   0.3972     N
N       0.3464   0.4616   0.2182     N
N       0.3481   0.8271   0.4268     N
C       0.3488    0.393   0.4904     C
H       0.3496   0.0318   0.4216     H
N       0.3497   0.8413   0.9066     N
H       0.3564   0.8644    0.798     H
C       0.3565   0.4159   0.5576     C
C       0.3583   0.7989   0.9424     C
C       0.3584   0.9026   0.5096     C
H       0.3644   0.8564    0.298     H
Zn     0.36468  0.74518  0.37156    Zn
N       0.3658   0.1072   0.5564     N
C       0.3659   0.1863    0.576     C
N       0.3663   0.3907   0.0118     N
N       0.3669   0.9223   0.3942     N
C       0.3685   0.7023    0.065     C
H       0.3716   0.7654   0.8862     H
N       0.3718   0.7566   0.2182     N
C       0.3734   0.4896    0.274     C
H       0.3742   0.9262    0.548     H
C       0.3779   0.5445    0.429     C
H       0.3792   0.4854   0.6138     H
H       0.3805   0.3097   0.9486     H
Zn     0.38283  0.50075  0.12056    Zn
C     0.38448333 0.05111667    0.929     C
N       0.3854   0.8458   0.4822     N
N       0.3928   0.1342   0.9436     N
C      0.39555  0.33535   0.9869     C
C       0.4006   0.7844    0.274     C
N       0.4008      0.6   0.4004     N
N       0.4009   0.6077   0.0974     N
C       0.4026   0.8584   0.0096     C
N       0.4027   0.4129   0.0668     N
N       0.4032   0.3636   0.5178     N
N       0.4036    0.516   0.2012     N
H       0.4048   0.5082   0.4374     H
N       0.4069   0.4457    0.218     N
C       0.4179   0.5535   0.5776     C
N       0.4191   0.8047   0.9712     N
N       0.4213   0.4003   0.5732     N
N       0.4223   0.8669   0.8942     N
H       0.4262   0.8742    0.048     H
H        0.428   0.6102   0.5784     H
H       0.4292   0.0326   0.9374     H
H       0.4336   0.4416    0.298     H
N       0.4347   0.4431   0.5934     N
C       0.4347   0.4755   0.2746     C
N       0.4383   0.6979    0.052     N
N       0.4473   0.5613   0.2916     N
C     0.44888333 0.11551667    0.571     C
N       0.4491   0.2435   0.6028     N
N      0.44992  0.32332  0.02644     N
H       0.4508   0.8328   0.2966     H
C      0.45442  0.37122  0.07584     C
C       0.4554   0.5882   0.2446     C
C       0.4582   0.6394    0.072     C
H       0.4674   0.0708   0.5626     H
H       0.4682   0.1504   0.0784     H
H       0.4708    0.645    0.244     H
N       0.4727   0.5281   0.6058     N
C       0.4759   0.8403   0.9224     C
H       0.4862   0.3764   0.7532     H
H       0.4875   0.3749   0.1104     H
Zn     0.49312  0.37362  0.62844    Zn
H       0.4962   0.3764   0.9312     H
Zn      0.4982  0.24168  0.99516    Zn
N       0.4996   0.8004   0.4004     N
N       0.5004   0.1996   0.5996     N
Zn      0.5018  0.75832  0.00484    Zn
H       0.5038   0.6236   0.0688     H
Zn     0.50688  0.62638  0.37156    Zn
H       0.5125   0.6251   0.8896     H
H       0.5138   0.6236   0.2468     H
C       0.5241   0.1597   0.0776     C
N       0.5273   0.4719   0.3942     N
H       0.5292    0.355    0.756     H
H       0.5318   0.8496   0.9216     H
H       0.5326   0.9292   0.4374     H
C        0.534   0.4224   0.7534     C
N       0.5351   0.4363   0.7088     N
C       0.5418   0.3606    0.928     C
C      0.54558  0.62878  0.92416     C
H       0.5492   0.1672   0.7034     H
N      0.55008  0.67668  0.97356     N
N       0.5509   0.7565   0.3972     N
C     0.55111667 0.88448333    0.429     C
N       0.5617   0.3021    0.948     N
N       0.5637   0.2017   0.0478     N
C       0.5653   0.5245   0.7254     C
N       0.5653   0.5569   0.4066     N
H       0.5664   0.5584    0.702     H
H       0.5708   0.9674   0.0626     H
H        0.572   0.3898   0.4216     H
H       0.5738   0.1258    0.952     H
N       0.5777   0.1331   0.1058     N
N       0.5787   0.5997   0.4268     N
N       0.5803   0.4847   0.8006     N
C       0.5821   0.4465   0.4224     C
N       0.5931   0.5543    0.782     N
H       0.5952   0.4918   0.5626     H
N       0.5968   0.6364   0.4822     N
N       0.5973   0.5871   0.9332     N
C       0.5974   0.1416   0.9904     C
N       0.5991   0.3923   0.9026     N
N       0.5992      0.4   0.5996     N
C       0.5994   0.2156    0.726     C
C      0.60445  0.66465   0.0131     C
N       0.6072   0.8658   0.0564     N
N       0.6146   0.1542   0.5178     N
C     0.61551667 0.94888333    0.071     C
Zn     0.61717  0.49925  0.87944    Zn
H       0.6195   0.6903   0.0514     H
H       0.6208   0.5146   0.3862     H
C       0.6218   0.5476     0.42     C
C       0.6221   0.4555    0.571     C
H       0.6258   0.0738    0.452     H
C       0.6266   0.5104    0.726     C
C       0.6276   0.2018     0.08     C
N       0.6282   0.2434   0.7818     N
H       0.6284   0.2346   0.1138     H
C       0.6315   0.2977    0.935     C
N       0.6331   0.0777   0.6058     N
N       0.6337   0.6093   0.9882     N
C       0.6341   0.8137    0.424     C
N       0.6342   0.8928   0.4436     N
Zn     0.63532  0.25482  0.62844    Zn
H       0.6356   0.1436    0.702     H
C       0.6416   0.0974   0.4904     C
H       0.6436   0.1356    0.202     H
N       0.6503   0.1587   0.0934     N
H       0.6504   0.9682   0.5784     H
C       0.6512    0.607   0.5096     C
N       0.6519   0.1729   0.5732     N
N       0.6536   0.5384   0.7818     N
N       0.6537   0.3593   0.6028     N
N       0.6539   0.5159   0.4522     N
N       0.6542   0.1146   0.0178     N
H       0.6542   0.5362   0.7034     H
N       0.6545   0.3535   0.9068     N
N       0.6557   0.2697   0.7084     N
N       0.6587   0.1503   0.5934     N
H       0.6589   0.2621   0.9438     H
C       0.6597   0.0241   0.5776     C
C       0.6601   0.2009   0.7254     C
H       0.6672   0.0492   0.2034     H
N       0.6729   0.1519   0.0732     N
H       0.6738   0.6218    0.548     H
H       0.6827   0.8007    0.428     H
C       0.6863   0.8659    0.076     C
N       0.6889   0.2277    0.782     N
N       0.6906   0.4492   0.5564     N
N       0.6953   0.0809   0.5288     N
H       0.6993   0.8173    0.072     H
N       0.6996   0.0004   0.0996     N
C       0.7009   0.1601   0.2254     C
C       0.7011   0.1417   0.5576     C
N       0.7024   0.3148   0.7988     N
C       0.7101   0.3897    0.576     C
C       0.7108   0.3436   0.7554     C
C       0.7156   0.0994    0.226     C
H       0.7262   0.1834    0.542     H
H       0.7268    0.401    0.756     H
N       0.7277   0.1889    0.282     N
H       0.7346   0.1284   0.6138     H
Zn     0.74168   0.9982  0.49516    Zn
N       0.7434   0.1282   0.2818     N
N       0.7435   0.9491   0.1028     N
Zn     0.74652  0.50304  0.50484    Zn
N       0.7523   0.5533   0.9068     N
H       0.7547   0.3727    0.572     H
Zn     0.75482  0.13532  0.12844    Zn
H       0.7621   0.1589   0.4438     H
Zn     0.76227  0.38019  0.87944    Zn
H       0.7645   0.3771   0.3896     H
H        0.767   0.3768   0.7532     H
N       0.7697   0.1557   0.2084     N
H       0.7849   0.6817   0.9438     H
C      0.79538  0.37858  0.42416     C
N      0.79688  0.42348  0.47356     N
C       0.7977   0.1315    0.435     C
N       0.8021   0.0617    0.448     N
N       0.8035   0.5103   0.9026     N
C       0.8035   0.6373    0.935     C
H       0.8097   0.8805   0.4486     H
N       0.8148   0.2024   0.2988     N
H       0.8183   0.7151   0.5562     H
N      0.82332  0.94992  0.52644     N
C        0.831   0.2194   0.2534     C
C      0.83535  0.89555   0.4869     C
N       0.8359   0.3461   0.9332     N
N       0.8461   0.3359   0.4332     N
C      0.84845  0.40865   0.5131     C
N       0.8535   0.1545   0.4068     N
N       0.8541   0.6137    0.552     N
N       0.8545   0.3789   0.9882     N
H        0.855   0.0292    0.256     H
H       0.8586   0.8158    0.042     H
N       0.8593   0.1537   0.1028     N
C       0.8606   0.0418    0.428     C
H       0.8611   0.4319   0.5514     H
C       0.8627   0.6965    0.565     C
N       0.8636   0.9032   0.0178     N
C      0.87122  0.95442  0.57584     C
H       0.8727   0.2547    0.072     H
Zn     0.87362  0.99312  0.12844    Zn
H       0.8749   0.9875   0.6104     H
H       0.8764   0.9862   0.2532     H
H       0.8764   0.9962   0.4312     H
H       0.8768    0.267   0.2532     H
H       0.8771   0.2645   0.8896     H
H       0.8782   0.8262    0.952     H
C      0.87858  0.29538  0.92416     C
N       0.8789   0.3545   0.4882     N
Zn     0.88019  0.26227  0.37944    Zn
C       0.8862   0.5674    0.928     C
N       0.8863   0.6459    0.948     N
C       0.8897   0.2101    0.076     C
H       0.8898    0.072   0.9216     H
N       0.8907   0.8663   0.5118     N
N       0.8923   0.0991   0.4026     N
C        0.893   0.8488   0.9904     C
N          0.9   0.0992   0.0996     N
N       0.9003   0.9213   0.0732     N
H        0.901   0.2268    0.256     H
C      0.90865  0.34845   0.0131     C
C       0.9118   0.0446   0.2554     C
N       0.9129   0.9027   0.5668     N
C       0.9159   0.8565   0.0576     C
N      0.92348  0.29688  0.97356     N
H       0.9319   0.3611   0.0514     H
C       0.9326   0.6138    0.572     C
H        0.935   0.5548   0.9312     H
N       0.9363   0.0351   0.2088     N
H       0.9416   0.9336    0.798     H
N       0.9431   0.9347   0.0934     N
H       0.9452    0.565   0.5688     H
N       0.9457   0.9069    0.718     N
C       0.9465   0.0821   0.9224     C
N       0.9467   0.7477   0.5932     N
N       0.9479   0.8335   0.0288     N
N       0.9492   0.1906   0.0564     N
C       0.9555   0.1221    0.071     C
N       0.9616   0.8464   0.7182     N
H       0.9638   0.8458   0.7966     H
N       0.9719   0.0273   0.8942     N
C       0.9755   0.9347   0.7746     C
N        0.984   0.0964   0.2988     N
H       0.9854   0.8792   0.1138     H
C       0.9896   0.8734    0.774     C
N       0.9897   0.6965   0.5974     N
H       0.9918   0.0952   0.0626     H
Zn     0.99696  0.75348  0.99516    Zn
Zn     0.99925  0.11717  0.37944    Zn
