data_I
_chemical_name_common  '/Users/gianmarcoterrones/Research/MOFs/MOF_structures/water_stability_work_extra_structs/cleaned_from_CCDC/ZZZRNQ02'
_cell_length_a  6.61700
_cell_length_b 11.71500
_cell_length_c 17.60600
_cell_angle_alpha 90.00000
_cell_angle_beta  90.00000
_cell_angle_gamma 90.00000
_space_group_name_H-M_alt      'P 1'


loop_
_space_group_symop_operation_xyz
  'x, y, z' 

loop_
_atom_site_label
_atom_site_fract_x
_atom_site_fract_y
_atom_site_fract_z
_atom_site_type_symbol
Mg      0.0013  0.50054  0.99969    Mg
H       0.0073   0.3511   0.6392     H
C       0.0096   0.7497  0.14174     C
C       0.0162   0.9268   0.3389     C
C       0.0217    0.571   0.3372     C
H       0.0257   0.3274   0.8425     H
H       0.0408   0.5363    0.287     H
O       0.0565    0.749  0.87308     O
O       0.0651    0.752   0.4978     O
H        0.072    0.365     0.13     H
C       0.0744   0.1562   0.1423     C
H       0.0786   0.6482   0.3372     H
C       0.0944   0.7523   0.0624     C
H       0.0973   0.9193   0.2925     H
O       0.1018   0.1053   0.3903     O
O       0.1021   0.3942   0.3921     O
O       0.1057   0.0676   0.1004     O
O       0.1086   0.4332   0.1017     O
H       0.1108   0.7184   0.1766     H
H       0.1116   0.2017   0.8573     H
H       0.1137   0.4624   0.6735     H
H        0.116    0.808     0.47     H
H        0.123   0.0748   0.6512     H
C       0.1242   0.5018   0.3947     C
C       0.1298   0.0016   0.3965     C
O       0.1355   0.6595  0.02959     O
O        0.136   0.8447  0.02883     O
H       0.1489    0.655   0.6933     H
H        0.165    0.687    0.504     H
H       0.1686   0.1388    0.252     H
Mg     0.19767  0.25133  0.44091    Mg
C       0.2145   0.1801   0.2068     C
H       0.2156   0.2623   0.2173     H
H        0.231    0.419    0.092     H
O       0.2354   0.9519   0.4448     O
O       0.2377   0.5493   0.4458     O
O       0.2623   0.0493   0.9458     O
O       0.2646   0.4519   0.9448     O
H        0.269    0.919    0.592     H
H       0.2844   0.7623   0.7173     H
C       0.2855   0.6801   0.7068     C
Mg     0.30233  0.75133  0.94091    Mg
H       0.3314   0.6388    0.752     H
H        0.335    0.187    0.004     H
H       0.3511    0.155   0.1933     H
O        0.364   0.3447  0.52883     O
O       0.3645   0.1595  0.52959     O
C       0.3702   0.5016   0.8965     C
C       0.3758   0.0018   0.8947     C
H        0.377   0.5748   0.1512     H
H        0.384    0.308     0.97     H
H       0.3863   0.9624   0.1735     H
H       0.3884   0.7017   0.3573     H
H       0.3892   0.2184   0.6766     H
O       0.3914   0.9332   0.6017     O
O       0.3943   0.5676   0.6004     O
O       0.3979   0.8942   0.8921     O
O       0.3982   0.6053   0.8903     O
H       0.4027   0.4193   0.7925     H
C       0.4056   0.2523   0.5624     C
H       0.4214   0.1482   0.8372     H
C       0.4256   0.6562   0.6423     C
H        0.428    0.865     0.63     H
O       0.4349    0.252   0.9978     O
O       0.4435    0.249  0.37308     O
H       0.4592   0.0363    0.787     H
H       0.4743   0.8274   0.3425     H
C       0.4783    0.071   0.8372     C
C       0.4838   0.4268   0.8389     C
C       0.4904   0.2497  0.64174     C
H       0.4927   0.8511   0.1392     H
Mg      0.4987  0.00054  0.49969    Mg
Mg      0.5013  0.50054  0.50031    Mg
H       0.5073   0.3511   0.8608     H
C       0.5096   0.7497  0.35826     C
C       0.5162   0.9268   0.1611     C
C       0.5217    0.571   0.1628     C
H       0.5257   0.3274   0.6575     H
H       0.5408   0.5363    0.213     H
O       0.5565    0.749  0.62692     O
O       0.5651    0.752   0.0022     O
H        0.572    0.365     0.37     H
C       0.5744   0.1562   0.3577     C
H       0.5786   0.6482   0.1628     H
C       0.5944   0.7523   0.4376     C
H       0.5973   0.9193   0.2075     H
O       0.6018   0.1053   0.1097     O
O       0.6021   0.3942   0.1079     O
O       0.6057   0.0676   0.3996     O
O       0.6086   0.4332   0.3983     O
H       0.6108   0.7184   0.3234     H
H       0.6116   0.2017   0.6427     H
H       0.6137   0.4624   0.8265     H
H        0.616    0.808     0.03     H
H        0.623   0.0748   0.8488     H
C       0.6242   0.5018   0.1053     C
C       0.6298   0.0016   0.1035     C
O       0.6355   0.6595  0.47041     O
O        0.636   0.8447  0.47117     O
H       0.6489    0.655   0.8067     H
H        0.665    0.687    0.996     H
H       0.6686   0.1388    0.248     H
Mg     0.69767  0.25133  0.05909    Mg
C       0.7145   0.1801   0.2932     C
H       0.7156   0.2623   0.2827     H
H        0.731    0.419    0.408     H
O       0.7354   0.9519   0.0552     O
O       0.7377   0.5493   0.0542     O
O       0.7623   0.0493   0.5542     O
O       0.7646   0.4519   0.5552     O
H        0.769    0.919    0.908     H
H       0.7844   0.7623   0.7827     H
C       0.7855   0.6801   0.7932     C
Mg     0.80233  0.75133  0.55909    Mg
H       0.8314   0.6388    0.748     H
H        0.835    0.187    0.496     H
H       0.8511    0.155   0.3067     H
O        0.864   0.3447  0.97117     O
O       0.8645   0.1595  0.97041     O
C       0.8702   0.5016   0.6035     C
C       0.8758   0.0018   0.6053     C
H        0.877   0.5748   0.3488     H
H        0.884    0.308     0.53     H
H       0.8863   0.9624   0.3265     H
H       0.8884   0.7017   0.1427     H
H       0.8892   0.2184   0.8234     H
O       0.8914   0.9332   0.8983     O
O       0.8943   0.5676   0.8996     O
O       0.8979   0.8942   0.6079     O
O       0.8982   0.6053   0.6097     O
H       0.9027   0.4193   0.7075     H
C       0.9056   0.2523   0.9376     C
H       0.9214   0.1482   0.6628     H
C       0.9256   0.6562   0.8577     C
H        0.928    0.865     0.87     H
O       0.9349    0.252   0.5022     O
O       0.9435    0.249  0.12692     O
H       0.9592   0.0363    0.713     H
H       0.9743   0.8274   0.1575     H
C       0.9783    0.071   0.6628     C
C       0.9838   0.4268   0.6611     C
C       0.9904   0.2497  0.85826     C
H       0.9927   0.8511   0.3608     H
Mg      0.9987  0.00054  0.00031    Mg
