data_I
_chemical_name_common  '/Users/gianmarcoterrones/Research/MOFs/MOF_structures/water_stability_work_extra_structs/cleaned_from_CCDC/ZZZSDW03'
_cell_length_a 10.92100
_cell_length_b 11.20400
_cell_length_c 14.91800
_cell_angle_alpha 90.00000
_cell_angle_beta  90.00000
_cell_angle_gamma 90.00000
_space_group_name_H-M_alt      'P 1'


loop_
_space_group_symop_operation_xyz
  'x, y, z' 

loop_
_atom_site_label
_atom_site_fract_x
_atom_site_fract_y
_atom_site_fract_z
_atom_site_type_symbol
O       0.0014   0.6115   0.7582     O
Mg     0.01038    0.433  0.80588    Mg
O       0.0209   0.2528   0.8432     O
C       0.0234    0.659   0.6813     C
H       0.0331   0.8687   0.4816     H
Mg     0.04011  0.20146  0.62274    Mg
O       0.0486   0.8133   0.0885     O
O       0.0487   0.8641   0.8147     O
O       0.0489   0.5367   0.9214     O
C       0.0514   0.3879   0.0352     C
C        0.059   0.3281   0.4353     C
H        0.059   0.3879   0.1006     H
H       0.0636   0.6451   0.2348     H
H       0.0751   0.5143   0.6062     H
C       0.0843   0.5091   0.9994     C
H       0.0879   0.4313   0.3253     H
O       0.1065   0.2852   0.5062     O
H       0.1069   0.3281   0.0097     H
H       0.1077   0.7775   0.2588     H
C        0.109   0.5933   0.6197     C
H       0.1125   0.0074   0.0263     H
H       0.1149   0.6744   0.3329     H
H       0.1171   0.1122   0.0991     H
H       0.1188   0.6385    0.564     H
C       0.1231   0.6924   0.2689     C
C       0.1362   0.4041   0.3767     C
C        0.145   0.8569   0.8618     C
O       0.1459   0.5768   0.0479     O
O       0.1491   0.7767     0.92     O
C       0.1642   0.0689   0.0535     C
H       0.1652   0.4734   0.4108     H
O       0.1656   0.9251   0.6485     O
H       0.1889   0.5841   0.6489     H
O       0.1911   0.4136   0.7826     O
H       0.1917   0.1249   0.0072     H
H       0.1983   0.0593   0.3994     H
O       0.1993   0.0928   0.5736     O
H       0.2014   0.0925   0.2951     H
H       0.2066   0.3579   0.3554     H
O       0.2074   0.2853   0.6695     O
Mg     0.20978  0.74598  0.04651    Mg
H       0.2201   0.0178   0.8317     H
C       0.2275   0.9881   0.5962     C
C       0.2484   0.3385    0.738     C
C       0.2497   0.0624   0.3456     C
C       0.2503   0.9376   0.8456     C
C       0.2516   0.6615    0.238     C
C       0.2725   0.0119   0.0962     C
H       0.2799   0.9822   0.3317     H
Mg     0.29022  0.25402  0.54651    Mg
O       0.2926   0.7147   0.1695     O
H       0.2934   0.6421   0.8554     H
H       0.2986   0.9075   0.7951     H
O       0.3007   0.9072   0.0736     O
H       0.3017   0.9407   0.8994     H
H       0.3083   0.8751   0.5072     H
O       0.3089   0.5864   0.2826     O
H       0.3111   0.4159   0.1489     H
O       0.3344   0.0749   0.1485     O
H       0.3348   0.5266   0.9108     H
C       0.3358   0.9311   0.5535     C
O       0.3509   0.2233     0.42     O
O       0.3541   0.4232   0.5479     O
C        0.355   0.1431   0.3618     C
C       0.3638   0.5959   0.8767     C
C       0.3769   0.3076   0.7689     C
H       0.3812   0.3615    0.064     H
H       0.3829   0.8878   0.5991     H
H       0.3851   0.3256   0.8329     H
H       0.3875   0.9926   0.5263     H
C        0.391   0.4067   0.1197     C
H       0.3923   0.2225   0.7588     H
H       0.3931   0.6719   0.5097     H
O       0.3935   0.7148   0.0062     O
H       0.4121   0.5687   0.8253     H
C       0.4157   0.4909   0.4994     C
H       0.4249   0.4857   0.1062     H
H       0.4364   0.3549   0.7348     H
H        0.441   0.6121   0.6006     H
C        0.441   0.6719   0.9353     C
C       0.4486   0.6121   0.5352     C
O       0.4511   0.4633   0.4214     O
O       0.4513   0.1359   0.3147     O
O       0.4514   0.1867   0.5885     O
Mg     0.45989  0.79854  0.12274    Mg
H       0.4669   0.1313   0.9816     H
C       0.4766    0.341   0.1813     C
O       0.4791   0.7472   0.3432     O
Mg     0.48962    0.567  0.30588    Mg
O       0.4986   0.3885   0.2582     O
O       0.5014   0.8885   0.2418     O
Mg     0.51038    0.067  0.19412    Mg
O       0.5209   0.2472   0.1568     O
C       0.5234    0.841   0.3187     C
H       0.5331   0.6313   0.5184     H
Mg     0.54011  0.29854  0.37726    Mg
O       0.5486   0.6867   0.9115     O
O       0.5487   0.6359   0.1853     O
O       0.5489   0.9633   0.0786     O
C       0.5514   0.1121   0.9648     C
H        0.559   0.1121   0.8994     H
C        0.559   0.1719   0.5647     C
H       0.5636   0.8549   0.7652     H
H       0.5751   0.9857   0.3938     H
C       0.5843   0.9909   0.0006     C
H       0.5879   0.0687   0.6747     H
O       0.6065   0.2148   0.4938     O
H       0.6069   0.1719   0.9903     H
H       0.6077   0.7225   0.7412     H
C        0.609   0.9067   0.3803     C
H       0.6125   0.4926   0.9737     H
H       0.6149   0.8256   0.6671     H
H       0.6171   0.3878   0.9009     H
H       0.6188   0.8615    0.436     H
C       0.6231   0.8076   0.7311     C
C       0.6362   0.0959   0.6233     C
C        0.645   0.6431   0.1382     C
O       0.6459   0.9232   0.9521     O
O       0.6491   0.7233     0.08     O
C       0.6642   0.4311   0.9465     C
H       0.6652   0.0266   0.5892     H
O       0.6656   0.5749   0.3515     O
H       0.6889   0.9159   0.3511     H
O       0.6911   0.0864   0.2174     O
H       0.6917   0.3751   0.9928     H
H       0.6983   0.4407   0.6006     H
O       0.6993   0.4072   0.4264     O
H       0.7014   0.4075   0.7049     H
H       0.7066   0.1421   0.6446     H
O       0.7074   0.2147   0.3305     O
Mg     0.70978  0.75402  0.95349    Mg
H       0.7201   0.4822   0.1683     H
C       0.7275   0.5119   0.4038     C
C       0.7484   0.1615    0.262     C
C       0.7497   0.4376   0.6544     C
C       0.7503   0.5624   0.1544     C
C       0.7516   0.8385    0.762     C
C       0.7725   0.4881   0.9038     C
H       0.7799   0.5178   0.6683     H
Mg     0.79022  0.24598  0.45349    Mg
O       0.7926   0.7853   0.8305     O
H       0.7934   0.8579   0.1446     H
H       0.7986   0.5925   0.2049     H
O       0.8007   0.5928   0.9264     O
H       0.8017   0.5593   0.1006     H
H       0.8083   0.6249   0.4928     H
O       0.8089   0.9136   0.7174     O
H       0.8111   0.0841   0.8511     H
O       0.8344   0.4251   0.8515     O
H       0.8348   0.9734   0.0892     H
C       0.8358   0.5689   0.4465     C
O       0.8509   0.2767     0.58     O
O       0.8541   0.0768   0.4521     O
C        0.855   0.3569   0.6382     C
C       0.8638   0.9041   0.1233     C
C       0.8769   0.1924   0.2311     C
H       0.8812   0.1385    0.936     H
H       0.8829   0.6122   0.4009     H
H       0.8851   0.1744   0.1671     H
H       0.8875   0.5074   0.4737     H
C        0.891   0.0933   0.8803     C
H       0.8923   0.2775   0.2412     H
H       0.8931   0.8281   0.4903     H
O       0.8935   0.7852   0.9938     O
H       0.9121   0.9313   0.1747     H
C       0.9157   0.0091   0.5006     C
H       0.9249   0.0143   0.8938     H
H       0.9364   0.1451   0.2652     H
C        0.941   0.8281   0.0647     C
H        0.941   0.8879   0.3994     H
C       0.9486   0.8879   0.4648     C
O       0.9511   0.0367   0.5786     O
O       0.9513   0.3641   0.6853     O
O       0.9514   0.3133   0.4115     O
Mg     0.95989  0.70146  0.87726    Mg
H       0.9669   0.3687   0.0184     H
C       0.9766    0.159   0.8187     C
O       0.9791   0.7528   0.6568     O
Mg     0.98962    0.933  0.69412    Mg
O       0.9986   0.1115   0.7418     O
