data_I
_chemical_name_common  '/home/zhangsd/repos/MofS-CGCNN/ML/data/TSD/clean_cifs/ACAJOF_clean'
_cell_length_a  8.67700
_cell_length_b 13.04200
_cell_length_c 28.20100
_cell_angle_alpha 90.00000
_cell_angle_beta  90.00000
_cell_angle_gamma 90.00000
_space_group_name_H-M_alt      'P 1'


loop_
_space_group_symop_operation_xyz
  'x, y, z' 

loop_
_atom_site_label
_atom_site_fract_x
_atom_site_fract_y
_atom_site_fract_z
_atom_site_type_symbol
H       0.0058   0.1279   0.0124     H
H       0.0058   0.3721   0.4876     H
O       0.0058  0.67531  0.00574     O
O       0.0058  0.82469  0.49426     O
C       0.0107   0.7153  0.29266     C
C       0.0107   0.7847  0.20734     C
C       0.0125   0.6328   0.5463     C
C       0.0125   0.8672   0.9537     C
H       0.0164   0.0245   0.9426     H
H       0.0164   0.4755   0.5574     H
Cu     0.05074  0.04656  0.53877    Cu
Cu     0.05074  0.45344  0.96123    Cu
H       0.0525   0.2282   0.6963     H
H       0.0525   0.2718   0.8037     H
H       0.0574   0.1599   0.7832     H
H       0.0574   0.3401   0.7168     H
C        0.062   0.6748  0.96516     C
C        0.062   0.8252  0.53484     C
O       0.0849  0.59599  0.94026     O
O       0.0849  0.90401  0.55974     O
C       0.0861   0.5319  0.56397     C
C       0.0861   0.9681  0.93603     C
H       0.0862   0.1424   0.0618     H
H       0.0862   0.3576   0.4382     H
H       0.0999   0.5358   0.5981     H
H       0.0999   0.9642   0.9019     H
C       0.1055     0.75     0.25     C
C       0.1139   0.6791   0.3325     C
C       0.1139   0.8209   0.1675     C
C       0.1141   0.7244  0.55622     C
C       0.1141   0.7756  0.94378     C
H       0.1184   0.6925   0.1281     H
H       0.1184   0.8075   0.3719     H
H       0.1216    0.733   0.5903     H
H       0.1216    0.767   0.9097     H
H       0.1481   0.5357   0.3068     H
H       0.1481   0.9643   0.1932     H
C       0.1567   0.7411  0.36956     C
C       0.1567   0.7589  0.13044     C
O       0.1601    0.536  0.06487     O
O       0.1601    0.964  0.43513     O
H       0.1715   0.6939   0.2402     H
H       0.1715   0.8061   0.2598     H
C       0.1746   0.5804  0.33117     C
C       0.1746   0.9196  0.16883     C
N       0.1822   0.1097  0.59747     N
N       0.1822   0.3903  0.90253     N
H       0.1862   0.5162   0.8648     H
H       0.1862   0.9838   0.6352     H
H       0.2151    0.247   0.5717     H
H       0.2151    0.253   0.9283     H
H       0.2168   0.7094   0.5445     H
H       0.2168   0.7906   0.9555     H
C       0.2258     0.05   0.6337     C
C       0.2258     0.45   0.8663     C
C       0.2394   0.5104    0.541     C
C       0.2394   0.9896    0.959     C
O       0.2423  0.04032  0.50076     O
O       0.2423  0.45968  0.99924     O
C       0.2425   0.2039   0.5966     C
C       0.2425   0.2961   0.9034     C
C       0.2575   0.7039   0.4034     C
C       0.2575   0.7961   0.0966     C
O       0.2577  0.54032  0.49924     O
O       0.2577  0.95968  0.00076     O
C       0.2606   0.0104    0.459     C
C       0.2606   0.4896    0.041     C
C       0.2742     0.55   0.3663     C
C       0.2742     0.95   0.1337     C
H       0.2832   0.2094   0.4555     H
H       0.2832   0.2906   0.0445     H
H       0.2849    0.747   0.4283     H
H       0.2849    0.753   0.0717     H
H       0.3138   0.0162   0.1352     H
H       0.3138   0.4838   0.3648     H
N       0.3178   0.6097  0.40253     N
N       0.3178   0.8903  0.09747     N
C       0.3254   0.0804  0.66883     C
C       0.3254   0.4196  0.83117     C
H       0.3285   0.1939   0.7598     H
H       0.3285   0.3061   0.7402     H
O       0.3399    0.036  0.93513     O
O       0.3399    0.464  0.56487     O
C       0.3433   0.2411  0.63044     C
C       0.3433   0.2589  0.86956     C
H       0.3519   0.0357   0.6932     H
H       0.3519   0.4643   0.8068     H
H       0.3784    0.233   0.4097     H
H       0.3784    0.267   0.0903     H
H       0.3816   0.1925   0.8719     H
H       0.3816   0.3075   0.6281     H
C       0.3859   0.2244  0.44378     C
C       0.3859   0.2756  0.05622     C
C       0.3861   0.1791   0.6675     C
C       0.3861   0.3209   0.8325     C
C       0.3945     0.25     0.75     C
H       0.4001   0.0358   0.4019     H
H       0.4001   0.4642   0.0981     H
H       0.4138   0.6424   0.9382     H
H       0.4138   0.8576   0.5618     H
C       0.4139   0.0319  0.43603     C
C       0.4139   0.4681  0.06397     C
O       0.4151  0.09599  0.05974     O
O       0.4151  0.40401  0.44026     O
C        0.438   0.1748  0.03484     C
C        0.438   0.3252  0.46516     C
H       0.4426   0.6599   0.2168     H
H       0.4426   0.8401   0.2832     H
H       0.4475   0.7282   0.3037     H
H       0.4475   0.7718   0.1963     H
Cu     0.44926  0.54656  0.46123    Cu
Cu     0.44926  0.95344  0.03877    Cu
H       0.4836   0.5245   0.0574     H
H       0.4836   0.9755   0.4426     H
C       0.4875   0.1328   0.4537     C
C       0.4875   0.3672   0.0463     C
C       0.4893   0.2153  0.70734     C
C       0.4893   0.2847  0.79266     C
O       0.4942  0.17531  0.99426     O
O       0.4942  0.32469  0.50574     O
H       0.4942   0.6279   0.9876     H
H       0.4942   0.8721   0.5124     H
H       0.5058   0.1279   0.4876     H
H       0.5058   0.3721   0.0124     H
O       0.5058  0.67531  0.49426     O
O       0.5058  0.82469  0.00574     O
C       0.5107   0.7153  0.20734     C
C       0.5107   0.7847  0.29266     C
C       0.5125   0.6328   0.9537     C
C       0.5125   0.8672   0.5463     C
H       0.5164   0.0245   0.5574     H
H       0.5164   0.4755   0.9426     H
Cu     0.55074  0.04656  0.96123    Cu
Cu     0.55074  0.45344  0.53877    Cu
H       0.5525   0.2282   0.8037     H
H       0.5525   0.2718   0.6963     H
H       0.5574   0.1599   0.7168     H
H       0.5574   0.3401   0.7832     H
C        0.562   0.6748  0.53484     C
C        0.562   0.8252  0.96516     C
O       0.5849  0.59599  0.55974     O
O       0.5849  0.90401  0.94026     O
C       0.5861   0.5319  0.93603     C
C       0.5861   0.9681  0.56397     C
H       0.5862   0.1424   0.4382     H
H       0.5862   0.3576   0.0618     H
H       0.5999   0.5358   0.9019     H
H       0.5999   0.9642   0.5981     H
C       0.6055     0.75     0.25     C
C       0.6139   0.6791   0.1675     C
C       0.6139   0.8209   0.3325     C
C       0.6141   0.7244  0.94378     C
C       0.6141   0.7756  0.55622     C
H       0.6184   0.6925   0.3719     H
H       0.6184   0.8075   0.1281     H
H       0.6216    0.733   0.9097     H
H       0.6216    0.767   0.5903     H
H       0.6481   0.5357   0.1932     H
H       0.6481   0.9643   0.3068     H
C       0.6567   0.7411  0.13044     C
C       0.6567   0.7589  0.36956     C
O       0.6601    0.536  0.43513     O
O       0.6601    0.964  0.06487     O
H       0.6715   0.6939   0.2598     H
H       0.6715   0.8061   0.2402     H
C       0.6746   0.5804  0.16883     C
C       0.6746   0.9196  0.33117     C
N       0.6822   0.1097  0.90253     N
N       0.6822   0.3903  0.59747     N
H       0.6862   0.5162   0.6352     H
H       0.6862   0.9838   0.8648     H
H       0.7151    0.247   0.9283     H
H       0.7151    0.253   0.5717     H
H       0.7168   0.7094   0.9555     H
H       0.7168   0.7906   0.5445     H
C       0.7258     0.05   0.8663     C
C       0.7258     0.45   0.6337     C
C       0.7394   0.5104    0.959     C
C       0.7394   0.9896    0.541     C
O       0.7423  0.04032  0.99924     O
O       0.7423  0.45968  0.50076     O
C       0.7425   0.2039   0.9034     C
C       0.7425   0.2961   0.5966     C
C       0.7575   0.7039   0.0966     C
C       0.7575   0.7961   0.4034     C
O       0.7577  0.54032  0.00076     O
O       0.7577  0.95968  0.49924     O
C       0.7606   0.0104    0.041     C
C       0.7606   0.4896    0.459     C
C       0.7742     0.55   0.1337     C
C       0.7742     0.95   0.3663     C
H       0.7832   0.2094   0.0445     H
H       0.7832   0.2906   0.4555     H
H       0.7849    0.747   0.0717     H
H       0.7849    0.753   0.4283     H
H       0.8138   0.0162   0.3648     H
H       0.8138   0.4838   0.1352     H
N       0.8178   0.6097  0.09747     N
N       0.8178   0.8903  0.40253     N
C       0.8254   0.0804  0.83117     C
C       0.8254   0.4196  0.66883     C
H       0.8285   0.1939   0.7402     H
H       0.8285   0.3061   0.7598     H
O       0.8399    0.036  0.56487     O
O       0.8399    0.464  0.93513     O
C       0.8433   0.2411  0.86956     C
C       0.8433   0.2589  0.63044     C
H       0.8519   0.0357   0.8068     H
H       0.8519   0.4643   0.6932     H
H       0.8784    0.233   0.0903     H
H       0.8784    0.267   0.4097     H
H       0.8816   0.1925   0.6281     H
H       0.8816   0.3075   0.8719     H
C       0.8859   0.2244  0.05622     C
C       0.8859   0.2756  0.44378     C
C       0.8861   0.1791   0.8325     C
C       0.8861   0.3209   0.6675     C
C       0.8945     0.25     0.75     C
H       0.9001   0.0358   0.0981     H
H       0.9001   0.4642   0.4019     H
H       0.9138   0.6424   0.5618     H
H       0.9138   0.8576   0.9382     H
C       0.9139   0.0319  0.06397     C
C       0.9139   0.4681  0.43603     C
O       0.9151  0.09599  0.44026     O
O       0.9151  0.40401  0.05974     O
C        0.938   0.1748  0.46516     C
C        0.938   0.3252  0.03484     C
H       0.9426   0.6599   0.2832     H
H       0.9426   0.8401   0.2168     H
H       0.9475   0.7282   0.1963     H
H       0.9475   0.7718   0.3037     H
Cu     0.94926  0.54656  0.03877    Cu
Cu     0.94926  0.95344  0.46123    Cu
H       0.9836   0.5245   0.4426     H
H       0.9836   0.9755   0.0574     H
C       0.9875   0.1328   0.0463     C
C       0.9875   0.3672   0.4537     C
C       0.9893   0.2153  0.79266     C
C       0.9893   0.2847  0.70734     C
O       0.9942  0.17531  0.50574     O
O       0.9942  0.32469  0.99426     O
H       0.9942   0.6279   0.5124     H
H       0.9942   0.8721   0.9876     H
