data_I
_chemical_name_common  '/home/zhangsd/repos/MofS-CGCNN/ML/data/TSD/clean_cifs/ACAKUM_clean'
_cell_length_a 10.39500
_cell_length_b 10.77900
_cell_length_c 21.44500
_cell_angle_alpha 90.00000
_cell_angle_beta  90.00000
_cell_angle_gamma 112.06000
_space_group_name_H-M_alt      'P 1'


loop_
_space_group_symop_operation_xyz
  'x, y, z' 

loop_
_atom_site_label
_atom_site_fract_x
_atom_site_fract_y
_atom_site_fract_z
_atom_site_type_symbol
C       0.0007   0.3448  0.24288     C
C       0.0037   0.6947  0.24098     C
H       0.0116   0.2999   0.8015     H
C       0.0132   0.0341  0.29034     C
C       0.0176   0.9803  0.77309     C
O       0.0239    0.601  0.92324     O
N       0.0258   0.3625   0.6595     N
C       0.0412   0.3381  0.35908     C
C       0.0471   0.3907  0.18313     C
C       0.0529   0.6613  0.87055     C
O       0.0584   0.0536  0.41962     O
C       0.0599   0.0214  0.59754     C
O       0.0623   0.0905  0.12362     O
O       0.0851   0.7235  0.63011     O
C        0.088   0.3834  0.71593     C
C       0.0884   0.0384  0.66689     C
C       0.0886   0.3872  0.29378     C
C       0.0888   0.0942  0.17891     C
H       0.0902   0.7149   0.7513     H
H       0.1002   0.0912    0.304     H
N       0.1021    0.725  0.33375     N
N       0.1222   0.7629  0.27331     N
O       0.1344   0.3648  0.40033     O
C       0.1468   0.0655  0.79414     C
O       0.1575   0.0845  0.56172     O
O       0.1623   0.7597  0.86208     O
H       0.1674    0.072   0.8365     H
C       0.1823   0.4814  0.17378     C
O         0.21   0.1614  0.20297     O
H        0.213   0.5134    0.134     H
H       0.2142   0.4959   0.8179     H
C       0.2164   0.1277   0.6878     C
H       0.2175   0.8216   0.1592     H
C       0.2253   0.4764  0.28427     C
H       0.2289   0.8049   0.6735     H
C       0.2291   0.4764  0.72493     C
La     0.23306  0.24057   0.4722    La
C       0.2455   0.1413    0.751     C
C       0.2545   0.8587    0.251     C
La     0.26694  0.75943   0.9722    La
C       0.2709   0.5236  0.22493     C
H       0.2711   0.1951   0.1735     H
C       0.2747   0.5236  0.78427     C
H       0.2825   0.1784   0.6592     H
C       0.2836   0.8723   0.1878     C
H       0.2858   0.5041   0.3179     H
H        0.287   0.4866    0.634     H
O         0.29   0.8386  0.70297     O
C       0.3177   0.5186  0.67378     C
H       0.3326    0.928   0.3365     H
O       0.3377   0.2403  0.36208     O
O       0.3425   0.9155  0.06172     O
C       0.3532   0.9345  0.29414     C
O       0.3656   0.6352  0.90033     O
N       0.3778   0.2371  0.77331     N
N       0.3979    0.275  0.83375     N
H       0.3998   0.9088    0.804     H
H       0.4098   0.2851   0.2513     H
C       0.4112   0.9058  0.67891     C
C       0.4114   0.6128  0.79378     C
C       0.4116   0.9616  0.16689     C
C        0.412   0.6166  0.21593     C
O       0.4149   0.2765  0.13011     O
O       0.4377   0.9095  0.62362     O
C       0.4401   0.9786  0.09754     C
O       0.4416   0.9464  0.91962     O
C       0.4471   0.3387  0.37055     C
C       0.4529   0.6093  0.68313     C
C       0.4588   0.6619  0.85908     C
N       0.4742   0.6375   0.1595     N
O       0.4761    0.399  0.42324     O
C       0.4824   0.0197  0.27309     C
C       0.4868   0.9659  0.79034     C
H       0.4884   0.7001   0.3015     H
C       0.4963   0.3053  0.74098     C
C       0.4993   0.6552  0.74288     C
C       0.5007   0.3448  0.25712     C
C       0.5037   0.6947  0.25902     C
H       0.5116   0.2999   0.6985     H
C       0.5132   0.0341  0.20966     C
C       0.5176   0.9803  0.72691     C
O       0.5239    0.601  0.57676     O
N       0.5258   0.3625   0.8405     N
C       0.5412   0.3381  0.14092     C
C       0.5471   0.3907  0.31687     C
C       0.5529   0.6613  0.62945     C
O       0.5584   0.0536  0.08038     O
C       0.5599   0.0214  0.90246     C
O       0.5623   0.0905  0.37638     O
O       0.5851   0.7235  0.86989     O
C        0.588   0.3834  0.78407     C
C       0.5884   0.0384  0.83311     C
C       0.5886   0.3872  0.20622     C
C       0.5888   0.0942  0.32109     C
H       0.5902   0.7149   0.7487     H
H       0.6002   0.0912    0.196     H
N       0.6021    0.725  0.16625     N
N       0.6222   0.7629  0.22669     N
O       0.6344   0.3648  0.09967     O
C       0.6468   0.0655  0.70586     C
O       0.6575   0.0845  0.93828     O
O       0.6623   0.7597  0.63792     O
H       0.6674    0.072   0.6635     H
C       0.6823   0.4814  0.32622     C
O         0.71   0.1614  0.29703     O
H        0.713   0.5134    0.366     H
H       0.7142   0.4959   0.6821     H
C       0.7164   0.1277   0.8122     C
H       0.7175   0.8216   0.3408     H
C       0.7253   0.4764  0.21573     C
H       0.7289   0.8049   0.8265     H
C       0.7291   0.4764  0.77507     C
La     0.73306  0.24057   0.0278    La
C       0.7455   0.1413    0.749     C
C       0.7545   0.8587    0.249     C
La     0.76694  0.75943   0.5278    La
C       0.7709   0.5236  0.27507     C
H       0.7711   0.1951   0.3265     H
C       0.7747   0.5236  0.71573     C
H       0.7825   0.1784   0.8408     H
C       0.7836   0.8723   0.3122     C
H       0.7858   0.5041   0.1821     H
H        0.787   0.4866    0.866     H
O         0.79   0.8386  0.79703     O
C       0.8177   0.5186  0.82622     C
H       0.8326    0.928   0.1635     H
O       0.8377   0.2403  0.13792     O
O       0.8425   0.9155  0.43828     O
C       0.8532   0.9345  0.20586     C
O       0.8656   0.6352  0.59967     O
N       0.8778   0.2371  0.72669     N
N       0.8979    0.275  0.66625     N
H       0.8998   0.9088    0.696     H
H       0.9098   0.2851   0.2487     H
C       0.9112   0.9058  0.82109     C
C       0.9114   0.6128  0.70622     C
C       0.9116   0.9616  0.33311     C
C        0.912   0.6166  0.28407     C
O       0.9149   0.2765  0.36989     O
O       0.9377   0.9095  0.87638     O
C       0.9401   0.9786  0.40246     C
O       0.9416   0.9464  0.58038     O
C       0.9471   0.3387  0.12945     C
C       0.9529   0.6093  0.81687     C
C       0.9588   0.6619  0.64092     C
N       0.9742   0.6375   0.3405     N
O       0.9761    0.399  0.07676     O
C       0.9824   0.0197  0.22691     C
C       0.9868   0.9659  0.70966     C
H       0.9884   0.7001   0.1985     H
C       0.9963   0.3053  0.75902     C
C       0.9993   0.6552  0.75712     C
