data_I
_chemical_name_common  '/home/zhangsd/repos/MofS-CGCNN/ML/data/TSD/clean_cifs/ACALIB_clean'
_cell_length_a  9.74940
_cell_length_b 11.04840
_cell_length_c 20.48450
_cell_angle_alpha 90.00000
_cell_angle_beta  90.00000
_cell_angle_gamma 108.89800
_space_group_name_H-M_alt      'P 1'


loop_
_space_group_symop_operation_xyz
  'x, y, z' 

loop_
_atom_site_label
_atom_site_fract_x
_atom_site_fract_y
_atom_site_fract_z
_atom_site_type_symbol
C        0.007   0.5067    0.726     C
H       0.0071   0.8691   0.7923     H
C       0.0072   0.8575   0.7473     C
C       0.0195   0.1978   0.7576     C
C       0.0231   0.8356   0.1784     C
C       0.0338   0.5276   0.7927     C
C       0.0355    0.813   0.3632     C
O        0.041   0.5257   0.4083     O
N       0.0565   0.2136   0.3532     N
O       0.0596   0.5301      0.1     O
O       0.0612   0.1795   0.9323     O
N        0.071   0.8744   0.6432     N
C        0.074    0.856   0.2935     C
C       0.0741   0.5422   0.1584     C
C       0.0794   0.2268   0.8755     C
C       0.0802   0.5487   0.6091     C
H       0.0804   0.5512   0.2881     H
O       0.0937   0.2383     0.62     O
C       0.0981   0.2251    0.289     C
C       0.1098   0.5717   0.6809     C
H       0.1106   0.2561   0.7489     H
N       0.1134   0.9203   0.7043     N
O       0.1411   0.8322   0.4014     O
C       0.1569   0.9258   0.1651     C
C       0.1626   0.6173   0.8138     C
O       0.1784   0.6064   0.5701     O
H       0.1797   0.6332   0.8581     H
O        0.184   0.3259   0.8631     O
H       0.1854   0.9479   0.1223     H
O       0.1895   0.6217   0.1858     O
H       0.1928   0.2936   0.1708     H
Er     0.19984  0.68478  0.46534    Er
C       0.2082   0.9463   0.2802     C
H       0.2286   0.0177   0.8142     H
C       0.2337   0.3168    0.268     C
C       0.2392   0.6613   0.7014     C
C        0.248   0.9827   0.2167     C
H       0.2496   0.3372   0.6569     H
H       0.2504   0.6628   0.1569     H
C        0.252   0.0173   0.7167     C
C       0.2608   0.3387   0.2014     C
C       0.2663   0.6832    0.768     C
H       0.2714   0.9823   0.3142     H
C       0.2918   0.0537   0.7802     C
Er     0.30016  0.31522  0.96534    Er
H       0.3072   0.7064   0.6708     H
O       0.3105   0.3783   0.6858     O
H       0.3146   0.0521   0.6223     H
O        0.316   0.6741   0.3631     O
H       0.3203   0.3668   0.3581     H
O       0.3216   0.3936   0.0701     O
C       0.3374   0.3827   0.3138     C
C       0.3431   0.0742   0.6651     C
O       0.3589   0.1678   0.9014     O
N       0.3866   0.0797   0.2043     N
H       0.3894   0.7439   0.2489     H
C       0.3902   0.4283   0.1809     C
C       0.4019   0.7749    0.789     C
O       0.4063   0.7617     0.12     O
H       0.4196   0.4488   0.7881     H
C       0.4198   0.4513   0.1091     C
C       0.4206   0.7732   0.3755     C
C       0.4259   0.4578   0.6584     C
C        0.426    0.144   0.7935     C
N        0.429   0.1256   0.1432     N
O       0.4388   0.8205   0.4323     O
O       0.4404   0.4699      0.6     O
N       0.4435   0.7864   0.8532     N
O        0.459   0.4743   0.9083     O
C       0.4645    0.187   0.8632     C
C       0.4662   0.4724   0.2927     C
C       0.4769   0.1644   0.6784     C
C       0.4805   0.8022   0.2576     C
C       0.4928   0.1425   0.2473     C
H       0.4929   0.1309   0.2923     H
C        0.493   0.4933    0.226     C
C        0.507   0.5067    0.774     C
H       0.5071   0.8691   0.7077     H
C       0.5072   0.8575   0.7527     C
C       0.5195   0.1978   0.7424     C
C       0.5231   0.8356   0.3216     C
C       0.5338   0.5276   0.7073     C
C       0.5355    0.813   0.1368     C
O        0.541   0.5257   0.0917     O
N       0.5565   0.2136   0.1468     N
O       0.5596   0.5301      0.4     O
O       0.5612   0.1795   0.5677     O
N        0.571   0.8744   0.8568     N
C        0.574    0.856   0.2065     C
C       0.5741   0.5422   0.3416     C
C       0.5794   0.2268   0.6245     C
C       0.5802   0.5487   0.8909     C
H       0.5804   0.5512   0.2119     H
O       0.5937   0.2383     0.88     O
C       0.5981   0.2251    0.211     C
C       0.6098   0.5717   0.8191     C
H       0.6106   0.2561   0.7511     H
N       0.6134   0.9203   0.7957     N
O       0.6411   0.8322   0.0986     O
C       0.6569   0.9258   0.3349     C
C       0.6626   0.6173   0.6862     C
O       0.6784   0.6064   0.9299     O
H       0.6797   0.6332   0.6419     H
O        0.684   0.3259   0.6369     O
H       0.6854   0.9479   0.3777     H
O       0.6895   0.6217   0.3142     O
H       0.6928   0.2936   0.3292     H
Er     0.69984  0.68478  0.03466    Er
C       0.7082   0.9463   0.2198     C
H       0.7286   0.0177   0.6858     H
C       0.7337   0.3168    0.232     C
C       0.7392   0.6613   0.7986     C
C        0.748   0.9827   0.2833     C
H       0.7496   0.3372   0.8431     H
H       0.7504   0.6628   0.3431     H
C        0.752   0.0173   0.7833     C
C       0.7608   0.3387   0.2986     C
C       0.7663   0.6832    0.732     C
H       0.7714   0.9823   0.1858     H
C       0.7918   0.0537   0.7198     C
Er     0.80016  0.31522  0.53466    Er
H       0.8072   0.7064   0.8292     H
O       0.8105   0.3783   0.8142     O
H       0.8146   0.0521   0.8777     H
O        0.816   0.6741   0.1369     O
H       0.8203   0.3668   0.1419     H
O       0.8216   0.3936   0.4299     O
C       0.8374   0.3827   0.1862     C
C       0.8431   0.0742   0.8349     C
O       0.8589   0.1678   0.5986     O
N       0.8866   0.0797   0.2957     N
H       0.8894   0.7439   0.2511     H
C       0.8902   0.4283   0.3191     C
C       0.9019   0.7749    0.711     C
O       0.9063   0.7617     0.38     O
H       0.9196   0.4488   0.7119     H
C       0.9198   0.4513   0.3909     C
C       0.9206   0.7732   0.1245     C
C       0.9259   0.4578   0.8416     C
C        0.926    0.144   0.7065     C
N        0.929   0.1256   0.3568     N
O       0.9388   0.8205   0.0677     O
O       0.9404   0.4699      0.9     O
N       0.9435   0.7864   0.6468     N
O        0.959   0.4743   0.5917     O
C       0.9645    0.187   0.6368     C
C       0.9662   0.4724   0.2073     C
C       0.9769   0.1644   0.8216     C
C       0.9805   0.8022   0.2424     C
C       0.9928   0.1425   0.2527     C
H       0.9929   0.1309   0.2077     H
C        0.993   0.4933    0.274     C
