data_I
_chemical_name_common  '/home/zhangsd/repos/MofS-CGCNN/ML/data/TSD/clean_cifs/ADAXIO_clean'
_cell_length_a 18.19100
_cell_length_b 17.17700
_cell_length_c 13.69230
_cell_angle_alpha 90.00000
_cell_angle_beta  129.74100
_cell_angle_gamma 90.00000
_space_group_name_H-M_alt      'P 1'


loop_
_space_group_symop_operation_xyz
  'x, y, z' 

loop_
_atom_site_label
_atom_site_fract_x
_atom_site_fract_y
_atom_site_fract_z
_atom_site_type_symbol
Co         0.0  0.30266     0.75    Co
Co         0.0  0.69734     0.25    Co
C       0.0066   0.1097   0.0084     C
C       0.0066   0.8903   0.5084     C
C       0.0155   0.0336   0.9827     C
C       0.0155   0.9664   0.4827     C
H         0.02   0.1189    0.453     H
H         0.02   0.8811    0.953     H
H       0.0307   0.2221   0.9968     H
H       0.0307   0.7779   0.4968     H
H       0.0356   0.3799   0.5085     H
H       0.0356   0.6201   0.0085     H
C       0.0364   0.1716   0.9778     C
C       0.0364   0.8284   0.4778     C
H        0.037   0.4863   0.4075     H
H        0.037   0.5137   0.9075     H
C       0.0568   0.0232    0.926     C
C       0.0568   0.9768    0.426     C
H       0.0645   0.0268   0.4076     H
H       0.0645   0.9732   0.9076     H
N       0.0737  0.15907   0.9203     N
N       0.0737  0.84093   0.4203     N
O      0.07844  0.29952   0.6897     O
O      0.07844  0.70048   0.1897     O
O       0.0859  0.38958   0.8788     O
O       0.0859  0.61042   0.3788     O
C       0.0861    0.086   0.8972     C
C       0.0861    0.914   0.3972     C
C       0.0873    0.414   0.5539     C
C       0.0873    0.586   0.0539     C
C       0.0877   0.4782   0.4933     C
C       0.0877   0.5218   0.9933     C
O      0.10016  0.21879   0.8866     O
O      0.10016  0.78121   0.3866     O
H       0.1149   0.0782   0.8613     H
H       0.1149   0.9218   0.3613     H
C       0.1579  0.33377   0.7494     C
C       0.1579  0.66623   0.2494     C
C       0.1584  0.39654   0.9938     C
C       0.1584  0.60346   0.4938     C
C       0.1622  0.39967   0.6805     C
C       0.1622  0.60033   0.1805     C
C       0.1629   0.4696   0.0591     C
C       0.1629   0.5304   0.5591     C
H       0.2089   0.0497   0.7691     H
H       0.2089   0.0587   0.1697     H
H       0.2089   0.9413   0.6697     H
H       0.2089   0.9503   0.2691     H
O      0.22655  0.34896   0.0605     O
O      0.22655  0.65104   0.5605     O
O      0.23213  0.31824   0.8601     O
O      0.23213  0.68176   0.3601     O
C       0.2391   0.4508   0.7456     C
C       0.2391   0.5492   0.2456     C
C       0.2393   0.4843   0.1857     C
C       0.2393   0.5157   0.6857     C
Co        0.25     0.25      0.0    Co
Co        0.25     0.75      0.5    Co
C       0.2607   0.0157   0.8143     C
C       0.2607   0.9843   0.3143     C
C       0.2609   0.0492   0.2544     C
C       0.2609   0.9508   0.7544     C
O      0.26787  0.18176   0.1399     O
O      0.26787  0.81824   0.6399     O
O      0.27345  0.15104   0.9395     O
O      0.27345  0.84896   0.4395     O
H       0.2911   0.4413   0.8303     H
H       0.2911   0.4503   0.2309     H
H       0.2911   0.5497   0.7309     H
H       0.2911   0.5587   0.3303     H
C       0.3371   0.0304   0.9409     C
C       0.3371   0.9696   0.4409     C
C       0.3378  0.10033   0.3195     C
C       0.3378  0.89967   0.8195     C
C       0.3416  0.10346   0.0062     C
C       0.3416  0.89654   0.5062     C
C       0.3421  0.16623   0.2506     C
C       0.3421  0.83377   0.7506     C
H       0.3851   0.4218   0.1387     H
H       0.3851   0.5782   0.6387     H
O      0.39984  0.28121   0.1134     O
O      0.39984  0.71879   0.6134     O
C       0.4123   0.0218   0.5067     C
C       0.4123   0.9782   0.0067     C
C       0.4127    0.086   0.4461     C
C       0.4127    0.914   0.9461     C
C       0.4139    0.414   0.1028     C
C       0.4139    0.586   0.6028     C
O       0.4141  0.11042   0.1212     O
O       0.4141  0.88958   0.6212     O
O      0.42156  0.20048   0.3103     O
O      0.42156  0.79952   0.8103     O
N       0.4263  0.34093   0.0797     N
N       0.4263  0.65907   0.5797     N
H       0.4355   0.4732   0.5924     H
H       0.4355   0.5268   0.0924     H
C       0.4432   0.4768    0.074     C
C       0.4432   0.5232    0.574     C
H        0.463   0.0137   0.5925     H
H        0.463   0.9863   0.0925     H
C       0.4636   0.3284   0.0222     C
C       0.4636   0.6716   0.5222     C
H       0.4644   0.1201   0.4915     H
H       0.4644   0.8799   0.9915     H
H       0.4693   0.2779   0.0032     H
H       0.4693   0.7221   0.5032     H
H         0.48   0.3811    0.547     H
H         0.48   0.6189    0.047     H
C       0.4845   0.4664   0.0173     C
C       0.4845   0.5336   0.5173     C
C       0.4934   0.3903   0.9916     C
C       0.4934   0.6097   0.4916     C
Co         0.5  0.19734     0.25    Co
Co         0.5  0.80266     0.75    Co
C       0.5066   0.3903   0.5084     C
C       0.5066   0.6097   0.0084     C
C       0.5155   0.4664   0.4827     C
C       0.5155   0.5336   0.9827     C
H         0.52   0.3811    0.953     H
H         0.52   0.6189    0.453     H
H       0.5307   0.2779   0.4968     H
H       0.5307   0.7221   0.9968     H
H       0.5356   0.1201   0.0085     H
H       0.5356   0.8799   0.5085     H
C       0.5364   0.3284   0.4778     C
C       0.5364   0.6716   0.9778     C
H        0.537   0.0137   0.9075     H
H        0.537   0.9863   0.4075     H
C       0.5568   0.4768    0.426     C
C       0.5568   0.5232    0.926     C
H       0.5645   0.4732   0.9076     H
H       0.5645   0.5268   0.4076     H
N       0.5737  0.34093   0.4203     N
N       0.5737  0.65907   0.9203     N
O      0.57844  0.20048   0.1897     O
O      0.57844  0.79952   0.6897     O
O       0.5859  0.11042   0.3788     O
O       0.5859  0.88958   0.8788     O
C       0.5861    0.414   0.3972     C
C       0.5861    0.586   0.8972     C
C       0.5873    0.086   0.0539     C
C       0.5873    0.914   0.5539     C
C       0.5877   0.0218   0.9933     C
C       0.5877   0.9782   0.4933     C
O      0.60016  0.28121   0.3866     O
O      0.60016  0.71879   0.8866     O
H       0.6149   0.4218   0.3613     H
H       0.6149   0.5782   0.8613     H
C       0.6579  0.16623   0.2494     C
C       0.6579  0.83377   0.7494     C
C       0.6584  0.10346   0.4938     C
C       0.6584  0.89654   0.9938     C
C       0.6622  0.10033   0.1805     C
C       0.6622  0.89967   0.6805     C
C       0.6629   0.0304   0.5591     C
C       0.6629   0.9696   0.0591     C
H       0.7089   0.4413   0.6697     H
H       0.7089   0.4503   0.2691     H
H       0.7089   0.5497   0.7691     H
H       0.7089   0.5587   0.1697     H
O      0.72655  0.15104   0.5605     O
O      0.72655  0.84896   0.0605     O
O      0.73213  0.18176   0.3601     O
O      0.73213  0.81824   0.8601     O
C       0.7391   0.0492   0.2456     C
C       0.7391   0.9508   0.7456     C
C       0.7393   0.0157   0.6857     C
C       0.7393   0.9843   0.1857     C
Co        0.75     0.25      0.5    Co
Co        0.75     0.75      0.0    Co
C       0.7607   0.4843   0.3143     C
C       0.7607   0.5157   0.8143     C
C       0.7609   0.4508   0.7544     C
C       0.7609   0.5492   0.2544     C
O      0.76787  0.31824   0.6399     O
O      0.76787  0.68176   0.1399     O
O      0.77345  0.34896   0.4395     O
O      0.77345  0.65104   0.9395     O
H       0.7911   0.0497   0.7309     H
H       0.7911   0.0587   0.3303     H
H       0.7911   0.9413   0.8303     H
H       0.7911   0.9503   0.2309     H
C       0.8371   0.4696   0.4409     C
C       0.8371   0.5304   0.9409     C
C       0.8378  0.39967   0.8195     C
C       0.8378  0.60033   0.3195     C
C       0.8416  0.39654   0.5062     C
C       0.8416  0.60346   0.0062     C
C       0.8421  0.33377   0.7506     C
C       0.8421  0.66623   0.2506     C
H       0.8851   0.0782   0.6387     H
H       0.8851   0.9218   0.1387     H
O      0.89984  0.21879   0.6134     O
O      0.89984  0.78121   0.1134     O
C       0.9123   0.4782   0.0067     C
C       0.9123   0.5218   0.5067     C
C       0.9127    0.414   0.9461     C
C       0.9127    0.586   0.4461     C
C       0.9139    0.086   0.6028     C
C       0.9139    0.914   0.1028     C
O       0.9141  0.38958   0.6212     O
O       0.9141  0.61042   0.1212     O
O      0.92156  0.29952   0.8103     O
O      0.92156  0.70048   0.3103     O
N       0.9263  0.15907   0.5797     N
N       0.9263  0.84093   0.0797     N
H       0.9355   0.0268   0.0924     H
H       0.9355   0.9732   0.5924     H
C       0.9432   0.0232    0.574     C
C       0.9432   0.9768    0.074     C
H        0.963   0.4863   0.0925     H
H        0.963   0.5137   0.5925     H
C       0.9636   0.1716   0.5222     C
C       0.9636   0.8284   0.0222     C
H       0.9644   0.3799   0.9915     H
H       0.9644   0.6201   0.4915     H
H       0.9693   0.2221   0.5032     H
H       0.9693   0.7779   0.0032     H
H         0.98   0.1189    0.047     H
H         0.98   0.8811    0.547     H
C       0.9845   0.0336   0.5173     C
C       0.9845   0.9664   0.0173     C
C       0.9934   0.1097   0.4916     C
C       0.9934   0.8903   0.9916     C
