data_I
_chemical_name_common  '/home/zhangsd/repos/MofS-CGCNN/ML/data/TSD/clean_cifs/ADAXEK_clean'
_cell_length_a  7.16680
_cell_length_b  9.85240
_cell_length_c 12.37220
_cell_angle_alpha 91.28540
_cell_angle_beta  106.83600
_cell_angle_gamma 85.55790
_space_group_name_H-M_alt      'P 1'


loop_
_space_group_symop_operation_xyz
  'x, y, z' 

loop_
_atom_site_label
_atom_site_fract_x
_atom_site_fract_y
_atom_site_fract_z
_atom_site_type_symbol
C       0.0128   0.9471   0.3698     C
C       0.0241   0.0858   0.3686     C
O      0.02501     0.67  0.41282     O
O      0.06326   0.3664  0.38072     O
H       0.0864   0.8568   0.6342     H
H       0.1043   0.0877   0.6304     H
C      0.17196   0.7083  0.38892     C
C      0.17373   0.8585  0.37146     C
C      0.19773   0.1415  0.37146     C
C      0.21696   0.2917  0.38892     C
O      0.29586      0.5  0.59172     O
H       0.3165   0.3048   0.7196     H
O      0.31746   0.6336  0.38072     O
C       0.3445   0.9142   0.3686     C
N       0.3523      0.5   0.7046     N
C      0.35441    0.384  0.75962     C
C        0.357   0.0529   0.3698     C
O      0.38781     0.33  0.41282     O
H       0.4031   0.6952   0.7196     H
C      0.40521    0.616  0.75962     C
C       0.4129   0.3831   0.8754     C
H       0.4153   0.3023   0.9134     H
H       0.4522   0.8568   0.3658     H
C       0.4625   0.6169   0.8754     C
C       0.4686      0.5   0.9372     C
H       0.4739   0.0877   0.3696     H
H       0.4981   0.6977   0.9134     H
Co         0.5      0.5      0.5    Co
H       0.5019   0.3023   0.0866     H
H       0.5261   0.9123   0.6304     H
C       0.5314      0.5   0.0628     C
C       0.5375   0.3831   0.1246     C
H       0.5478   0.1432   0.6342     H
H       0.5847   0.6977   0.0866     H
C       0.5871   0.6169   0.1246     C
C      0.59479    0.384  0.24038     C
H       0.5969   0.3048   0.2804     H
O      0.61219     0.67  0.58718     O
C        0.643   0.9471   0.6302     C
C      0.64559    0.616  0.24038     C
N       0.6477      0.5   0.2954     N
C       0.6555   0.0858   0.6314     C
O      0.68254   0.3664  0.61928     O
H       0.6835   0.6952   0.2804     H
O      0.70414      0.5  0.40828     O
C      0.78304   0.7083  0.61108     C
C      0.80227   0.8585  0.62854     C
C      0.82627   0.1415  0.62854     C
C      0.82804   0.2917  0.61108     C
H       0.8957   0.9123   0.3696     H
H       0.9136   0.1432   0.3658     H
O      0.93674   0.6336  0.61928     O
O      0.97499     0.33  0.58718     O
C       0.9759   0.9142   0.6314     C
C       0.9872   0.0529   0.6302     C
Co         1.0      0.5      0.5    Co
