data_I
_chemical_name_common  '/home/zhangsd/repos/MofS-CGCNN/ML/data/TSD/clean_cifs/ADEGIA01_clean'
_cell_length_a  8.60060
_cell_length_b 10.17300
_cell_length_c 11.12500
_cell_angle_alpha 65.11000
_cell_angle_beta  71.80000
_cell_angle_gamma 78.86000
_space_group_name_H-M_alt      'P 1'


loop_
_space_group_symop_operation_xyz
  'x, y, z' 

loop_
_atom_site_label
_atom_site_fract_x
_atom_site_fract_y
_atom_site_fract_z
_atom_site_type_symbol
C       0.0073   0.0158   0.3695     C
H       0.0339   0.7893   0.6456     H
C       0.0342   0.1147   0.5229     C
O       0.0346    0.368   0.4793     O
C       0.0429   0.1327   0.3903     C
O       0.0609   0.4774   0.1742     O
C       0.0679   0.2359   0.5523     C
H       0.1055   0.0001   0.3049     H
Gd     0.13188  0.43942  0.65371    Gd
O       0.1319   0.2042   0.6471     O
O       0.1557   0.6197   0.2357     O
O       0.1789   0.2648   0.8685     O
C        0.179     0.54   0.1674     C
H        0.303   0.1093   0.0909     H
C       0.3259    0.232   0.8193     C
C       0.3378   0.0402   0.0481     C
H       0.3408   0.3339   0.0702     H
C       0.3451   0.5182   0.0823     C
H       0.3541   0.8483   0.1711     H
C       0.3698   0.4305   0.0077     C
O       0.3979   0.3003   0.6944     O
C       0.4177   0.1116   0.9102     C
C       0.4188   0.9296   0.1379     C
C       0.4736   0.5908   0.0715     C
H       0.4892   0.5632   0.1609     H
H       0.5108   0.4368   0.8391     H
C       0.5264   0.4092   0.9285     C
C       0.5812   0.0704   0.8621     C
C       0.5823   0.8884   0.0898     C
O       0.6021   0.6997   0.3056     O
C       0.6302   0.5695   0.9923     C
H       0.6459   0.1517   0.8289     H
C       0.6549   0.4818   0.9177     C
H       0.6592   0.6661   0.9298     H
C       0.6622   0.9598   0.9519     C
C       0.6741    0.768   0.1807     C
H        0.697   0.8907   0.9091     H
C        0.821     0.46   0.8326     C
O       0.8211   0.7352   0.1315     O
O       0.8443   0.3803   0.7643     O
O       0.8681   0.7958   0.3529     O
Gd     0.86812  0.56058  0.34629    Gd
H       0.8945   0.9999   0.6951     H
C       0.9321   0.7641   0.4477     C
O       0.9391   0.5226   0.8258     O
C       0.9571   0.8673   0.6097     C
O       0.9654    0.632   0.5207     O
C       0.9658   0.8853   0.4771     C
H       0.9661   0.2107   0.3544     H
C       0.9927   0.9842   0.6305     C
