data_I
_chemical_name_common  '/home/zhangsd/repos/MofS-CGCNN/ML/data/TSD/clean_cifs/ADODAA_charged'
_cell_length_a 21.33360
_cell_length_b 21.33360
_cell_length_c 21.33360
_cell_angle_alpha 60.00000
_cell_angle_beta  60.00000
_cell_angle_gamma 60.00000
_space_group_name_H-M_alt      'P 1'


loop_
_space_group_symop_operation_xyz
  'x, y, z' 

loop_
_atom_site_label
_atom_site_fract_x
_atom_site_fract_y
_atom_site_fract_z
_atom_site_type_symbol
N       0.0193   0.0663   0.6553     N
N       0.0193   0.2591   0.0663     N
N       0.0193   0.6553   0.2591     N
Cu     0.02236  0.12574   0.2027    Cu
Cu     0.02236   0.2027   0.6492    Cu
Cu     0.02236   0.6492  0.12574    Cu
O       0.0274   0.4734   0.6566     O
O       0.0274   0.6566   0.8426     O
O       0.0274   0.8426   0.4734     O
C       0.0387   0.3297   0.6569     C
C       0.0387   0.6569   0.9747     C
C       0.0387   0.9747   0.3297     C
N       0.0663   0.0193   0.2591     N
N       0.0663   0.2591   0.6553     N
N       0.0663   0.6553   0.0193     N
C       0.0899   0.4203   0.6487     C
C       0.0899   0.6487   0.8411     C
C       0.0899   0.8411   0.4203     C
C       0.0953   0.3479   0.6511     C
C       0.0953   0.6511   0.9057     C
C       0.0953   0.9057   0.3479     C
O       0.1151   0.6283   0.6283     O
Cu     0.12574  0.02236   0.6492    Cu
Cu     0.12574   0.2027  0.02236    Cu
Cu     0.12574   0.6492   0.2027    Cu
O       0.1283   0.1283   0.1283     O
O       0.1283   0.1283   0.6151     O
O       0.1283   0.6151   0.1283     O
O      0.13381  0.28641  0.92459     O
O      0.13381  0.65519  0.28641     O
O      0.13381  0.92459  0.65519     O
H       0.1394   0.3728   0.7784     H
H       0.1394   0.7094   0.3728     H
H       0.1394   0.7784   0.7094     H
N       0.1421   0.2301   0.6477     N
N       0.1421   0.6477   0.9801     N
N       0.1421   0.9801   0.2301     N
C       0.1448   0.4112   0.7838     C
C       0.1448   0.6602   0.4112     C
C       0.1448   0.7838   0.6602     C
N       0.1477   0.4801   0.7301     N
N       0.1477   0.6421   0.4801     N
N       0.1477   0.7301   0.6421     N
C       0.1487   0.3411   0.9203     C
C       0.1487   0.5899   0.3411     C
C       0.1487   0.9203   0.5899     C
Cu      0.1492  0.52236  0.62574    Cu
Cu      0.1492  0.62574   0.7027    Cu
Cu      0.1492   0.7027  0.52236    Cu
C       0.1511   0.4057   0.8479     C
C       0.1511   0.5953   0.4057     C
C       0.1511   0.8479   0.5953     C
O      0.15519  0.42459  0.63381     O
O      0.15519  0.63381  0.78641     O
O      0.15519  0.78641  0.42459     O
N       0.1553   0.5193   0.7591     N
N       0.1553   0.5663   0.5193     N
N       0.1553   0.7591   0.5663     N
O       0.1566   0.3426   0.9734     O
O       0.1566   0.5274   0.3426     O
O       0.1566   0.9734   0.5274     O
C       0.1569   0.4747   0.8297     C
C       0.1569   0.5387   0.4747     C
C       0.1569   0.8297   0.5387     C
C       0.1602   0.2838   0.6448     C
C       0.1602   0.6448   0.9112     C
C       0.1602   0.9112   0.2838     C
H       0.1614   0.4872   0.4884     H
H       0.1614   0.4884    0.863     H
H       0.1614    0.863   0.4872     H
Cu      0.2027  0.02236  0.12574    Cu
Cu      0.2027  0.12574   0.6492    Cu
Cu      0.2027   0.6492  0.02236    Cu
H       0.2094   0.2784   0.6394     H
H       0.2094   0.6394   0.8728     H
H       0.2094   0.8728   0.2784     H
N       0.2301   0.1421   0.9801     N
N       0.2301   0.6477   0.1421     N
N       0.2301   0.9801   0.6477     N
N       0.2591   0.0193   0.6553     N
N       0.2591   0.0663   0.0193     N
N       0.2591   0.6553   0.0663     N
H       0.2784   0.2094   0.8728     H
H       0.2784   0.6394   0.2094     H
H       0.2784   0.8728   0.6394     H
C       0.2838   0.1602   0.9112     C
C       0.2838   0.6448   0.1602     C
C       0.2838   0.9112   0.6448     C
O      0.28641  0.13381  0.65519     O
O      0.28641  0.65519  0.92459     O
O      0.28641  0.92459  0.13381     O
C       0.3297   0.0387   0.9747     C
C       0.3297   0.6569   0.0387     C
C       0.3297   0.9747   0.6569     C
C       0.3411   0.1487   0.5899     C
C       0.3411   0.5899   0.9203     C
C       0.3411   0.9203   0.1487     C
O       0.3426   0.1566   0.5274     O
O       0.3426   0.5274   0.9734     O
O       0.3426   0.9734   0.1566     O
C       0.3479   0.0953   0.9057     C
C       0.3479   0.6511   0.0953     C
C       0.3479   0.9057   0.6511     C
H        0.363   0.6614   0.9872     H
H        0.363   0.9872   0.9884     H
H        0.363   0.9884   0.6614     H
H       0.3728   0.1394   0.7094     H
H       0.3728   0.7094   0.7784     H
H       0.3728   0.7784   0.1394     H
C       0.4057   0.1511   0.5953     C
C       0.4057   0.5953   0.8479     C
C       0.4057   0.8479   0.1511     C
C       0.4112   0.1448   0.6602     C
C       0.4112   0.6602   0.7838     C
C       0.4112   0.7838   0.1448     C
C       0.4203   0.0899   0.8411     C
C       0.4203   0.6487   0.0899     C
C       0.4203   0.8411   0.6487     C
O      0.42459  0.15519  0.78641     O
O      0.42459  0.63381  0.15519     O
O      0.42459  0.78641  0.63381     O
O       0.4734   0.0274   0.8426     O
O       0.4734   0.6566   0.0274     O
O       0.4734   0.8426   0.6566     O
C       0.4747   0.1569   0.5387     C
C       0.4747   0.5387   0.8297     C
C       0.4747   0.8297   0.1569     C
N       0.4801   0.1477   0.6421     N
N       0.4801   0.6421   0.7301     N
N       0.4801   0.7301   0.1477     N
H       0.4872   0.1614    0.863     H
H       0.4872   0.4884   0.1614     H
H       0.4872    0.863   0.4884     H
H       0.4884   0.1614   0.4872     H
H       0.4884   0.4872    0.863     H
H       0.4884    0.863   0.1614     H
N       0.5193   0.1553   0.5663     N
N       0.5193   0.5663   0.7591     N
N       0.5193   0.7591   0.1553     N
Cu     0.52236   0.1492   0.7027    Cu
Cu     0.52236  0.62574   0.1492    Cu
Cu     0.52236   0.7027  0.62574    Cu
O       0.5274   0.1566   0.9734     O
O       0.5274   0.3426   0.1566     O
O       0.5274   0.9734   0.3426     O
C       0.5387   0.1569   0.8297     C
C       0.5387   0.4747   0.1569     C
C       0.5387   0.8297   0.4747     C
N       0.5663   0.1553   0.7591     N
N       0.5663   0.5193   0.1553     N
N       0.5663   0.7591   0.5193     N
C       0.5899   0.1487   0.9203     C
C       0.5899   0.3411   0.1487     C
C       0.5899   0.9203   0.3411     C
C       0.5953   0.1511   0.8479     C
C       0.5953   0.4057   0.1511     C
C       0.5953   0.8479   0.4057     C
O       0.6151   0.1283   0.1283     O
Cu     0.62574   0.1492  0.52236    Cu
Cu     0.62574  0.52236   0.7027    Cu
Cu     0.62574   0.7027   0.1492    Cu
O       0.6283   0.1151   0.6283     O
O       0.6283   0.6283   0.1151     O
O       0.6283   0.6283   0.6283     O
O      0.63381  0.15519  0.42459     O
O      0.63381  0.42459  0.78641     O
O      0.63381  0.78641  0.15519     O
H       0.6394   0.2094   0.2784     H
H       0.6394   0.2784   0.8728     H
H       0.6394   0.8728   0.2094     H
N       0.6421   0.1477   0.7301     N
N       0.6421   0.4801   0.1477     N
N       0.6421   0.7301   0.4801     N
C       0.6448   0.1602   0.2838     C
C       0.6448   0.2838   0.9112     C
C       0.6448   0.9112   0.1602     C
N       0.6477   0.1421   0.2301     N
N       0.6477   0.2301   0.9801     N
N       0.6477   0.9801   0.1421     N
C       0.6487   0.0899   0.4203     C
C       0.6487   0.4203   0.8411     C
C       0.6487   0.8411   0.0899     C
Cu      0.6492  0.02236   0.2027    Cu
Cu      0.6492  0.12574  0.02236    Cu
Cu      0.6492   0.2027  0.12574    Cu
C       0.6511   0.0953   0.3479     C
C       0.6511   0.3479   0.9057     C
C       0.6511   0.9057   0.0953     C
O      0.65519  0.13381  0.92459     O
O      0.65519  0.28641  0.13381     O
O      0.65519  0.92459  0.28641     O
N       0.6553   0.0193   0.0663     N
N       0.6553   0.0663   0.2591     N
N       0.6553   0.2591   0.0193     N
O       0.6566   0.0274   0.4734     O
O       0.6566   0.4734   0.8426     O
O       0.6566   0.8426   0.0274     O
C       0.6569   0.0387   0.3297     C
C       0.6569   0.3297   0.9747     C
C       0.6569   0.9747   0.0387     C
C       0.6602   0.1448   0.7838     C
C       0.6602   0.4112   0.1448     C
C       0.6602   0.7838   0.4112     C
H       0.6614    0.363   0.9884     H
H       0.6614   0.9872    0.363     H
H       0.6614   0.9884   0.9872     H
Cu      0.7027   0.1492  0.62574    Cu
Cu      0.7027  0.52236   0.1492    Cu
Cu      0.7027  0.62574  0.52236    Cu
H       0.7094   0.1394   0.7784     H
H       0.7094   0.3728   0.1394     H
H       0.7094   0.7784   0.3728     H
N       0.7301   0.1477   0.4801     N
N       0.7301   0.4801   0.6421     N
N       0.7301   0.6421   0.1477     N
N       0.7591   0.1553   0.5193     N
N       0.7591   0.5193   0.5663     N
N       0.7591   0.5663   0.1553     N
H       0.7784   0.1394   0.3728     H
H       0.7784   0.3728   0.7094     H
H       0.7784   0.7094   0.1394     H
C       0.7838   0.1448   0.4112     C
C       0.7838   0.4112   0.6602     C
C       0.7838   0.6602   0.1448     C
O      0.78641  0.15519  0.63381     O
O      0.78641  0.42459  0.15519     O
O      0.78641  0.63381  0.42459     O
C       0.8297   0.1569   0.4747     C
C       0.8297   0.4747   0.5387     C
C       0.8297   0.5387   0.1569     C
C       0.8411   0.0899   0.6487     C
C       0.8411   0.4203   0.0899     C
C       0.8411   0.6487   0.4203     C
O       0.8426   0.0274   0.6566     O
O       0.8426   0.4734   0.0274     O
O       0.8426   0.6566   0.4734     O
C       0.8479   0.1511   0.4057     C
C       0.8479   0.4057   0.5953     C
C       0.8479   0.5953   0.1511     C
H        0.863   0.1614   0.4884     H
H        0.863   0.4872   0.1614     H
H        0.863   0.4884   0.4872     H
H       0.8728   0.2094   0.6394     H
H       0.8728   0.2784   0.2094     H
H       0.8728   0.6394   0.2784     H
C       0.9057   0.0953   0.6511     C
C       0.9057   0.3479   0.0953     C
C       0.9057   0.6511   0.3479     C
C       0.9112   0.1602   0.6448     C
C       0.9112   0.2838   0.1602     C
C       0.9112   0.6448   0.2838     C
C       0.9203   0.1487   0.3411     C
C       0.9203   0.3411   0.5899     C
C       0.9203   0.5899   0.1487     C
O      0.92459  0.13381  0.28641     O
O      0.92459  0.28641  0.65519     O
O      0.92459  0.65519  0.13381     O
O       0.9734   0.1566   0.3426     O
O       0.9734   0.3426   0.5274     O
O       0.9734   0.5274   0.1566     O
C       0.9747   0.0387   0.6569     C
C       0.9747   0.3297   0.0387     C
C       0.9747   0.6569   0.3297     C
N       0.9801   0.1421   0.6477     N
N       0.9801   0.2301   0.1421     N
N       0.9801   0.6477   0.2301     N
H       0.9872    0.363   0.6614     H
H       0.9872   0.6614   0.9884     H
H       0.9872   0.9884    0.363     H
H       0.9884    0.363   0.9872     H
H       0.9884   0.6614    0.363     H
H       0.9884   0.9872   0.6614     H
