data_I
_chemical_name_common  '/home/zhangsd/repos/MofS-CGCNN/ML/data/TSD/clean_cifs/AFOTUL_clean'
_cell_length_a  8.68760
_cell_length_b 14.16600
_cell_length_c 15.14000
_cell_angle_alpha 115.09300
_cell_angle_beta  106.67300
_cell_angle_gamma 90.00000
_space_group_name_H-M_alt      'P 1'


loop_
_space_group_symop_operation_xyz
  'x, y, z' 

loop_
_atom_site_label
_atom_site_fract_x
_atom_site_fract_y
_atom_site_fract_z
_atom_site_type_symbol
C       0.0161   0.6926   0.1836     C
C       0.0347   0.4505   0.9518     C
H       0.0415   0.3966   0.4836     H
O       0.0636   0.9014   0.5526     O
C       0.0643   0.7015   0.5514     C
H       0.0674   0.2355   0.4878     H
C       0.0734   0.6066   0.5604     C
C       0.0829   0.5495   0.0482     C
C       0.0983   0.3114   0.8094     C
O       0.1075   0.8758   0.3622     O
C       0.1238    0.391   0.5352     C
C       0.1431   0.2939   0.5366     C
C       0.1458    0.403   0.9014     C
H       0.1748   0.2816   0.7774     H
C       0.1751    0.735   0.2344     C
C       0.1979    0.871    0.573     C
C       0.2053   0.7728   0.5888     C
C       0.2179   0.5832    0.608     C
C       0.2219   0.8352    0.333     C
O        0.228   0.0927   0.5196     O
C       0.2303    0.479   0.6128     C
C       0.2444    0.597   0.0986     C
H       0.2539   0.4334     0.93     H
C       0.2718   0.2819   0.6086     C
C       0.2889   0.6886   0.1906     C
C       0.3124   0.1736   0.5998     C
H       0.3239   0.5666     0.07     H
O       0.3271   0.9164   0.5844     O
C       0.3479    0.753    0.641     C
C       0.3525   0.4703   0.6902     C
C        0.355    0.658   0.6502     C
O       0.3694   0.8705   0.3774     O
C       0.3769     0.37   0.6874     C
H       0.3974   0.7184   0.2226     H
H       0.4188   0.5304   0.7444     H
O       0.4333   0.1691   0.6636     O
H       0.4407   0.8022   0.6706     H
H       0.4441   0.2832   0.4792     H
H       0.4461   0.4413   0.4664     H
H       0.4532   0.6451   0.6852     H
H       0.4619   0.3635   0.7376     H
Sm     0.50502  0.00549  0.54568    Sm
O        0.511   0.0986   0.4474     O
C       0.5129   0.2985   0.4486     C
C        0.513   0.3934   0.4396     C
H       0.5579   0.6034   0.5164     H
H       0.5796   0.7645   0.5122     H
C       0.5886    0.609   0.4648     C
C       0.6065   0.7061   0.4634     C
C       0.6099   0.4168    0.392     C
C       0.6165   0.2272   0.4112     C
C       0.6175    0.521   0.3872     C
C       0.6249    0.129    0.427     C
C       0.6623   0.5297   0.3098     C
C       0.6632   0.7181   0.3914     C
H       0.6744   0.4696   0.2556     H
C       0.6895     0.63   0.3126     C
C       0.7048    0.342   0.3498     C
C       0.7069    0.247    0.359     C
O       0.7084   0.9073   0.4804     O
C       0.7126   0.8264   0.4002     C
H       0.7243   0.6365   0.2624     H
H        0.726   0.2744     0.79     H
O       0.7427   0.0836   0.4156     O
O       0.7453   0.1242   0.6378     O
H        0.768   0.3549   0.3148     H
O       0.7697   0.8309   0.3364     O
H       0.7701   0.1978   0.3294     H
H       0.8042   0.4279   0.9402     H
C       0.8325   0.3074   0.8164     C
H        0.864   0.5721   0.0598     H
C       0.8809   0.3998   0.9078     C
C       0.8889   0.1648    0.667     C
H        0.936   0.7256     0.21     H
C       0.9407    0.265   0.7656     C
Sm     0.95934  0.99451  0.45432    Sm
H       0.9649   0.7168   0.5208     H
C       0.9731   0.6002   0.0922     C
H       0.9797   0.5587   0.5336     H
O        0.992   0.1295   0.6226     O
