data_I
_chemical_name_common  '/home/zhangsd/repos/MofS-CGCNN/ML/data/TSD/clean_cifs/AFOVEX_clean'
_cell_length_a  8.78900
_cell_length_b 14.25700
_cell_length_c 15.10920
_cell_angle_alpha 114.93200
_cell_angle_beta  106.90900
_cell_angle_gamma 90.00000
_space_group_name_H-M_alt      'P 1'


loop_
_space_group_symop_operation_xyz
  'x, y, z' 

loop_
_atom_site_label
_atom_site_fract_x
_atom_site_fract_y
_atom_site_fract_z
_atom_site_type_symbol
C       0.0145   0.6905   0.1826     C
C       0.0294   0.4523   0.9516     C
H       0.0517   0.3955   0.4822     H
O       0.0611   0.8965   0.5518     O
C       0.0705   0.6982    0.551     C
H        0.075   0.2354    0.487     H
C       0.0756   0.6038    0.559     C
C       0.0778   0.5477   0.0484     C
C       0.0958   0.3142   0.8114     C
O       0.1122   0.8772    0.361     O
C       0.1326   0.3906    0.535     C
C       0.1466   0.4038   0.9012     C
C       0.1491   0.2937    0.536     C
H       0.1706   0.2847   0.7788     H
C       0.1743   0.7343    0.233     C
C       0.1955   0.8672   0.5738     C
C       0.2031   0.7681   0.5868     C
C       0.2199   0.8334   0.3292     C
C       0.2207   0.5817   0.6058     C
O       0.2324   0.0976   0.5234     O
C       0.2327   0.4775   0.6098     C
C       0.2454   0.5962   0.0988     C
H       0.2539   0.4334     0.93     H
C        0.276   0.2845   0.6102     C
C       0.2844   0.6858   0.1886     C
C       0.3131   0.1772   0.6018     C
O       0.3235   0.9146   0.5856     O
H       0.3239   0.5666     0.07     H
C       0.3508   0.7502   0.6388     C
C       0.3545   0.4709   0.6896     C
C       0.3561    0.654    0.647     C
O       0.3649    0.869   0.3736     O
C       0.3753   0.3699   0.6874     C
H       0.3918   0.7153   0.2212     H
H       0.4209   0.5307   0.7432     H
O       0.4307   0.1717   0.6682     O
H       0.4424   0.7991   0.6672     H
H       0.4492   0.4431   0.4668     H
H       0.4523   0.2867   0.4802     H
H       0.4532   0.6398    0.681     H
H       0.4569   0.3636   0.7392     H
Ce     0.50515  0.00501  0.54654    Ce
O       0.5093   0.1035   0.4482     O
C       0.5166   0.3962    0.441     C
C       0.5195   0.3018    0.449     C
H       0.5695   0.6045   0.5178     H
H        0.588   0.7646    0.513     H
C       0.5976   0.6094    0.465     C
C       0.6131   0.7063    0.464     C
C       0.6149   0.4183   0.3942     C
C       0.6163   0.2319   0.4132     C
C       0.6217   0.1328   0.4262     C
C       0.6229   0.5225   0.3902     C
C       0.6649   0.5291   0.3104     C
C       0.6658   0.7155   0.3898     C
H       0.6777   0.4693   0.2568     H
C       0.6879   0.6301   0.3126     C
O        0.709   0.9024   0.4766     O
C       0.7091    0.346    0.353     C
C       0.7113   0.8228   0.3982     C
C        0.712   0.2498   0.3612     C
H       0.7177   0.6364   0.2608     H
H       0.7249   0.2789   0.7886     H
O       0.7379   0.0854   0.4144     O
O       0.7512   0.1228    0.639     O
O       0.7625   0.8283   0.3318     O
H       0.7722   0.3602    0.319     H
H       0.7752   0.2009   0.3328     H
H        0.808   0.4228    0.946     H
C       0.8319   0.3095   0.8174     C
H        0.862   0.5772    0.054     H
C       0.8812   0.3989   0.9104     C
C       0.8907   0.1666   0.6708     C
H       0.9363   0.7211   0.2114     H
C       0.9413   0.2657    0.767     C
Ce     0.95861  0.99499  0.45346    Ce
C       0.9708   0.6011   0.0896     C
H       0.9721   0.7133   0.5198     H
H       0.9824   0.5569   0.5332     H
O       0.9913    0.131   0.6264     O
