data_I
_chemical_name_common  '/home/zhangsd/repos/MofS-CGCNN/ML/data/TSD/clean_cifs/AHEQAH_clean'
_cell_length_a 21.40300
_cell_length_b 34.25500
_cell_length_c  8.02300
_cell_angle_alpha 90.00000
_cell_angle_beta  90.00000
_cell_angle_gamma 90.00000
_space_group_name_H-M_alt      'P 1'


loop_
_space_group_symop_operation_xyz
  'x, y, z' 

loop_
_atom_site_label
_atom_site_fract_x
_atom_site_fract_y
_atom_site_fract_z
_atom_site_type_symbol
C        0.011   0.2049    0.375     C
C        0.011   0.2951    0.875     C
C        0.012   0.1847    0.663     C
C        0.012   0.3153    0.163     C
H       0.0294   0.2045   0.2674     H
H       0.0294   0.2955   0.7674     H
H       0.0309   0.1706   0.7514     H
H       0.0309   0.3294   0.2514     H
C       0.0388   0.1842    0.505     C
C       0.0388   0.3158    0.005     C
C        0.042    0.706    0.191     C
C        0.042    0.794    0.691     C
C        0.043   0.7262    0.904     C
C        0.043   0.7738    0.404     C
H       0.0604   0.7064   0.2991     H
H       0.0604   0.7936   0.7991     H
H       0.0619   0.7403   0.8152     H
H       0.0619   0.7597   0.3152     H
C       0.0698   0.7267    0.062     C
C       0.0698   0.7733    0.562     C
C       0.0906   0.1638    0.478     C
C       0.0906   0.3362    0.978     C
C         0.13   0.7382    0.144     C
C         0.13   0.7618    0.644     C
C       0.1387   0.1451    0.451     C
C       0.1387   0.3549    0.951     C
O       0.1503   0.7478    0.273     O
O       0.1503   0.7522    0.773     O
H       0.1547   0.0695   0.4729     H
H       0.1547   0.4305   0.9729     H
O        0.188   0.7346    0.028     O
O        0.188   0.7654    0.528     O
C       0.1909   0.1241    0.433     C
C       0.1909   0.3759    0.933     C
C       0.1925   0.0838    0.462     C
C       0.1925   0.4162    0.962     C
C         0.25   0.0233    0.487     C
C         0.25   0.0648    0.475     C
C         0.25    0.142    0.432     C
H         0.25   0.1697   0.4304     H
H         0.25   0.3303   0.9304     H
C         0.25    0.358    0.932     C
C         0.25   0.4352    0.975     C
C         0.25   0.4767    0.987     C
C         0.25    0.513  0.99243     C
C         0.25   0.5556    0.999     C
H         0.25    0.561   0.2523     H
H         0.25   0.5631   0.7472     H
C         0.25   0.5753    0.151     C
C         0.25   0.5765    0.851     C
C         0.25   0.6159    0.154     C
C         0.25   0.6171    0.854     C
H         0.25   0.6293   0.2574     H
H         0.25   0.6314   0.7523     H
C         0.25   0.6368    0.005     C
C         0.25   0.6786    0.019     C
O         0.25   0.6963    0.166     O
O         0.25   0.6971    0.882     O
Ho        0.25   0.7337    0.383    Ho
Ho        0.25   0.7663    0.883    Ho
O         0.25   0.8029    0.382     O
O         0.25   0.8037    0.666     O
C         0.25   0.8214    0.519     C
C         0.25   0.8632    0.505     C
H         0.25   0.8686   0.2523     H
H         0.25   0.8707   0.7574     H
C         0.25   0.8829    0.354     C
C         0.25   0.8841    0.654     C
C         0.25   0.9235    0.351     C
C         0.25   0.9247    0.651     C
H         0.25   0.9369   0.2472     H
H         0.25    0.939   0.7523     H
C         0.25   0.9444    0.499     C
C         0.25    0.987  0.49243     C
C       0.3075   0.0838    0.462     C
C       0.3075   0.4162    0.962     C
C       0.3091   0.1241    0.433     C
C       0.3091   0.3759    0.933     C
O        0.312   0.7346    0.028     O
O        0.312   0.7654    0.528     O
H       0.3453   0.0695   0.4729     H
H       0.3453   0.4305   0.9729     H
O       0.3497   0.7478    0.273     O
O       0.3497   0.7522    0.773     O
C       0.3613   0.1451    0.451     C
C       0.3613   0.3549    0.951     C
C         0.37   0.7382    0.144     C
C         0.37   0.7618    0.644     C
C       0.4094   0.1638    0.478     C
C       0.4094   0.3362    0.978     C
C       0.4302   0.7267    0.062     C
C       0.4302   0.7733    0.562     C
H       0.4381   0.7403   0.8152     H
H       0.4381   0.7597   0.3152     H
H       0.4396   0.7064   0.2991     H
H       0.4396   0.7936   0.7991     H
C        0.457   0.7262    0.904     C
C        0.457   0.7738    0.404     C
C        0.458    0.706    0.191     C
C        0.458    0.794    0.691     C
C       0.4612   0.1842    0.505     C
C       0.4612   0.3158    0.005     C
H       0.4691   0.1706   0.7514     H
H       0.4691   0.3294   0.2514     H
H       0.4706   0.2045   0.2674     H
H       0.4706   0.2955   0.7674     H
C        0.488   0.1847    0.663     C
C        0.488   0.3153    0.163     C
C        0.489   0.2049    0.375     C
C        0.489   0.2951    0.875     C
C        0.511   0.7049    0.875     C
C        0.511   0.7951    0.375     C
C        0.512   0.6847    0.163     C
C        0.512   0.8153    0.663     C
H       0.5294   0.7045   0.7674     H
H       0.5294   0.7955   0.2674     H
H       0.5309   0.6706   0.2514     H
H       0.5309   0.8294   0.7514     H
C       0.5388   0.6842    0.005     C
C       0.5388   0.8158    0.505     C
C        0.542    0.206    0.691     C
C        0.542    0.294    0.191     C
C        0.543   0.2262    0.404     C
C        0.543   0.2738    0.904     C
H       0.5604   0.2064   0.7991     H
H       0.5604   0.2936   0.2991     H
H       0.5619   0.2403   0.3152     H
H       0.5619   0.2597   0.8152     H
C       0.5698   0.2267    0.562     C
C       0.5698   0.2733    0.062     C
C       0.5906   0.6638    0.978     C
C       0.5906   0.8362    0.478     C
C         0.63   0.2382    0.644     C
C         0.63   0.2618    0.144     C
C       0.6387   0.6451    0.951     C
C       0.6387   0.8549    0.451     C
O       0.6503   0.2478    0.773     O
O       0.6503   0.2522    0.273     O
H       0.6547   0.5695   0.9729     H
H       0.6547   0.9305   0.4729     H
O        0.688   0.2346    0.528     O
O        0.688   0.2654    0.028     O
C       0.6909   0.6241    0.933     C
C       0.6909   0.8759    0.433     C
C       0.6925   0.5838    0.962     C
C       0.6925   0.9162    0.462     C
C         0.75    0.013  0.49243     C
C         0.75   0.0556    0.499     C
H         0.75    0.061   0.7523     H
H         0.75   0.0631   0.2472     H
C         0.75   0.0753    0.651     C
C         0.75   0.0765    0.351     C
C         0.75   0.1159    0.654     C
C         0.75   0.1171    0.354     C
H         0.75   0.1293   0.7574     H
H         0.75   0.1314   0.2523     H
C         0.75   0.1368    0.505     C
C         0.75   0.1786    0.519     C
O         0.75   0.1963    0.666     O
O         0.75   0.1971    0.382     O
Ho        0.75   0.2337    0.883    Ho
Ho        0.75   0.2663    0.383    Ho
O         0.75   0.3029    0.882     O
O         0.75   0.3037    0.166     O
C         0.75   0.3214    0.019     C
C         0.75   0.3632    0.005     C
H         0.75   0.3686   0.7523     H
H         0.75   0.3707   0.2574     H
C         0.75   0.3829    0.854     C
C         0.75   0.3841    0.154     C
C         0.75   0.4235    0.851     C
C         0.75   0.4247    0.151     C
H         0.75   0.4369   0.7472     H
H         0.75    0.439   0.2523     H
C         0.75   0.4444    0.999     C
C         0.75    0.487  0.99243     C
C         0.75   0.5233    0.987     C
C         0.75   0.5648    0.975     C
C         0.75    0.642    0.932     C
H         0.75   0.6697   0.9304     H
H         0.75   0.8303   0.4304     H
C         0.75    0.858    0.432     C
C         0.75   0.9352    0.475     C
C         0.75   0.9767    0.487     C
C       0.8075   0.5838    0.962     C
C       0.8075   0.9162    0.462     C
C       0.8091   0.6241    0.933     C
C       0.8091   0.8759    0.433     C
O        0.812   0.2346    0.528     O
O        0.812   0.2654    0.028     O
H       0.8453   0.5695   0.9729     H
H       0.8453   0.9305   0.4729     H
O       0.8497   0.2478    0.773     O
O       0.8497   0.2522    0.273     O
C       0.8613   0.6451    0.951     C
C       0.8613   0.8549    0.451     C
C         0.87   0.2382    0.644     C
C         0.87   0.2618    0.144     C
C       0.9094   0.6638    0.978     C
C       0.9094   0.8362    0.478     C
C       0.9302   0.2267    0.562     C
C       0.9302   0.2733    0.062     C
H       0.9381   0.2403   0.3152     H
H       0.9381   0.2597   0.8152     H
H       0.9396   0.2064   0.7991     H
H       0.9396   0.2936   0.2991     H
C        0.957   0.2262    0.404     C
C        0.957   0.2738    0.904     C
C        0.958    0.206    0.691     C
C        0.958    0.294    0.191     C
C       0.9612   0.6842    0.005     C
C       0.9612   0.8158    0.505     C
H       0.9691   0.6706   0.2514     H
H       0.9691   0.8294   0.7514     H
H       0.9706   0.7045   0.7674     H
H       0.9706   0.7955   0.2674     H
C        0.988   0.6847    0.163     C
C        0.988   0.8153    0.663     C
C        0.989   0.7049    0.875     C
C        0.989   0.7951    0.375     C
