data_I
_chemical_name_common  '/home/zhangsd/repos/MofS-CGCNN/ML/data/TSD/clean_cifs/AJUNOK_clean'
_cell_length_a 16.08500
_cell_length_b 16.08490
_cell_length_c 20.24600
_cell_angle_alpha 90.00000
_cell_angle_beta  90.00000
_cell_angle_gamma 90.00000
_space_group_name_H-M_alt      'P 1'


loop_
_space_group_symop_operation_xyz
  'x, y, z' 

loop_
_atom_site_label
_atom_site_fract_x
_atom_site_fract_y
_atom_site_fract_z
_atom_site_type_symbol
C       0.0124  0.34279  0.15974     C
C       0.0124  0.65721  0.65974     C
C      0.01365   0.4283  0.15864     C
C      0.01365   0.5717  0.65864     C
C       0.0164  0.10884  0.66237     C
C       0.0164  0.89116  0.16237     C
C       0.0183  0.19449  0.66225     C
C       0.0183  0.80551  0.16225     C
H       0.0227   0.1873   0.1037     H
H       0.0227   0.8127   0.6037     H
H       0.0256    0.044    0.104     H
H       0.0256    0.956    0.604     H
H       0.0268   0.2228   0.8556     H
H       0.0268   0.7772   0.3556     H
H        0.029   0.0806   0.8553     H
H        0.029   0.9194   0.3553     H
H       0.0319    0.456   0.3591     H
H       0.0319    0.544   0.8591     H
H       0.0331   0.3139    0.357     H
H       0.0331   0.6861    0.857     H
C       0.0476   0.1604  0.13917     C
C       0.0476   0.8396  0.63917     C
C       0.0488  0.07222  0.13961     C
C       0.0488  0.92778  0.63961     C
O      0.05371   0.3815  0.82641     O
O      0.05371   0.6185  0.32641     O
N      0.07698  0.47368  0.18184     N
N      0.07698  0.52632  0.68184     N
C      0.08014  0.29966  0.18625     C
C      0.08014  0.70034  0.68625     C
N      0.08109  0.23877   0.6862     N
N      0.08109  0.76123   0.1862     N
C      0.08115  0.20758  0.18834     C
C      0.08115  0.79242  0.68834     C
C      0.08256  0.02678  0.19011     C
C      0.08256  0.97322  0.69011     C
C      0.08313  0.06481  0.68921     C
C      0.08313  0.93519  0.18921     C
H        0.084   0.3938   0.9493     H
H        0.084   0.6062   0.4493     H
Cd     0.08708  0.38347  0.67907    Cd
Cd     0.08708  0.61653  0.17907    Cd
O       0.0978   0.3741  0.56024     O
O       0.0978   0.6259  0.06024     O
C      0.11648  0.16282  0.24242     C
C      0.11648  0.83718  0.74242     C
C      0.11693  0.07368  0.24345     C
C      0.11693  0.92632  0.74345     C
H       0.1305   0.3734   0.4388     H
H       0.1305   0.6266   0.9388     H
C      0.13055  0.38293  0.82297     C
C      0.13055  0.61707  0.32297     C
C       0.1416   0.3894  0.94692     C
C       0.1416   0.6106  0.44692     C
C      0.14181  0.43217   0.2068     C
C      0.14181  0.56783   0.7068     C
C       0.1451  0.19699   0.7115     C
C       0.1451  0.80301   0.2115     C
C      0.14557  0.34658  0.20984     C
C      0.14557  0.65342  0.70984     C
C       0.1485  0.11125   0.7137     C
C       0.1485  0.88875   0.2137     C
N      0.14887  0.19663  0.29782     N
N      0.14887  0.80337  0.79782     N
N      0.14927   0.0417  0.29948     N
N      0.14927   0.9583  0.79948     N
H       0.1624   0.3942   0.0455     H
H       0.1624   0.6058   0.5455     H
O      0.17034  0.38395  0.76977     O
O      0.17034  0.61605  0.26977     O
C       0.1744  0.38051   0.5642     C
C       0.1744  0.61949   0.0642     C
S      0.17566  0.12013   0.3445     S
S      0.17566  0.87987   0.8445     S
C      0.18001  0.38316  0.88638     C
C      0.18001  0.61684  0.38638     C
H       0.1866   0.4625   0.2229     H
H       0.1866   0.5375   0.7229     H
C       0.1881   0.3772  0.44123     C
C       0.1881   0.6228  0.94123     C
C       0.1887   0.3893  0.00485     C
C       0.1887   0.6107  0.50485     C
H       0.1897    0.227   0.7285     H
H       0.1897    0.773   0.2285     H
H        0.192   0.3206   0.2277     H
H        0.192   0.6794   0.7277     H
H       0.1947   0.0848   0.7316     H
H       0.1947   0.9152   0.2316     H
H       0.2076   0.3756   0.3429     H
H       0.2076   0.6244   0.8429     H
O      0.20976   0.3859  0.61789     O
O      0.20976   0.6141  0.11789     O
C      0.22597  0.38183  0.50213     C
C      0.22597  0.61817  0.00213     C
C       0.2342   0.3783  0.38363     C
C       0.2342   0.6217  0.88363     C
C       0.2658   0.3783  0.88363     C
C       0.2658   0.6217  0.38363     C
C      0.27403  0.38183  0.00213     C
C      0.27403  0.61817  0.50213     C
O      0.29024   0.3859  0.11789     O
O      0.29024   0.6141  0.61789     O
H       0.2924   0.3756   0.8429     H
H       0.2924   0.6244   0.3429     H
H       0.3053   0.0848   0.2316     H
H       0.3053   0.9152   0.7316     H
H        0.308   0.3206   0.7277     H
H        0.308   0.6794   0.2277     H
H       0.3103    0.227   0.2285     H
H       0.3103    0.773   0.7285     H
C       0.3113   0.3893  0.50485     C
C       0.3113   0.6107  0.00485     C
C       0.3119   0.3772  0.94123     C
C       0.3119   0.6228  0.44123     C
H       0.3134   0.4625   0.7229     H
H       0.3134   0.5375   0.2229     H
C      0.31999  0.38316  0.38638     C
C      0.31999  0.61684  0.88638     C
S      0.32434  0.12013   0.8445     S
S      0.32434  0.87987   0.3445     S
C       0.3256  0.38051   0.0642     C
C       0.3256  0.61949   0.5642     C
O      0.32966  0.38395  0.26977     O
O      0.32966  0.61605  0.76977     O
H       0.3376   0.3942   0.5455     H
H       0.3376   0.6058   0.0455     H
N      0.35073   0.0417  0.79948     N
N      0.35073   0.9583  0.29948     N
N      0.35113  0.19663  0.79782     N
N      0.35113  0.80337  0.29782     N
C       0.3515  0.11125   0.2137     C
C       0.3515  0.88875   0.7137     C
C      0.35443  0.34658  0.70984     C
C      0.35443  0.65342  0.20984     C
C       0.3549  0.19699   0.2115     C
C       0.3549  0.80301   0.7115     C
C      0.35819  0.43217   0.7068     C
C      0.35819  0.56783   0.2068     C
C       0.3584   0.3894  0.44692     C
C       0.3584   0.6106  0.94692     C
C      0.36945  0.38293  0.32297     C
C      0.36945  0.61707  0.82297     C
H       0.3695   0.3734   0.9388     H
H       0.3695   0.6266   0.4388     H
C      0.38307  0.07368  0.74345     C
C      0.38307  0.92632  0.24345     C
C      0.38352  0.16282  0.74242     C
C      0.38352  0.83718  0.24242     C
O       0.4022   0.3741  0.06024     O
O       0.4022   0.6259  0.56024     O
Cd     0.41292  0.38347  0.17907    Cd
Cd     0.41292  0.61653  0.67907    Cd
H        0.416   0.3938   0.4493     H
H        0.416   0.6062   0.9493     H
C      0.41687  0.06481  0.18921     C
C      0.41687  0.93519  0.68921     C
C      0.41744  0.02678  0.69011     C
C      0.41744  0.97322  0.19011     C
C      0.41885  0.20758  0.68834     C
C      0.41885  0.79242  0.18834     C
N      0.41891  0.23877   0.1862     N
N      0.41891  0.76123   0.6862     N
C      0.41986  0.29966  0.68625     C
C      0.41986  0.70034  0.18625     C
N      0.42302  0.47368  0.68184     N
N      0.42302  0.52632  0.18184     N
O      0.44629   0.3815  0.32641     O
O      0.44629   0.6185  0.82641     O
C       0.4512  0.07222  0.63961     C
C       0.4512  0.92778  0.13961     C
C       0.4524   0.1604  0.63917     C
C       0.4524   0.8396  0.13917     C
H       0.4669   0.3139    0.857     H
H       0.4669   0.6861    0.357     H
H       0.4681    0.456   0.8591     H
H       0.4681    0.544   0.3591     H
H        0.471   0.0806   0.3553     H
H        0.471   0.9194   0.8553     H
H       0.4732   0.2228   0.3556     H
H       0.4732   0.7772   0.8556     H
H       0.4744    0.044    0.604     H
H       0.4744    0.956    0.104     H
H       0.4773   0.1873   0.6037     H
H       0.4773   0.8127   0.1037     H
C       0.4817  0.19449  0.16225     C
C       0.4817  0.80551  0.66225     C
C       0.4836  0.10884  0.16237     C
C       0.4836  0.89116  0.66237     C
C      0.48635   0.4283  0.65864     C
C      0.48635   0.5717  0.15864     C
C       0.4876  0.34279  0.65974     C
C       0.4876  0.65721  0.15974     C
C       0.5124  0.34279  0.84026     C
C       0.5124  0.65721  0.34026     C
C      0.51365   0.4283  0.84136     C
C      0.51365   0.5717  0.34136     C
C       0.5164  0.10884  0.33763     C
C       0.5164  0.89116  0.83763     C
C       0.5183  0.19449  0.33775     C
C       0.5183  0.80551  0.83775     C
H       0.5227   0.1873   0.8963     H
H       0.5227   0.8127   0.3963     H
H       0.5256    0.044    0.896     H
H       0.5256    0.956    0.396     H
H       0.5268   0.2228   0.1444     H
H       0.5268   0.7772   0.6444     H
H        0.529   0.0806   0.1447     H
H        0.529   0.9194   0.6447     H
H       0.5319    0.456   0.6409     H
H       0.5319    0.544   0.1409     H
H       0.5331   0.3139    0.643     H
H       0.5331   0.6861    0.143     H
C       0.5476   0.1604  0.86083     C
C       0.5476   0.8396  0.36083     C
C       0.5488  0.07222  0.86039     C
C       0.5488  0.92778  0.36039     C
O      0.55371   0.3815  0.17359     O
O      0.55371   0.6185  0.67359     O
N      0.57698  0.47368  0.81816     N
N      0.57698  0.52632  0.31816     N
C      0.58014  0.29966  0.81375     C
C      0.58014  0.70034  0.31375     C
N      0.58109  0.23877   0.3138     N
N      0.58109  0.76123   0.8138     N
C      0.58115  0.20758  0.81166     C
C      0.58115  0.79242  0.31166     C
C      0.58256  0.02678  0.80989     C
C      0.58256  0.97322  0.30989     C
C      0.58313  0.06481  0.31079     C
C      0.58313  0.93519  0.81079     C
H        0.584   0.3938   0.0507     H
H        0.584   0.6062   0.5507     H
Cd     0.58708  0.38347  0.32093    Cd
Cd     0.58708  0.61653  0.82093    Cd
O       0.5978   0.3741  0.43976     O
O       0.5978   0.6259  0.93976     O
C      0.61648  0.16282  0.75758     C
C      0.61648  0.83718  0.25758     C
C      0.61693  0.07368  0.75655     C
C      0.61693  0.92632  0.25655     C
H       0.6305   0.3734   0.5612     H
H       0.6305   0.6266   0.0612     H
C      0.63055  0.38293  0.17703     C
C      0.63055  0.61707  0.67703     C
C       0.6416   0.3894  0.05308     C
C       0.6416   0.6106  0.55308     C
C      0.64181  0.43217   0.7932     C
C      0.64181  0.56783   0.2932     C
C       0.6451  0.19699   0.2885     C
C       0.6451  0.80301   0.7885     C
C      0.64557  0.34658  0.79016     C
C      0.64557  0.65342  0.29016     C
C       0.6485  0.11125   0.2863     C
C       0.6485  0.88875   0.7863     C
N      0.64887  0.19663  0.70218     N
N      0.64887  0.80337  0.20218     N
N      0.64927   0.0417  0.70052     N
N      0.64927   0.9583  0.20052     N
H       0.6624   0.3942   0.9545     H
H       0.6624   0.6058   0.4545     H
O      0.67034  0.38395  0.23023     O
O      0.67034  0.61605  0.73023     O
C       0.6744  0.38051   0.4358     C
C       0.6744  0.61949   0.9358     C
S      0.67566  0.12013   0.6555     S
S      0.67566  0.87987   0.1555     S
C      0.68001  0.38316  0.11362     C
C      0.68001  0.61684  0.61362     C
H       0.6866   0.4625   0.7771     H
H       0.6866   0.5375   0.2771     H
C       0.6881   0.3772  0.55877     C
C       0.6881   0.6228  0.05877     C
C       0.6887   0.3893  0.99515     C
C       0.6887   0.6107  0.49515     C
H       0.6897    0.227   0.2715     H
H       0.6897    0.773   0.7715     H
H        0.692   0.3206   0.7723     H
H        0.692   0.6794   0.2723     H
H       0.6947   0.0848   0.2684     H
H       0.6947   0.9152   0.7684     H
H       0.7076   0.3756   0.6571     H
H       0.7076   0.6244   0.1571     H
O      0.70976   0.3859  0.38211     O
O      0.70976   0.6141  0.88211     O
C      0.72597  0.38183  0.49787     C
C      0.72597  0.61817  0.99787     C
C       0.7342   0.3783  0.61637     C
C       0.7342   0.6217  0.11637     C
C       0.7658   0.3783  0.11637     C
C       0.7658   0.6217  0.61637     C
C      0.77403  0.38183  0.99787     C
C      0.77403  0.61817  0.49787     C
O      0.79024   0.3859  0.88211     O
O      0.79024   0.6141  0.38211     O
H       0.7924   0.3756   0.1571     H
H       0.7924   0.6244   0.6571     H
H       0.8053   0.0848   0.7684     H
H       0.8053   0.9152   0.2684     H
H        0.808   0.3206   0.2723     H
H        0.808   0.6794   0.7723     H
H       0.8103    0.227   0.7715     H
H       0.8103    0.773   0.2715     H
C       0.8113   0.3893  0.49515     C
C       0.8113   0.6107  0.99515     C
C       0.8119   0.3772  0.05877     C
C       0.8119   0.6228  0.55877     C
H       0.8134   0.4625   0.2771     H
H       0.8134   0.5375   0.7771     H
C      0.81999  0.38316  0.61362     C
C      0.81999  0.61684  0.11362     C
S      0.82434  0.12013   0.1555     S
S      0.82434  0.87987   0.6555     S
C       0.8256  0.38051   0.9358     C
C       0.8256  0.61949   0.4358     C
O      0.82966  0.38395  0.73023     O
O      0.82966  0.61605  0.23023     O
H       0.8376   0.3942   0.4545     H
H       0.8376   0.6058   0.9545     H
N      0.85073   0.0417  0.20052     N
N      0.85073   0.9583  0.70052     N
N      0.85113  0.19663  0.20218     N
N      0.85113  0.80337  0.70218     N
C       0.8515  0.11125   0.7863     C
C       0.8515  0.88875   0.2863     C
C      0.85443  0.34658  0.29016     C
C      0.85443  0.65342  0.79016     C
C       0.8549  0.19699   0.7885     C
C       0.8549  0.80301   0.2885     C
C      0.85819  0.43217   0.2932     C
C      0.85819  0.56783   0.7932     C
C       0.8584   0.3894  0.55308     C
C       0.8584   0.6106  0.05308     C
C      0.86945  0.38293  0.67703     C
C      0.86945  0.61707  0.17703     C
H       0.8695   0.3734   0.0612     H
H       0.8695   0.6266   0.5612     H
C      0.88307  0.07368  0.25655     C
C      0.88307  0.92632  0.75655     C
C      0.88352  0.16282  0.25758     C
C      0.88352  0.83718  0.75758     C
O       0.9022   0.3741  0.93976     O
O       0.9022   0.6259  0.43976     O
Cd     0.91292  0.38347  0.82093    Cd
Cd     0.91292  0.61653  0.32093    Cd
H        0.916   0.3938   0.5507     H
H        0.916   0.6062   0.0507     H
C      0.91687  0.06481  0.81079     C
C      0.91687  0.93519  0.31079     C
C      0.91744  0.02678  0.30989     C
C      0.91744  0.97322  0.80989     C
C      0.91885  0.20758  0.31166     C
C      0.91885  0.79242  0.81166     C
N      0.91891  0.23877   0.8138     N
N      0.91891  0.76123   0.3138     N
C      0.91986  0.29966  0.31375     C
C      0.91986  0.70034  0.81375     C
N      0.92302  0.47368  0.31816     N
N      0.92302  0.52632  0.81816     N
O      0.94629   0.3815  0.67359     O
O      0.94629   0.6185  0.17359     O
C       0.9512  0.07222  0.36039     C
C       0.9512  0.92778  0.86039     C
C       0.9524   0.1604  0.36083     C
C       0.9524   0.8396  0.86083     C
H       0.9669   0.3139    0.143     H
H       0.9669   0.6861    0.643     H
H       0.9681    0.456   0.1409     H
H       0.9681    0.544   0.6409     H
H        0.971   0.0806   0.6447     H
H        0.971   0.9194   0.1447     H
H       0.9732   0.2228   0.6444     H
H       0.9732   0.7772   0.1444     H
H       0.9744    0.044    0.396     H
H       0.9744    0.956    0.896     H
H       0.9773   0.1873   0.3963     H
H       0.9773   0.8127   0.8963     H
C       0.9817  0.19449  0.83775     C
C       0.9817  0.80551  0.33775     C
C       0.9836  0.10884  0.83763     C
C       0.9836  0.89116  0.33763     C
C      0.98635   0.4283  0.34136     C
C      0.98635   0.5717  0.84136     C
C       0.9876  0.34279  0.34026     C
C       0.9876  0.65721  0.84026     C
