data_I
_chemical_name_common  '/home/zhangsd/repos/MofS-CGCNN/ML/data/TSD/clean_cifs/ALAHUS_clean'
_cell_length_a 14.23400
_cell_length_b 14.23400
_cell_length_c 63.76000
_cell_angle_alpha 90.00000
_cell_angle_beta  90.00000
_cell_angle_gamma 90.00000
_space_group_name_H-M_alt      'P 1'


loop_
_space_group_symop_operation_xyz
  'x, y, z' 

loop_
_atom_site_label
_atom_site_fract_x
_atom_site_fract_y
_atom_site_fract_z
_atom_site_type_symbol
Tb         0.0      0.0  0.29059    Tb
H          0.0      0.0   0.4271     H
C          0.0      0.0   0.4417     C
C          0.0      0.0   0.5583     C
H          0.0      0.0   0.5729     H
Tb         0.0      0.0  0.70941    Tb
Tb         0.0      0.5  0.54059    Tb
H          0.0      0.5   0.6771     H
C          0.0      0.5   0.6917     C
C          0.0      0.5   0.8083     C
H          0.0      0.5   0.8229     H
Tb         0.0      0.5  0.95941    Tb
O       0.0052   0.6127  0.93022     O
O       0.0052   0.8873  0.31978     O
H       0.0064   0.0904   0.9709     H
H       0.0064   0.4096   0.2791     H
O       0.0072   0.6762  0.65221     O
O       0.0072   0.8238  0.59779     O
O       0.0107   0.5752  0.69945     O
O       0.0107   0.9248  0.55055     O
Tb     0.01677  0.22408   0.5618    Tb
Tb     0.01677  0.27592   0.6882    Tb
C       0.0205   0.6488  0.32588     C
C       0.0205   0.8512  0.92412     C
C       0.0223   0.1177  0.95813     C
C       0.0223   0.3823  0.29187     C
H       0.0387   0.6243   0.6158     H
H       0.0387   0.8757   0.6342     H
O       0.0391   0.6309  0.57182     O
O       0.0391   0.8691  0.67818     O
N       0.0402   0.6056   0.3078     N
N       0.0402   0.8944   0.9422     N
H       0.0409   0.6662   0.2337     H
H       0.0409   0.8338   0.0163     H
H       0.0465   0.7164   0.9907     H
H       0.0465   0.7836   0.2593     H
H       0.0645   0.6475   0.3366     H
H       0.0645   0.8525   0.9134     H
C       0.0698   0.1989  0.92074     C
C       0.0698   0.3011  0.32926     C
C       0.0709   0.0991  0.32854     C
C       0.0709   0.4009  0.92146     C
O       0.0752   0.0107  0.44945     O
O       0.0752   0.4893  0.80055     O
C       0.0871    0.249  0.90116     C
C       0.0871    0.251  0.34884     C
H       0.0904   0.5064   0.2209     H
H       0.0904   0.9936   0.0291     H
C       0.0923   0.6671  0.65407     C
C       0.0923   0.8329  0.59593     C
O       0.0927   0.1282  0.71549     O
O       0.0927   0.3718  0.53451     O
O       0.0934   0.7452   0.5357     O
O       0.0934   0.7548   0.7143     O
C       0.0939   0.1517  0.34855     C
C       0.0939   0.3483  0.90145     C
O       0.0941   0.1283  0.27997     O
O       0.0941   0.3717  0.97003     O
C       0.0978   0.6951   0.2368     C
C       0.0978   0.8049   0.0132     C
C       0.0991   0.5709  0.57854     C
C       0.0991   0.9291  0.67146     C
C       0.1014   0.7373  0.99709     C
C       0.1014   0.7627  0.25291     C
H       0.1038   0.1387   0.8812     H
H       0.1038   0.3613   0.3688     H
C       0.1038   0.6189  0.61616     C
C       0.1038   0.8811  0.63384     C
C       0.1054    0.165  0.95755     C
C       0.1054    0.335  0.29245     C
N       0.1056   0.0402   0.0578     N
C       0.1056    0.204  0.88191     C
C       0.1056    0.296  0.36809     C
N       0.1056   0.4598   0.1922     N
O       0.1116    0.219    0.532     O
O       0.1116    0.281    0.718     O
O       0.1127   0.0052  0.68022     O
O       0.1127   0.4948  0.56978     O
C       0.1177   0.5223  0.20813     C
C       0.1177   0.9777  0.04187     C
C       0.1189   0.1038  0.36616     C
C       0.1189   0.3962  0.88384     C
H       0.1243   0.0387   0.3658     H
H       0.1243   0.4613   0.8842     H
C       0.1259   0.2467  0.38553     C
C       0.1259   0.2533  0.86447     C
O       0.1282   0.5927  0.96549     O
O       0.1282   0.9073  0.28451     O
O       0.1283   0.5941  0.52997     O
O       0.1283   0.9059  0.72003     O
O       0.1309   0.0391  0.32182     O
O       0.1309   0.4609  0.92818     O
C       0.1312   0.2065  0.93793     C
C       0.1312   0.2935  0.31207     C
C       0.1326   0.2009   0.7237     C
C       0.1326   0.2991   0.5263     C
H       0.1329   0.2226   0.8517     H
H       0.1329   0.2774   0.3983     H
O       0.1361    0.682  0.67077     O
O       0.1361    0.818  0.57923     O
C       0.1362   0.1509  0.38441     C
C       0.1362   0.3491  0.86559     C
H       0.1387   0.6038   0.1312     H
H       0.1387   0.8962   0.1188     H
C       0.1459   0.6795  0.52882     C
C       0.1459   0.8205  0.72118     C
H       0.1475   0.0645   0.0866     H
H       0.1475   0.4355   0.1634     H
C       0.1488   0.0205  0.07588     C
C       0.1488   0.4795  0.17412     C
C       0.1509   0.6362  0.63441     C
C       0.1509   0.8638  0.61559     C
C       0.1517   0.5939  0.59855     C
C       0.1517   0.9061  0.65145     C
C        0.165   0.6054  0.20755     C
C        0.165   0.8946  0.04245     C
H       0.1662   0.0409   0.9837     H
H       0.1662   0.4591   0.2663     H
C       0.1671   0.0923  0.40407     C
C       0.1671   0.4077  0.84593     C
C       0.1714   0.1756  0.97582     C
C       0.1714   0.3244  0.27418     C
C       0.1756   0.6714  0.22582     C
C       0.1756   0.8286  0.02418     C
O       0.1762   0.0072  0.40221     O
O       0.1762   0.4928  0.84779     O
H       0.1787   0.6991   0.7499     H
H       0.1787   0.8009   0.5001     H
C       0.1795   0.1459  0.27882     C
C       0.1795   0.3541  0.97118     C
O        0.182   0.1361  0.42077     O
O        0.182   0.3639  0.82923     O
C       0.1848   0.7038   0.9912     C
C       0.1848   0.7962   0.2588     C
H        0.188   0.2382   0.9366     H
H        0.188   0.2618   0.3134     H
C       0.1951   0.0978   0.9868     C
C       0.1951   0.4022   0.2632     C
C       0.1989   0.5698  0.17074     C
C       0.1989   0.9302  0.07926     C
H       0.1991   0.1787   0.4999     H
H       0.1991   0.3213   0.7501     H
C       0.2009   0.6326   0.9737     C
C       0.2009   0.8674   0.2763     C
C       0.2038   0.1848   0.7412     C
C       0.2038   0.3152   0.5088     C
C        0.204   0.6056  0.13191     C
C        0.204   0.8944  0.11809     C
C       0.2065   0.6312  0.18793     C
C       0.2065   0.8688  0.06207     C
C       0.2073   0.2371  0.26861     C
C       0.2073   0.2629  0.98139     C
H       0.2164   0.0465   0.7407     H
H       0.2164   0.4535   0.5093     H
O        0.219   0.6116    0.782     O
O        0.219   0.8884    0.468     O
H       0.2226   0.6329   0.1017     H
H       0.2226   0.8671   0.1483     H
Tb     0.22408  0.51677   0.8118    Tb
Tb     0.22408  0.98323   0.4382    Tb
C       0.2286   0.2354   0.4969     C
C       0.2286   0.2646   0.7531     C
C       0.2354   0.7286   0.7469     C
C       0.2354   0.7714   0.5031     C
C       0.2371   0.7073  0.51861     C
C       0.2371   0.7927  0.73139     C
C       0.2373   0.1014  0.74709     C
C       0.2373   0.3986  0.50291     C
H       0.2382    0.688   0.1866     H
H       0.2382    0.812   0.0634     H
O       0.2452   0.0934   0.2857     O
O       0.2452   0.4066   0.9643     O
C       0.2467   0.6259  0.63553     C
C       0.2467   0.8741  0.61447     C
C        0.249   0.5871  0.15116     C
C        0.249   0.9129  0.09884     C
C        0.251   0.5871  0.59884     C
C        0.251   0.9129  0.65116     C
C       0.2533   0.6259  0.11447     C
C       0.2533   0.8741  0.13553     C
O       0.2548   0.0934   0.4643     O
O       0.2548   0.4066   0.7857     O
H       0.2618    0.688   0.5634     H
H       0.2618    0.812   0.6866     H
C       0.2627   0.1014  0.00291     C
C       0.2627   0.3986  0.24709     C
C       0.2629   0.7073  0.23139     C
C       0.2629   0.7927  0.01861     C
C       0.2646   0.7286   0.0031     C
C       0.2646   0.7714   0.2469     C
C       0.2714   0.2354   0.2531     C
C       0.2714   0.2646   0.9969     C
Tb     0.27592  0.51677   0.9382    Tb
Tb     0.27592  0.98323   0.3118    Tb
H       0.2774   0.6329   0.6483     H
H       0.2774   0.8671   0.6017     H
O        0.281   0.6116    0.968     O
O        0.281   0.8884    0.282     O
H       0.2836   0.0465   0.0093     H
H       0.2836   0.4535   0.2407     H
C       0.2927   0.2371  0.48139     C
C       0.2927   0.2629  0.76861     C
C       0.2935   0.6312  0.56207     C
C       0.2935   0.8688  0.68793     C
C        0.296   0.6056  0.61809     C
C        0.296   0.8944  0.63191     C
C       0.2962   0.1848   0.0088     C
C       0.2962   0.3152   0.2412     C
C       0.2991   0.6326   0.7763     C
C       0.2991   0.8674   0.4737     C
H       0.3009   0.1787   0.2501     H
H       0.3009   0.3213   0.9999     H
C       0.3011   0.5698  0.57926     C
C       0.3011   0.9302  0.67074     C
C       0.3049   0.0978   0.7632     C
C       0.3049   0.4022   0.4868     C
H        0.312   0.2382   0.8134     H
H        0.312   0.2618   0.4366     H
C       0.3152   0.7038   0.7588     C
C       0.3152   0.7962   0.4912     C
O        0.318   0.1361  0.32923     O
O        0.318   0.3639  0.92077     O
C       0.3205   0.1459  0.47118     C
C       0.3205   0.3541  0.77882     C
H       0.3213   0.6991   0.0001     H
H       0.3213   0.8009   0.2499     H
O       0.3238   0.0072  0.34779     O
O       0.3238   0.4928  0.90221     O
C       0.3244   0.6714  0.52418     C
C       0.3244   0.8286  0.72582     C
C       0.3286   0.1756  0.77418     C
C       0.3286   0.3244  0.47582     C
C       0.3329   0.0923  0.34593     C
C       0.3329   0.4077  0.90407     C
H       0.3338   0.0409   0.7663     H
H       0.3338   0.4591   0.4837     H
C        0.335   0.6054  0.54245     C
C        0.335   0.8946  0.70755     C
C       0.3483   0.5939  0.15145     C
C       0.3483   0.9061  0.09855     C
C       0.3491   0.6362  0.11559     C
C       0.3491   0.8638  0.13441     C
C       0.3512   0.0205  0.67412     C
C       0.3512   0.4795  0.57588     C
H       0.3525   0.0645   0.6634     H
H       0.3525   0.4355   0.5866     H
C       0.3541   0.6795  0.22118     C
C       0.3541   0.8205  0.02882     C
H       0.3613   0.6038   0.6188     H
H       0.3613   0.8962   0.6312     H
C       0.3638   0.1509  0.36559     C
C       0.3638   0.3491  0.88441     C
O       0.3639    0.682  0.07923     O
O       0.3639    0.818  0.17077     O
H       0.3671   0.2226   0.8983     H
H       0.3671   0.2774   0.3517     H
C       0.3674   0.2009   0.0263     C
C       0.3674   0.2991   0.2237     C
C       0.3688   0.2065  0.81207     C
C       0.3688   0.2935  0.43793     C
O       0.3691   0.0391  0.42818     O
O       0.3691   0.4609  0.82182     O
O       0.3717   0.5941  0.22003     O
O       0.3717   0.9059  0.02997     O
O       0.3718   0.5927  0.78451     O
O       0.3718   0.9073  0.46549     O
C       0.3741   0.2467  0.36447     C
C       0.3741   0.2533  0.88553     C
H       0.3757   0.0387   0.3842     H
H       0.3757   0.4613   0.8658     H
C       0.3811   0.1038  0.38384     C
C       0.3811   0.3962  0.86616     C
C       0.3823   0.5223  0.54187     C
C       0.3823   0.9777  0.70813     C
O       0.3873   0.0052  0.06978     O
O       0.3873   0.4948  0.18022     O
O       0.3884    0.219    0.218     O
O       0.3884    0.281    0.032     O
N       0.3944   0.0402   0.6922     N
C       0.3944    0.204  0.86809     C
C       0.3944    0.296  0.38191     C
N       0.3944   0.4598   0.5578     N
C       0.3946    0.165  0.79245     C
C       0.3946    0.335  0.45755     C
H       0.3962   0.1387   0.8688     H
H       0.3962   0.3613   0.3812     H
C       0.3962   0.6189  0.13384     C
C       0.3962   0.8811  0.11616     C
C       0.3986   0.7373  0.75291     C
C       0.3986   0.7627  0.49709     C
C       0.4009   0.5709  0.17146     C
C       0.4009   0.9291  0.07854     C
C       0.4022   0.6951   0.5132     C
C       0.4022   0.8049   0.7368     C
O       0.4059   0.1283  0.47003     O
O       0.4059   0.3717  0.77997     O
C       0.4061   0.1517  0.40145     C
C       0.4061   0.3483  0.84855     C
O       0.4066   0.7452   0.2143     O
O       0.4066   0.7548   0.0357     O
O       0.4073   0.1282  0.03451     O
O       0.4073   0.3718  0.21549     O
C       0.4077   0.6671  0.09593     C
C       0.4077   0.8329  0.15407     C
H       0.4096   0.5064   0.5291     H
H       0.4096   0.9936   0.7209     H
C       0.4129    0.249  0.84884     C
C       0.4129    0.251  0.40116     C
O       0.4248   0.0107  0.30055     O
O       0.4248   0.4893  0.94945     O
C       0.4291   0.0991  0.42146     C
C       0.4291   0.4009  0.82854     C
C       0.4302   0.1989  0.82926     C
C       0.4302   0.3011  0.42074     C
H       0.4355   0.6475   0.4134     H
H       0.4355   0.8525   0.8366     H
H       0.4535   0.7164   0.7593     H
H       0.4535   0.7836   0.4907     H
H       0.4591   0.6662   0.5163     H
H       0.4591   0.8338   0.7337     H
N       0.4598   0.6056   0.4422     N
N       0.4598   0.8944   0.8078     N
O       0.4609   0.6309  0.17818     O
O       0.4609   0.8691  0.07182     O
H       0.4613   0.6243   0.1342     H
H       0.4613   0.8757   0.1158     H
C       0.4777   0.1177  0.79187     C
C       0.4777   0.3823  0.45813     C
C       0.4795   0.6488  0.42412     C
C       0.4795   0.8512  0.82588     C
Tb     0.48323  0.22408   0.1882    Tb
Tb     0.48323  0.27592   0.0618    Tb
O       0.4893   0.5752  0.05055     O
O       0.4893   0.9248  0.19945     O
O       0.4928   0.6762  0.09779     O
O       0.4928   0.8238  0.15221     O
H       0.4936   0.0904   0.7791     H
H       0.4936   0.4096   0.4709     H
O       0.4948   0.6127  0.81978     O
O       0.4948   0.8873  0.43022     O
Tb         0.5      0.0  0.04059    Tb
H          0.5      0.0   0.1771     H
C          0.5      0.0   0.1917     C
C          0.5      0.0   0.3083     C
H          0.5      0.0   0.3229     H
Tb         0.5      0.0  0.45941    Tb
C          0.5      0.5   0.0583     C
H          0.5      0.5   0.0729     H
Tb         0.5      0.5  0.20941    Tb
Tb         0.5      0.5  0.79059    Tb
H          0.5      0.5   0.9271     H
C          0.5      0.5   0.9417     C
O       0.5052   0.1127  0.43022     O
O       0.5052   0.3873  0.81978     O
H       0.5064   0.5904   0.4709     H
H       0.5064   0.9096   0.7791     H
O       0.5072   0.1762  0.15221     O
O       0.5072   0.3238  0.09779     O
O       0.5107   0.0752  0.19945     O
O       0.5107   0.4248  0.05055     O
Tb     0.51677  0.72408   0.0618    Tb
Tb     0.51677  0.77592   0.1882    Tb
C       0.5205   0.1488  0.82588     C
C       0.5205   0.3512  0.42412     C
C       0.5223   0.6177  0.45813     C
C       0.5223   0.8823  0.79187     C
H       0.5387   0.1243   0.1158     H
H       0.5387   0.3757   0.1342     H
O       0.5391   0.1309  0.07182     O
O       0.5391   0.3691  0.17818     O
N       0.5402   0.1056   0.8078     N
N       0.5402   0.3944   0.4422     N
H       0.5409   0.1662   0.7337     H
H       0.5409   0.3338   0.5163     H
H       0.5465   0.2164   0.4907     H
H       0.5465   0.2836   0.7593     H
H       0.5645   0.1475   0.8366     H
H       0.5645   0.3525   0.4134     H
C       0.5698   0.6989  0.42074     C
C       0.5698   0.8011  0.82926     C
C       0.5709   0.5991  0.82854     C
C       0.5709   0.9009  0.42146     C
O       0.5752   0.5107  0.94945     O
O       0.5752   0.9893  0.30055     O
C       0.5871    0.749  0.40116     C
C       0.5871    0.751  0.84884     C
H       0.5904   0.0064   0.7209     H
H       0.5904   0.4936   0.5291     H
C       0.5923   0.1671  0.15407     C
C       0.5923   0.3329  0.09593     C
O       0.5927   0.6282  0.21549     O
O       0.5927   0.8718  0.03451     O
O       0.5934   0.2452   0.0357     O
O       0.5934   0.2548   0.2143     O
C       0.5939   0.6517  0.84855     C
C       0.5939   0.8483  0.40145     C
O       0.5941   0.6283  0.77997     O
O       0.5941   0.8717  0.47003     O
C       0.5978   0.1951   0.7368     C
C       0.5978   0.3049   0.5132     C
C       0.5991   0.0709  0.07854     C
C       0.5991   0.4291  0.17146     C
C       0.6014   0.2373  0.49709     C
C       0.6014   0.2627  0.75291     C
C       0.6038   0.1189  0.11616     C
C       0.6038   0.3811  0.13384     C
H       0.6038   0.6387   0.3812     H
H       0.6038   0.8613   0.8688     H
C       0.6054    0.665  0.45755     C
C       0.6054    0.835  0.79245     C
N       0.6056   0.5402   0.5578     N
C       0.6056    0.704  0.38191     C
C       0.6056    0.796  0.86809     C
N       0.6056   0.9598   0.6922     N
O       0.6116    0.719    0.032     O
O       0.6116    0.781    0.218     O
O       0.6127   0.5052  0.18022     O
O       0.6127   0.9948  0.06978     O
C       0.6177   0.0223  0.70813     C
C       0.6177   0.4777  0.54187     C
C       0.6189   0.6038  0.86616     C
C       0.6189   0.8962  0.38384     C
H       0.6243   0.5387   0.8658     H
H       0.6243   0.9613   0.3842     H
C       0.6259   0.7467  0.88553     C
C       0.6259   0.7533  0.36447     C
O       0.6282   0.0927  0.46549     O
O       0.6282   0.4073  0.78451     O
O       0.6283   0.0941  0.02997     O
O       0.6283   0.4059  0.22003     O
O       0.6309   0.5391  0.82182     O
O       0.6309   0.9609  0.42818     O
C       0.6312   0.7065  0.43793     C
C       0.6312   0.7935  0.81207     C
C       0.6326   0.7009   0.2237     C
C       0.6326   0.7991   0.0263     C
H       0.6329   0.7226   0.3517     H
H       0.6329   0.7774   0.8983     H
O       0.6361    0.182  0.17077     O
O       0.6361    0.318  0.07923     O
C       0.6362   0.6509  0.88441     C
C       0.6362   0.8491  0.36559     C
H       0.6387   0.1038   0.6312     H
H       0.6387   0.3962   0.6188     H
C       0.6459   0.1795  0.02882     C
C       0.6459   0.3205  0.22118     C
H       0.6475   0.5645   0.5866     H
H       0.6475   0.9355   0.6634     H
C       0.6488   0.5205  0.57588     C
C       0.6488   0.9795  0.67412     C
C       0.6509   0.1362  0.13441     C
C       0.6509   0.3638  0.11559     C
C       0.6517   0.0939  0.09855     C
C       0.6517   0.4061  0.15145     C
C        0.665   0.1054  0.70755     C
C        0.665   0.3946  0.54245     C
H       0.6662   0.5409   0.4837     H
H       0.6662   0.9591   0.7663     H
C       0.6671   0.5923  0.90407     C
C       0.6671   0.9077  0.34593     C
C       0.6714   0.6756  0.47582     C
C       0.6714   0.8244  0.77418     C
C       0.6756   0.1714  0.72582     C
C       0.6756   0.3286  0.52418     C
O       0.6762   0.5072  0.90221     O
O       0.6762   0.9928  0.34779     O
H       0.6787   0.1991   0.2499     H
H       0.6787   0.3009   0.0001     H
C       0.6795   0.6459  0.77882     C
C       0.6795   0.8541  0.47118     C
O        0.682   0.6361  0.92077     O
O        0.682   0.8639  0.32923     O
C       0.6848   0.2038   0.4912     C
C       0.6848   0.2962   0.7588     C
H        0.688   0.7382   0.4366     H
H        0.688   0.7618   0.8134     H
C       0.6951   0.5978   0.4868     C
C       0.6951   0.9022   0.7632     C
C       0.6989   0.0698  0.67074     C
C       0.6989   0.4302  0.57926     C
H       0.6991   0.6787   0.9999     H
H       0.6991   0.8213   0.2501     H
C       0.7009   0.1326   0.4737     C
C       0.7009   0.3674   0.7763     C
C       0.7038   0.6848   0.2412     C
C       0.7038   0.8152   0.0088     C
C        0.704   0.1056  0.63191     C
C        0.704   0.3944  0.61809     C
C       0.7065   0.1312  0.68793     C
C       0.7065   0.3688  0.56207     C
C       0.7073   0.7371  0.76861     C
C       0.7073   0.7629  0.48139     C
H       0.7164   0.5465   0.2407     H
H       0.7164   0.9535   0.0093     H
O        0.719   0.1116    0.282     O
O        0.719   0.3884    0.968     O
H       0.7226   0.1329   0.6017     H
H       0.7226   0.3671   0.6483     H
Tb     0.72408  0.01677   0.3118    Tb
Tb     0.72408  0.48323   0.9382    Tb
C       0.7286   0.7354   0.9969     C
C       0.7286   0.7646   0.2531     C
C       0.7354   0.2286   0.2469     C
C       0.7354   0.2714   0.0031     C
C       0.7371   0.2073  0.01861     C
C       0.7371   0.2927  0.23139     C
C       0.7373   0.6014  0.24709     C
C       0.7373   0.8986  0.00291     C
H       0.7382    0.188   0.6866     H
H       0.7382    0.312   0.5634     H
O       0.7452   0.5934   0.7857     O
O       0.7452   0.9066   0.4643     O
C       0.7467   0.1259  0.13553     C
C       0.7467   0.3741  0.11447     C
C        0.749   0.0871  0.65116     C
C        0.749   0.4129  0.59884     C
C        0.751   0.0871  0.09884     C
C        0.751   0.4129  0.15116     C
C       0.7533   0.1259  0.61447     C
C       0.7533   0.3741  0.63553     C
O       0.7548   0.5934   0.9643     O
O       0.7548   0.9066   0.2857     O
H       0.7618    0.188   0.0634     H
H       0.7618    0.312   0.1866     H
C       0.7627   0.6014  0.50291     C
C       0.7627   0.8986  0.74709     C
C       0.7629   0.2073  0.73139     C
C       0.7629   0.2927  0.51861     C
C       0.7646   0.2286   0.5031     C
C       0.7646   0.2714   0.7469     C
C       0.7714   0.7354   0.7531     C
C       0.7714   0.7646   0.4969     C
Tb     0.77592  0.01677   0.4382    Tb
Tb     0.77592  0.48323   0.8118    Tb
H       0.7774   0.1329   0.1483     H
H       0.7774   0.3671   0.1017     H
O        0.781   0.1116    0.468     O
O        0.781   0.3884    0.782     O
H       0.7836   0.5465   0.5093     H
H       0.7836   0.9535   0.7407     H
C       0.7927   0.7371  0.98139     C
C       0.7927   0.7629  0.26861     C
C       0.7935   0.1312  0.06207     C
C       0.7935   0.3688  0.18793     C
C        0.796   0.1056  0.11809     C
C        0.796   0.3944  0.13191     C
C       0.7962   0.6848   0.5088     C
C       0.7962   0.8152   0.7412     C
C       0.7991   0.1326   0.2763     C
C       0.7991   0.3674   0.9737     C
H       0.8009   0.6787   0.7501     H
H       0.8009   0.8213   0.4999     H
C       0.8011   0.0698  0.07926     C
C       0.8011   0.4302  0.17074     C
C       0.8049   0.5978   0.2632     C
C       0.8049   0.9022   0.9868     C
H        0.812   0.7382   0.3134     H
H        0.812   0.7618   0.9366     H
C       0.8152   0.2038   0.2588     C
C       0.8152   0.2962   0.9912     C
O        0.818   0.6361  0.82923     O
O        0.818   0.8639  0.42077     O
C       0.8205   0.6459  0.97118     C
C       0.8205   0.8541  0.27882     C
H       0.8213   0.1991   0.5001     H
H       0.8213   0.3009   0.7499     H
O       0.8238   0.5072  0.84779     O
O       0.8238   0.9928  0.40221     O
C       0.8244   0.1714  0.02418     C
C       0.8244   0.3286  0.22582     C
C       0.8286   0.6756  0.27418     C
C       0.8286   0.8244  0.97582     C
C       0.8329   0.5923  0.84593     C
C       0.8329   0.9077  0.40407     C
H       0.8338   0.5409   0.2663     H
H       0.8338   0.9591   0.9837     H
C        0.835   0.1054  0.04245     C
C        0.835   0.3946  0.20755     C
C       0.8483   0.0939  0.65145     C
C       0.8483   0.4061  0.59855     C
C       0.8491   0.1362  0.61559     C
C       0.8491   0.3638  0.63441     C
C       0.8512   0.5205  0.17412     C
C       0.8512   0.9795  0.07588     C
H       0.8525   0.5645   0.1634     H
H       0.8525   0.9355   0.0866     H
C       0.8541   0.1795  0.72118     C
C       0.8541   0.3205  0.52882     C
H       0.8613   0.1038   0.1188     H
H       0.8613   0.3962   0.1312     H
C       0.8638   0.6509  0.86559     C
C       0.8638   0.8491  0.38441     C
O       0.8639    0.182  0.57923     O
O       0.8639    0.318  0.67077     O
H       0.8671   0.7226   0.3983     H
H       0.8671   0.7774   0.8517     H
C       0.8674   0.7009   0.5263     C
C       0.8674   0.7991   0.7237     C
C       0.8688   0.7065  0.31207     C
C       0.8688   0.7935  0.93793     C
O       0.8691   0.5391  0.92818     O
O       0.8691   0.9609  0.32182     O
O       0.8717   0.0941  0.72003     O
O       0.8717   0.4059  0.52997     O
O       0.8718   0.0927  0.28451     O
O       0.8718   0.4073  0.96549     O
C       0.8741   0.7467  0.86447     C
C       0.8741   0.7533  0.38553     C
H       0.8757   0.5387   0.8842     H
H       0.8757   0.9613   0.3658     H
C       0.8811   0.6038  0.88384     C
C       0.8811   0.8962  0.36616     C
C       0.8823   0.0223  0.04187     C
C       0.8823   0.4777  0.20813     C
O       0.8873   0.5052  0.56978     O
O       0.8873   0.9948  0.68022     O
O       0.8884    0.719    0.718     O
O       0.8884    0.781    0.532     O
N       0.8944   0.5402   0.1922     N
C       0.8944    0.704  0.36809     C
C       0.8944    0.796  0.88191     C
N       0.8944   0.9598   0.0578     N
C       0.8946    0.665  0.29245     C
C       0.8946    0.835  0.95755     C
C       0.8962   0.1189  0.63384     C
C       0.8962   0.3811  0.61616     C
H       0.8962   0.6387   0.3688     H
H       0.8962   0.8613   0.8812     H
C       0.8986   0.2373  0.25291     C
C       0.8986   0.2627  0.99709     C
C       0.9009   0.0709  0.67146     C
C       0.9009   0.4291  0.57854     C
C       0.9022   0.1951   0.0132     C
C       0.9022   0.3049   0.2368     C
O       0.9059   0.6283  0.97003     O
O       0.9059   0.8717  0.27997     O
C       0.9061   0.6517  0.90145     C
C       0.9061   0.8483  0.34855     C
O       0.9066   0.2452   0.7143     O
O       0.9066   0.2548   0.5357     O
O       0.9073   0.6282  0.53451     O
O       0.9073   0.8718  0.71549     O
C       0.9077   0.1671  0.59593     C
C       0.9077   0.3329  0.65407     C
H       0.9096   0.0064   0.0291     H
H       0.9096   0.4936   0.2209     H
C       0.9129    0.749  0.34884     C
C       0.9129    0.751  0.90116     C
O       0.9248   0.5107  0.80055     O
O       0.9248   0.9893  0.44945     O
C       0.9291   0.5991  0.92146     C
C       0.9291   0.9009  0.32854     C
C       0.9302   0.6989  0.32926     C
C       0.9302   0.8011  0.92074     C
H       0.9355   0.1475   0.9134     H
H       0.9355   0.3525   0.3366     H
H       0.9535   0.2164   0.2593     H
H       0.9535   0.2836   0.9907     H
H       0.9591   0.1662   0.0163     H
H       0.9591   0.3338   0.2337     H
N       0.9598   0.1056   0.9422     N
N       0.9598   0.3944   0.3078     N
O       0.9609   0.1309  0.67818     O
O       0.9609   0.3691  0.57182     O
H       0.9613   0.1243   0.6342     H
H       0.9613   0.3757   0.6158     H
C       0.9777   0.6177  0.29187     C
C       0.9777   0.8823  0.95813     C
C       0.9795   0.1488  0.92412     C
C       0.9795   0.3512  0.32588     C
Tb     0.98323  0.72408   0.6882    Tb
Tb     0.98323  0.77592   0.5618    Tb
O       0.9893   0.0752  0.55055     O
O       0.9893   0.4248  0.69945     O
O       0.9928   0.1762  0.59779     O
O       0.9928   0.3238  0.65221     O
H       0.9936   0.5904   0.2791     H
H       0.9936   0.9096   0.9709     H
O       0.9948   0.1127  0.31978     O
O       0.9948   0.3873  0.93022     O
