data_I
_chemical_name_common  '/home/zhangsd/repos/MofS-CGCNN/ML/data/TSD/clean_cifs/ALUJEX_clean'
_cell_length_a 11.10680
_cell_length_b 17.77270
_cell_length_c 29.22800
_cell_angle_alpha 86.62400
_cell_angle_beta  79.68900
_cell_angle_gamma 73.27500
_space_group_name_H-M_alt      'P 1'


loop_
_space_group_symop_operation_xyz
  'x, y, z' 

loop_
_atom_site_label
_atom_site_fract_x
_atom_site_fract_y
_atom_site_fract_z
_atom_site_type_symbol
C       0.0026   0.2176   0.9679     C
O       0.0045    0.994  0.69029     O
H       0.0103   0.7363   0.0497     H
C       0.0169   0.4304   0.5246     C
C       0.0172   0.5642   0.5188     C
C        0.018   0.8911   0.4765     C
O       0.0222   0.3088  0.66395     O
H        0.023   0.1444   0.6947     H
C       0.0242   0.2025   0.4472     C
H       0.0284   0.3831    0.541     H
H        0.029   0.6079   0.5314     H
C        0.031   0.8571   0.5561     C
H       0.0335   0.9225   0.4508     H
C       0.0337   0.5643     0.01     C
C       0.0339   0.4945    0.544     C
O       0.0355    0.551  0.61495     O
H        0.038   0.2343   0.4215     H
C       0.0385   0.0829   0.0217     C
C       0.0397   0.1668   0.5273     C
O       0.0455   0.5688  0.30899     O
O       0.0468   0.8299  0.63467     O
H       0.0501   0.0377     0.04     H
C       0.0528   0.9031   0.5174     C
O       0.0558   0.2718  0.28524     O
H       0.0562   0.6085   0.0166     H
C        0.059   0.2151   0.4888     C
C       0.0616   0.6279   0.3266     C
C       0.0674   0.8733   0.6008     C
C       0.0676   0.4902   0.5915     C
O       0.0718   0.1269   0.6029     O
C       0.0778   0.8843   0.9929     C
O       0.0791   0.3899  0.28575     O
O       0.0861   0.0909  0.27195     O
C       0.0868   0.1749   0.5709     C
C       0.0879   0.4275   0.9974     C
C       0.0893   0.0317   0.2977     C
H       0.0915   0.9425   0.5192     H
C       0.0943   0.8179  0.02041     C
H       0.0951   0.2556    0.491     H
O       0.1039   0.1311  0.69159     O
La     0.10755   0.7947   0.7105    La
C       0.1144   0.3175  0.29332     C
O       0.1149   0.9285  0.60094     O
La     0.11608   0.5047  0.69072    La
C       0.1185   0.1848   0.9823     C
C       0.1227   0.4923  0.00792     C
H       0.1258   0.1235   0.7183     H
O       0.1307   0.4254  0.60634     O
C       0.1368   0.1165   0.0094     C
O        0.141   0.2272  0.57268     O
H       0.1441   0.9137   0.3579     H
H       0.1442   0.9071   0.9841     H
H       0.1472   0.3782   0.9953     H
H       0.1759   0.7334    0.344     H
H       0.1843   0.2083   0.9739     H
C       0.1941    0.619   0.3353     C
La     0.19843  0.01372  0.64335    La
H       0.2067   0.1824   0.3332     H
O       0.2083   0.8717  0.74936     O
C       0.2122   0.9902   0.3149     C
C       0.2159   0.7857   0.0398     C
C       0.2165   0.9303   0.3474     C
O        0.224   0.5538  0.74403     O
O       0.2309    0.363  0.70201     O
C       0.2324   0.6833   0.3437     C
C       0.2399   0.2847  0.30975     C
O       0.2442   0.7177  0.05483     O
La     0.24423  0.28904  0.62053    La
C       0.2496   0.9287   0.7529     C
H       0.2515   0.5063   0.8238     H
H       0.2542   0.8423   0.8294     H
O       0.2545    0.671  0.73195     O
C       0.2551   0.4845   0.0175     C
C       0.2554   0.6105   0.7564     C
H       0.2561   0.5017   0.3281     H
O       0.2577   0.9797  0.72145     O
H       0.2593   0.1944   0.7893     H
C       0.2642   0.0791   0.0238     C
C       0.2674   0.2101    0.329     C
O       0.2705   0.5416  0.03544     O
C       0.2744   0.2969   0.7204     C
O       0.2792   0.0151  0.04455     O
O       0.2799    0.833  0.04201     O
C       0.2807   0.5454   0.3341     C
C       0.2838    0.545   0.8326     C
C       0.2842   0.8849   0.8332     C
O       0.2897    0.235  0.70038     O
C       0.2914    0.233   0.7984     C
C       0.2942   0.9375  0.79733     C
C       0.2953   0.6061   0.8026     C
C       0.3084   0.2937   0.7678     C
H       0.3089   0.1907    0.863     H
H       0.3095   0.3771   0.2938     H
H       0.3102   0.8605   0.8998     H
O       0.3123   0.7837  0.65925     O
H       0.3148   0.4983   0.8957     H
H       0.3172    0.054   0.2775     H
C        0.319   0.8955   0.8753     C
C       0.3196   0.0138   0.2995     C
C         0.32   0.5407    0.876     C
C       0.3225   0.2305   0.8424     C
C       0.3264   0.8954   0.3641     C
H       0.3289   0.8548   0.3858     H
C       0.3293   0.3258   0.3051     C
O       0.3376   0.4215  0.00734     O
C       0.3405   0.6653   0.8167     C
C       0.3417   0.9996   0.8029     C
O       0.3441   0.4733  0.64976     O
O       0.3452    0.116  0.01491     O
H       0.3488   0.7068   0.7967     H
H       0.3492    0.035   0.7786     H
C       0.3558    0.673   0.3516     C
C       0.3576   0.3507   0.7818     C
O       0.3609   0.0827  0.63911     O
C        0.364   0.6002  0.88986     C
C       0.3669   0.9579   0.8811     C
H       0.3678   0.3921   0.7619     H
C       0.3725    0.662     0.86     C
O       0.3731   0.6598  0.95826     O
C       0.3733    0.286  0.85611     C
O       0.3733   0.8907  0.63597     O
C       0.3782   0.0096   0.8444     C
H       0.3812   0.7167   0.3573     H
C        0.386   0.1763   0.3421     C
C       0.3912   0.3452   0.8254     C
C       0.3933   0.8224   0.6522     C
O       0.3938   0.9196  0.95803     O
C       0.3985   0.5974   0.9372     C
H       0.4005   0.7022   0.8694     H
O       0.4021   0.2227  0.92789     O
C       0.4032    0.536   0.3416     C
H        0.404   0.1263   0.3553     H
C       0.4069   0.9684   0.9262     C
H       0.4107   0.0513   0.8476     H
O       0.4111   0.3542  0.61907     O
H       0.4115   0.2942    0.012     H
C       0.4134   0.2806  0.90261     C
H       0.4267   0.3824   0.8342     H
C       0.4277   0.4091   0.6388     C
C       0.4296   0.9794    0.316     C
C       0.4345     0.92   0.3489     C
O       0.4384   0.1771   0.6067     O
La     0.43945  0.60985  0.03513    La
C         0.44   0.6005   0.3512     C
C       0.4457   0.1165   0.6308     C
C       0.4483   0.2918   0.3172     C
O       0.4494   0.0251  0.92917     O
O       0.4519   0.5318  0.95415     O
La     0.45372  0.88985  0.03585    La
O       0.4554   0.3336  0.91365     O
H        0.461   0.4862   0.3402     H
C       0.4766   0.2166   0.3357     C
O        0.477   0.2546  0.00884     O
H       0.4887    0.237   0.0359     H
H        0.491   0.6806   0.6872     H
H       0.4981   0.0041   0.6949     H
H       0.5019   0.9959   0.3051     H
H        0.509   0.3194   0.3128     H
H       0.5113    0.763   0.9641     H
O        0.523   0.7454  0.99116     O
C       0.5234   0.7834   0.6643     C
H        0.539   0.5138   0.6598     H
O       0.5446   0.6664  0.08635     O
La     0.54628  0.11015  0.96415    La
O       0.5481   0.4682  0.04585     O
O       0.5506   0.9749  0.07083     O
C       0.5517   0.7082   0.6828     C
C       0.5543   0.8835   0.3692     C
C         0.56   0.3995   0.6488     C
La     0.56055  0.39015  0.96487    La
O       0.5616   0.8229   0.3933     O
C       0.5655     0.08   0.6511     C
C       0.5704   0.0206    0.684     C
C       0.5723   0.5909   0.3612     C
H       0.5733   0.6176   0.1658     H
C       0.5866   0.7194  0.09739     C
H       0.5885   0.7058    0.988     H
O       0.5889   0.6458  0.38093     O
H       0.5893   0.9487   0.1524     H
C       0.5931   0.0316   0.0738     C
H        0.596   0.8737   0.6447     H
C       0.5968    0.464   0.6584     C
O       0.5979   0.7773  0.07211     O
H       0.5995   0.2978   0.1306     H
C       0.6015   0.4026   0.0628     C
O       0.6062   0.0804  0.04197     O
C       0.6067   0.1776   0.3478     C
C       0.6088   0.6548   0.1746     C
C        0.614   0.8237   0.6579     C
H       0.6188   0.2833   0.6427     H
C       0.6218   0.9904   0.1556     C
O       0.6267   0.1093  0.36403     O
C       0.6267    0.714  0.14389     C
O       0.6269   0.3402  0.04174     O
C       0.6275    0.338     0.14     C
H       0.6322   0.6079   0.2381     H
C       0.6331   0.0421   0.1189     C
C        0.636   0.3998  0.11014     C
O       0.6391   0.9173  0.36089     O
C       0.6424   0.6493   0.2182     C
C       0.6442    0.327   0.6484     C
H       0.6508    0.965   0.2214     H
H       0.6512   0.2932   0.2033     H
O       0.6548    0.884  0.98509     O
O       0.6559   0.5267  0.35024     O
C       0.6583   0.0004   0.1971     C
C       0.6595   0.3347   0.1833     C
O       0.6624   0.5785  0.99266     O
C       0.6707   0.6742   0.6949     C
H       0.6711   0.1452   0.6142     H
C       0.6736   0.1046   0.6359     C
C       0.6775   0.7695   0.1576     C
C         0.68   0.4593    0.124     C
C       0.6804   0.9862   0.7005     C
C        0.681   0.1045   0.1247     C
H       0.6828    0.946   0.7225     H
H       0.6852   0.5017   0.1043     H
O       0.6877   0.2163  0.34075     O
H       0.6898   0.1395   0.1002     H
H       0.6905   0.6229   0.7062     H
H       0.6911   0.8093    0.137     H
C       0.6916   0.7063   0.2322     C
C       0.7047   0.3939   0.1974     C
C       0.7058   0.0625  0.20267     C
C       0.7086    0.767   0.2016     C
O       0.7103    0.765  0.29962     O
C       0.7158   0.1151   0.1668     C
C       0.7162    0.455   0.1674     C
C       0.7193   0.4546   0.6659     C
O       0.7201    0.167  0.95799     O
O       0.7208   0.9849  0.95545     O
C       0.7256   0.7031   0.2796     C
O       0.7295   0.4584  0.96456     O
C       0.7326   0.7899    0.671     C
C       0.7358   0.9209   0.9762     C
H       0.7407   0.8056   0.2107     H
O       0.7423   0.0203  0.27855     O
H       0.7439   0.4983   0.6719     H
C       0.7446   0.3895   0.2436     C
C       0.7449   0.5155   0.9825     C
O       0.7455    0.329  0.26805     O
H       0.7458   0.1577   0.1706     H
H       0.7485   0.4937   0.1762     H
C       0.7504   0.0713   0.2471     C
La     0.75577  0.71096  0.37947    La
O       0.7558   0.2823  0.94517     O
C       0.7601   0.7153  0.69025     C
C       0.7676   0.3167   0.6563     C
O       0.7691    0.637  0.29799     O
O        0.776   0.4462  0.25597     O
C       0.7835   0.0697   0.6526     C
C       0.7841   0.2143   0.9602     C
C       0.7878   0.0098   0.6851     C
O       0.7917   0.1283  0.25064     O
H       0.7933   0.8176   0.6668     H
La     0.80157  0.98628  0.35665    La
C       0.8059    0.381   0.6647     C
H       0.8157   0.7917   0.0261     H
H       0.8241   0.2666    0.656     H
H       0.8528   0.6218   0.0047     H
H       0.8558   0.0929   0.0159     H
H       0.8559   0.0863   0.6421     H
O        0.859   0.7728  0.42732     O
C       0.8632   0.8835   0.9906     C
O       0.8693   0.5746  0.39366     O
H       0.8742   0.8765   0.2817     H
C       0.8773   0.5077  0.99208     C
C       0.8815   0.8152   0.0177     C
La     0.88392   0.4953  0.30928    La
O       0.8851   0.0715  0.39906     O
C       0.8856   0.6825  0.70668     C
La     0.89245   0.2053   0.2895    La
O       0.8961   0.8689  0.30841     O
H       0.9049   0.7444    0.509     H
C       0.9057   0.1821  0.97959     C
H       0.9085   0.0575   0.4808     H
C       0.9107   0.9683   0.7023     C
C       0.9121   0.5725   0.0026     C
C       0.9132   0.8251   0.4291     C
O       0.9139   0.9091  0.72805     O
O       0.9209   0.6101  0.71425     O
C       0.9222   0.1157   0.0071     C
O       0.9282   0.8731   0.3971     O
C       0.9324   0.5098   0.4085     C
C       0.9326   0.1267   0.3992     C
C       0.9384   0.3721   0.6734     C
C        0.941   0.7849   0.5112     C
H       0.9438   0.3915   0.9834     H
O       0.9442   0.7282  0.71476     O
C       0.9472   0.0969   0.4826     C
H       0.9499   0.9623     0.96     H
O       0.9532   0.1701  0.36533     O
O       0.9545   0.4312  0.69101     O
C       0.9603   0.8332   0.4727     C
C       0.9615   0.9171   0.9783     C
H        0.962   0.7657   0.5785     H
O       0.9645    0.449  0.38505     O
C       0.9661   0.5055    0.456     C
C       0.9663   0.4357     0.99     C
H       0.9665   0.0775   0.5492     H
C        0.969   0.1429   0.4439     C
H        0.971   0.3921   0.4686     H
H       0.9716   0.6169    0.459     H
C       0.9758   0.7975   0.5528     C
H        0.977   0.8556   0.3053     H
O       0.9778   0.6912  0.33605     O
C        0.982   0.1089   0.5235     C
C       0.9828   0.4358   0.4812     C
C       0.9831   0.5696   0.4754     C
H       0.9897   0.2637   0.9503     H
O       0.9955    0.006  0.30971     O
C       0.9974   0.7824   0.0321     C
