data_I
_chemical_name_common  '/home/zhangsd/repos/MofS-CGCNN/ML/data/TSD/clean_cifs/ALUREF_clean'
_cell_length_a 11.39500
_cell_length_b 18.66300
_cell_length_c 24.32900
_cell_angle_alpha 90.00000
_cell_angle_beta  90.00000
_cell_angle_gamma 90.00000
_space_group_name_H-M_alt      'P 1'


loop_
_space_group_symop_operation_xyz
  'x, y, z' 

loop_
_atom_site_label
_atom_site_fract_x
_atom_site_fract_y
_atom_site_fract_z
_atom_site_type_symbol
C       0.0271      0.5      0.5     C
C       0.0276   0.1825    0.333     C
C       0.0276   0.8175    0.667     C
C       0.0299    0.293   0.5216     C
C       0.0299    0.707   0.4784     C
O       0.0514   0.2017   0.3785     O
O       0.0514   0.7983   0.6215     O
H       0.0524   0.4836   0.5813     H
H       0.0524   0.5164   0.4187     H
H       0.0525    0.319   0.4409     H
H       0.0525    0.681   0.5591     H
H        0.056    0.268   0.6009     H
H        0.056    0.732   0.3991     H
H       0.0823   0.1402   0.2661     H
H       0.0823   0.8598   0.7339     H
C       0.0917   0.4902   0.5477     C
C       0.0917   0.5098   0.4523     C
C       0.0921   0.3101   0.4741     C
C       0.0921   0.6899   0.5259     C
C       0.0932   0.3062   0.8079     C
H       0.0932    0.391    0.757     H
H       0.0932    0.609    0.243     H
C       0.0932   0.6938   0.1921     C
C       0.0942   0.2791   0.5677     C
C       0.0942   0.7209   0.4323     C
C       0.0997   0.2071   0.0215     C
C       0.0997   0.7929   0.9785     C
C        0.103      0.0      0.0     C
N       0.1047   0.1506   0.2994     N
N       0.1047   0.8494   0.7006     N
H       0.1196   0.1584   0.0959     H
H       0.1196   0.8416   0.9041     H
H       0.1252   0.2588   0.9496     H
H       0.1252   0.7412   0.0504     H
H       0.1285   0.0593   0.9302     H
H       0.1285   0.9407   0.0698     H
H       0.1298   0.2191   0.8549     H
H       0.1298   0.7809   0.1451     H
C       0.1379   0.3516   0.7691     C
C       0.1379   0.6484   0.2309     C
C       0.1598   0.1771   0.0654     C
C       0.1598   0.8229   0.9346     C
C       0.1604   0.2497   0.8278     C
C       0.1604   0.7503   0.1722     C
C       0.1636   0.2367   0.9792     C
C       0.1636   0.7633   0.0208     C
C       0.1674   0.0352   0.9588     C
C       0.1674   0.9648   0.0412     C
H       0.1845   0.0277   0.3353     H
H       0.1845   0.9723   0.6647     H
C       0.2115   0.3138   0.4766     C
C       0.2115   0.6862   0.5234     C
C       0.2118   0.4902   0.5468     C
C       0.2118   0.5098   0.4532     C
C       0.2176   0.2813   0.5658     C
C       0.2176   0.7187   0.4342     C
C       0.2249   0.1321   0.3156     C
C       0.2249   0.8679   0.6844     C
O        0.226   0.4146   0.6675     O
O        0.226   0.5854   0.3325     O
H       0.2358   0.0355   0.2751     H
H       0.2358   0.9645   0.7249     H
H       0.2359   0.1473   0.3543     H
H       0.2359   0.8527   0.6457     H
C       0.2432   0.0514   0.3129     C
C       0.2432   0.9486   0.6871     C
C       0.2485     0.34   0.7476     C
C       0.2485     0.66   0.2524     C
H       0.2513   0.3274   0.4444     H
H       0.2513   0.6726   0.5556     H
H       0.2533    0.483   0.5797     H
H       0.2533    0.517   0.4203     H
H       0.2601   0.2693   0.5976     H
H       0.2601   0.7307   0.4024     H
N       0.2717      0.5      0.5     N
C       0.2745   0.2383   0.8072     C
C       0.2745   0.7617   0.1928     C
N       0.2764   0.2997   0.5208     N
N       0.2764   0.7003   0.4792     N
C       0.2807   0.1758   0.0627     C
C       0.2807   0.8242   0.9373     C
O       0.2809   0.2069   0.2395     O
O       0.2809   0.7931   0.7605     O
H        0.282   0.3901   0.3441     H
H        0.282   0.6099   0.6559     H
C       0.2846   0.2337   0.9808     C
C       0.2846   0.7663   0.0192     C
C       0.2878   0.0339   0.9607     C
C       0.2878   0.9661   0.0393     C
C       0.2926   0.3872   0.7022     C
C       0.2926   0.6128   0.2978     C
O       0.3033   0.1263    0.852     O
O       0.3033   0.8737    0.148     O
H       0.3076   0.3067   0.3434     H
H       0.3076   0.6933   0.6566     H
C       0.3156    0.172   0.2804     C
C       0.3156    0.828   0.7196     C
C       0.3169    0.283   0.7667     C
C       0.3169    0.717   0.2333     C
H       0.3208   0.0397   0.3266     H
H       0.3208   0.9603   0.6734     H
H       0.3211   0.1538   0.0918     H
H       0.3211   0.8462   0.9082     H
H       0.3265   0.2542   0.9515     H
H       0.3265   0.7458   0.0485     H
H       0.3295   0.0581   0.9331     H
H       0.3295   0.9419   0.0669     H
H       0.3297   0.3532   0.2899     H
H       0.3297   0.6468   0.7101     H
C       0.3331    0.353   0.3297     C
C       0.3331    0.647   0.6703     C
N       0.3456   0.2036   0.0215     N
N       0.3456   0.7964   0.9785     N
C       0.3461   0.1794   0.8309     C
C       0.3461   0.8206   0.1691     C
N       0.3492      0.0      0.0     N
H       0.3652   0.0336   0.1356     H
H       0.3652   0.9664   0.8644     H
H       0.3665   0.0947   0.1808     H
H       0.3665   0.9053   0.8192     H
H       0.3921   0.2752    0.752     H
H       0.3921   0.7248    0.248     H
H       0.4049   0.0158   0.1965     H
H       0.4049   0.9842   0.8035     H
C       0.4057   0.0518   0.1678     C
C       0.4057   0.9482   0.8322     C
H       0.4072   0.0628   0.4247     H
H       0.4072   0.9372   0.5753     H
N         0.41   0.3944   0.6993     N
N         0.41   0.6056   0.3007     N
H       0.4187    0.186   0.4332     H
H       0.4187    0.814   0.5668     H
O       0.4219   0.1647   0.2952     O
O       0.4219   0.8353   0.7048     O
H       0.4237   0.4751   0.6445     H
H       0.4237   0.5249   0.3555     H
C       0.4278   0.0831   0.4587     C
C       0.4278   0.9169   0.5413     C
C       0.4338   0.1573   0.4642     C
C       0.4338   0.8427   0.5358     C
C       0.4515   0.0396   0.5024     C
C       0.4515   0.9604   0.4976     C
H       0.4533   0.3774   0.7258     H
H       0.4533   0.6226   0.2742     H
O       0.4536  0.43568  0.43024     O
O       0.4536  0.56432  0.56976     O
C       0.4591   0.3671   0.3484     C
C       0.4591   0.6329   0.6516     C
N       0.4597   0.1889    0.511     N
N       0.4597   0.8111    0.489     N
Co     0.46064      0.5      0.5    Co
O       0.4628  0.31475   0.6073     O
O       0.4628  0.68525   0.3927     O
C       0.4636   0.3825   0.6023     C
C       0.4636   0.6175   0.3977     C
C       0.4637   0.3739   0.4099     C
C       0.4637   0.6261   0.5901     C
N       0.4647    0.189   0.8282     N
N       0.4647    0.811   0.1718     N
O       0.4651  0.40925  0.55445     O
O       0.4651  0.59075  0.44555     O
Co     0.46544  0.30007  0.51926    Co
Co     0.46544  0.69993  0.48074    Co
C       0.4663   0.4301   0.6526     C
C       0.4663   0.5699   0.3474     C
O       0.4732  0.31713  0.43738     O
O       0.4732  0.68287  0.56262     O
C       0.4782   0.0727   0.5509     C
C       0.4782   0.9273   0.4491     C
C       0.4822   0.1464   0.5533     C
C       0.4822   0.8536   0.4467     C
H       0.4852   0.4131   0.3322     H
H       0.4852   0.5869   0.6678     H
H       0.4936   0.0453   0.5825     H
H       0.4936   0.9547   0.4175     H
H       0.4939   0.2282   0.8146     H
H       0.4939   0.7718   0.1854     H
H       0.4978   0.3322    0.087     H
H       0.4978   0.6678    0.913     H
H       0.5022   0.1678    0.587     H
H       0.5022   0.8322    0.413     H
H       0.5061   0.2718   0.3146     H
H       0.5061   0.7282   0.6854     H
H       0.5064   0.4547   0.0825     H
H       0.5064   0.5453   0.9175     H
H       0.5148   0.0869   0.8322     H
H       0.5148   0.9131   0.1678     H
C       0.5178   0.3536   0.0533     C
C       0.5178   0.6464   0.9467     C
C       0.5218   0.4273   0.0509     C
C       0.5218   0.5727   0.9491     C
O       0.5268  0.18287  0.93738     O
O       0.5268  0.81713  0.06262     O
C       0.5337   0.0699   0.1526     C
C       0.5337   0.9301   0.8474     C
Co     0.53456  0.19993  0.01926    Co
Co     0.53456  0.80007  0.98074    Co
O       0.5349  0.09075  0.05445     O
O       0.5349  0.90925  0.94555     O
N       0.5353    0.311   0.3282     N
N       0.5353    0.689   0.6718     N
C       0.5363   0.1261   0.9099     C
C       0.5363   0.8739   0.0901     C
C       0.5364   0.1175   0.1023     C
C       0.5364   0.8825   0.8977     C
O       0.5372  0.18525   0.1073     O
O       0.5372  0.81475   0.8927     O
Co     0.53936      0.0      0.0    Co
N       0.5403   0.3111    0.011     N
N       0.5403   0.6889    0.989     N
C       0.5409   0.1329   0.8484     C
C       0.5409   0.8671   0.1516     C
O       0.5464  0.06432  0.93024     O
O       0.5464  0.93568  0.06976     O
H       0.5467   0.1226   0.2258     H
H       0.5467   0.8774   0.7742     H
C       0.5485   0.4604   0.0024     C
C       0.5485   0.5396   0.9976     C
C       0.5662   0.3427   0.9642     C
C       0.5662   0.6573   0.0358     C
C       0.5722   0.4169   0.9587     C
C       0.5722   0.5831   0.0413     C
H       0.5763   0.0249   0.1445     H
H       0.5763   0.9751   0.8555     H
O       0.5781   0.3353   0.7952     O
O       0.5781   0.6647   0.2048     O
H       0.5813    0.314   0.9332     H
H       0.5813    0.686   0.0668     H
N         0.59   0.1056   0.1993     N
N         0.59   0.8944   0.8007     N
H       0.5928   0.4372   0.9247     H
H       0.5928   0.5628   0.0753     H
C       0.5943   0.4482   0.6678     C
C       0.5943   0.5518   0.3322     C
H       0.5951   0.4842   0.6965     H
H       0.5951   0.5158   0.3035     H
H       0.6079   0.2248    0.252     H
H       0.6079   0.7752    0.748     H
H       0.6335   0.4053   0.6808     H
H       0.6335   0.5947   0.3192     H
H       0.6348   0.4664   0.6356     H
H       0.6348   0.5336   0.3644     H
N       0.6508      0.5      0.5     N
C       0.6539   0.3206   0.3309     C
C       0.6539   0.6794   0.6691     C
N       0.6544   0.2964   0.5215     N
N       0.6544   0.7036   0.4785     N
C       0.6669    0.147   0.8297     C
C       0.6669    0.853   0.1703     C
H       0.6703   0.1468   0.7899     H
H       0.6703   0.8532   0.2101     H
H       0.6705   0.4419   0.4331     H
H       0.6705   0.5581   0.5669     H
H       0.6735   0.2458   0.4515     H
H       0.6735   0.7542   0.5485     H
H       0.6789   0.3462   0.5918     H
H       0.6789   0.6538   0.4082     H
H       0.6792   0.4603   0.8266     H
H       0.6792   0.5397   0.1734     H
C       0.6831    0.217   0.2667     C
C       0.6831    0.783   0.7333     C
C       0.6844    0.328   0.7804     C
C       0.6844    0.672   0.2196     C
H       0.6924   0.1933   0.8434     H
H       0.6924   0.8067   0.1566     H
O       0.6967   0.3737    0.352     O
O       0.6967   0.6263    0.648     O
C       0.7074   0.1128   0.2022     C
C       0.7074   0.8872   0.7978     C
C       0.7122   0.4661   0.4607     C
C       0.7122   0.5339   0.5393     C
C       0.7154   0.2663   0.4808     C
C       0.7154   0.7337   0.5192     C
H        0.718   0.1099   0.8441     H
H        0.718   0.8901   0.1559     H
O       0.7191   0.2931   0.7395     O
O       0.7191   0.7069   0.2605     O
C       0.7193   0.3242   0.5627     C
C       0.7193   0.6758   0.4373     C
N       0.7236   0.2003   0.0208     N
N       0.7236   0.7997   0.9792     N
C       0.7255   0.2617   0.3072     C
C       0.7255   0.7383   0.6928     C
N       0.7283      0.0      0.0     N
H       0.7399   0.2307   0.0976     H
H       0.7399   0.7693   0.9024     H
H       0.7467    0.017   0.0797     H
H       0.7467    0.983   0.9203     H
H       0.7487   0.1726   0.9444     H
H       0.7487   0.8274   0.0556     H
C       0.7515     0.16   0.2476     C
C       0.7515     0.84   0.7524     C
C       0.7568   0.4486   0.8129     C
C       0.7568   0.5514   0.1871     C
H       0.7641   0.3527   0.8543     H
H       0.7641   0.6473   0.1457     H
H       0.7642   0.4645   0.7751     H
H       0.7642   0.5355   0.2249     H
O        0.774   0.0854   0.1675     O
O        0.774   0.9146   0.8325     O
C       0.7751   0.3679   0.8156     C
C       0.7751   0.6321   0.1844     C
C       0.7824   0.2187   0.0658     C
C       0.7824   0.7813   0.9342     C
C       0.7882   0.0098   0.0468     C
C       0.7882   0.9902   0.9532     C
C       0.7885   0.1862   0.9766     C
C       0.7885   0.8138   0.0234     C
H       0.8155   0.4723   0.8353     H
H       0.8155   0.5277   0.1647     H
C       0.8326   0.4648   0.4588     C
C       0.8326   0.5352   0.5412     C
C       0.8364   0.2633   0.4792     C
C       0.8364   0.7367   0.5208     C
C       0.8396   0.2503   0.3278     C
C       0.8396   0.7497   0.6722     C
C       0.8402   0.3229   0.5654     C
C       0.8402   0.6771   0.4346     C
C       0.8621   0.1484   0.2691     C
C       0.8621   0.8516   0.7309     C
H       0.8702   0.2809   0.3549     H
H       0.8702   0.7191   0.6451     H
H       0.8715   0.4407   0.4302     H
H       0.8715   0.5593   0.5698     H
H       0.8748   0.2412   0.4496     H
H       0.8748   0.7588   0.5504     H
H       0.8804   0.3416   0.5959     H
H       0.8804   0.6584   0.4041     H
N       0.8953   0.3494   0.7994     N
N       0.8953   0.6506   0.2006     N
C        0.897      0.5      0.5     C
C       0.9003   0.2929   0.5215     C
C       0.9003   0.7071   0.4785     C
C       0.9058   0.2209   0.0677     C
C       0.9058   0.7791   0.9323     C
H       0.9068    0.109    0.257     H
C       0.9068   0.1938   0.3079     C
C       0.9068   0.8062   0.6921     C
H       0.9068    0.891    0.743     H
C       0.9079   0.1899   0.9741     C
C       0.9079   0.8101   0.0259     C
C       0.9083   0.0098   0.0477     C
C       0.9083   0.9902   0.9523     C
H       0.9177   0.3598   0.7661     H
H       0.9177   0.6402   0.2339     H
H        0.944    0.232   0.1009     H
H        0.944    0.768   0.8991     H
H       0.9475    0.181   0.9409     H
H       0.9475    0.819   0.0591     H
H       0.9476   0.0164   0.0813     H
H       0.9476   0.9836   0.9187     H
O       0.9486   0.2983   0.8785     O
O       0.9486   0.7017   0.1215     O
C       0.9701    0.207   0.0216     C
C       0.9701    0.793   0.9784     C
C       0.9724   0.3175    0.833     C
C       0.9724   0.6825    0.167     C
C       0.9729      0.0      0.0     C
