data_I
_chemical_name_common  '/home/zhangsd/repos/MofS-CGCNN/ML/data/TSD/clean_cifs/AMODUC_clean'
_cell_length_a 16.22950
_cell_length_b 16.22950
_cell_length_c 28.03460
_cell_angle_alpha 80.12190
_cell_angle_beta  80.12190
_cell_angle_gamma 62.93240
_space_group_name_H-M_alt      'P 1'


loop_
_space_group_symop_operation_xyz
  'x, y, z' 

loop_
_atom_site_label
_atom_site_fract_x
_atom_site_fract_y
_atom_site_fract_z
_atom_site_type_symbol
C       0.0146   0.4588   0.9974     C
O      0.01926  0.54126  0.41616     O
H        0.028   0.5582   0.0127     H
Tb     0.02902  0.56875  0.54444    Tb
H       0.0603   0.5763     0.33     H
C      0.06881  0.57901  0.42295     C
O      0.08431  0.58931  0.46338     O
O      0.08707  0.54087  0.62359     O
H       0.0896   0.2948   0.9713     H
O      0.09299  0.40619  0.49606     O
C       0.0976    0.606  0.33287     C
C       0.1071   0.3833   0.0049     C
C      0.11048  0.61688   0.3782     C
H        0.124   0.5408   0.7057     H
H       0.1298   0.6302   0.2603     H
C       0.1332   0.3026   0.9864     C
C       0.1388    0.638   0.2915     C
C       0.1407   0.5787   0.6079     C
H       0.1507   0.4467   0.0443     H
O      0.15089  0.60629  0.56369     O
C      0.16376  0.38036   0.5176     C
C       0.1648   0.5694   0.6957     C
C        0.167   0.6582   0.3831     C
C       0.1691   0.3911     0.03     C
O      0.17345  0.43065  0.54242     O
H       0.1751   0.2421   0.4735     H
H       0.1766   0.6646   0.4145     H
C        0.184    0.592   0.6463     C
H        0.186   0.5732   0.7637     H
C       0.1937   0.6821   0.2954     C
C       0.2028    0.587   0.7302     C
C        0.209     0.69   0.3415     C
C       0.2235   0.2297   0.9888     C
H       0.2246   0.7058   0.2199     H
C       0.2297   0.2235   0.4888     C
C       0.2337   0.7177   0.2502     C
C        0.239   0.2852   0.5143     C
H       0.2421   0.1751   0.9735     H
C       0.2454    0.628   0.6335     C
H       0.2483   0.7175   0.3444     H
C       0.2552   0.3212   0.0346     C
H       0.2606   0.6424   0.5998     H
C       0.2662    0.625   0.7167     C
C       0.2823   0.7663   0.2498     C
H       0.2825   0.7517   0.1556     H
H        0.283   0.6338   0.7865     H
C       0.2852    0.239   0.0143     C
C       0.2881   0.6453   0.6674     C
H       0.2942   0.7754   0.2801     H
H       0.2948   0.0896   0.4713     H
H       0.2959   0.3287   0.0522     H
C       0.2986   0.6528   0.7536     C
C       0.3026   0.1332   0.4864     C
C         0.31    0.791   0.1585     C
C       0.3179   0.8063   0.2046     C
C       0.3212   0.2552   0.5346     C
H       0.3287   0.2959   0.5522     H
H       0.3294   0.6684   0.8432     H
H       0.3316   0.6706   0.6568     H
H       0.3354   0.8234   0.0855     H
C       0.3418    0.833   0.1169     C
C       0.3472   0.7014   0.7464     C
C       0.3547   0.7119   0.8326     C
H       0.3576   0.7394   0.9002     H
C        0.362   0.8612   0.2085     C
H       0.3662    0.717   0.7135     H
H       0.3698   0.8702   0.2397     H
C        0.372   0.7546   0.8665     C
C        0.375   0.7338   0.7833     C
C      0.38036  0.16376   0.0176     C
C      0.38312  0.88952   0.1218     C
C       0.3833   0.1071   0.5049     C
C       0.3911   0.1691     0.53     C
O      0.39371  0.84911  0.93631     O
C        0.394   0.9024  0.16713     C
O      0.40619  0.09299  0.99606     O
C        0.408    0.816   0.8537     C
O      0.41069  0.91569  0.03662     O
C        0.413   0.7972   0.7698     C
C      0.42099  0.93119  0.07705     C
C       0.4213   0.8593   0.8921     C
H       0.4237   0.9397     0.17     H
H       0.4268    0.814   0.7363     H
C       0.4306   0.8352   0.8043     C
O      0.43065  0.17345  0.04242     O
Tb     0.43125  0.97098  0.95556    Tb
H       0.4418    0.972   0.4873     H
H       0.4467   0.1507   0.5443     H
O      0.45874  0.98074  0.08384     O
C       0.4588   0.0146   0.4974     C
O      0.45913  0.91293  0.87641     O
H       0.4592    0.876   0.7943     H
H       0.5408    0.124   0.2057     H
O      0.54087  0.08707  0.12359     O
C       0.5412   0.9854   0.5026     C
O      0.54126  0.01926  0.91616     O
H       0.5533   0.8493   0.4557     H
H       0.5582    0.028   0.5127     H
Tb     0.56874  0.02902  0.04444    Tb
O      0.56935  0.82655  0.95758     O
C       0.5694   0.1648   0.1957     C
H       0.5732    0.186   0.2637     H
H       0.5763   0.0603     0.83     H
C       0.5787   0.1407   0.1079     C
C      0.57901  0.06881  0.92295     C
C        0.587   0.2028   0.2302     C
O      0.58931  0.08431  0.96338     O
C        0.592    0.184   0.1463     C
O      0.59381  0.90701  0.00394     O
C        0.606   0.0976  0.83287     C
O      0.60629  0.15089  0.06369     O
C       0.6089   0.8309     0.47     C
C       0.6167   0.8929   0.4951     C
C      0.61688  0.11048   0.8782     C
C      0.61964  0.83624   0.9824     C
C        0.625   0.2662   0.2167     C
C        0.628   0.2454   0.1335     C
H       0.6302   0.1298   0.7603     H
H       0.6338    0.283   0.2865     H
C        0.638   0.1388   0.7915     C
H       0.6424   0.2606   0.0998     H
C       0.6453   0.2881   0.1674     C
C       0.6528   0.2986   0.2536     C
C       0.6582    0.167   0.8831     C
H       0.6646   0.1766   0.9145     H
H       0.6684   0.3294   0.3432     H
H       0.6706   0.3316   0.1568     H
H       0.6713   0.7041   0.4478     H
C       0.6788   0.7448   0.4654     C
C       0.6821   0.1937   0.7954     C
C         0.69    0.209   0.8415     C
C       0.6974   0.8668   0.5136     C
C       0.7014   0.3472   0.2464     C
H       0.7041   0.6713   0.9478     H
H       0.7052   0.9104   0.5287     H
H       0.7058   0.2246   0.7199     H
C       0.7119   0.3547   0.3326     C
C       0.7148    0.761   0.9857     C
H        0.717   0.3662   0.2135     H
H       0.7175   0.2483   0.8444     H
C       0.7177   0.2337   0.7502     C
C       0.7338    0.375   0.2833     C
H       0.7394   0.3576   0.4002     H
C       0.7448   0.6788   0.9654     C
H       0.7517   0.2825   0.6556     H
C       0.7546    0.372   0.3665     C
H       0.7579   0.8249   0.0265     H
C        0.761   0.7148   0.4857     C
C       0.7663   0.2823   0.7498     C
C       0.7703   0.7765   0.5112     C
H       0.7754   0.2942   0.7801     H
C       0.7765   0.7703   0.0112     C
C        0.791     0.31   0.6585     C
C       0.7972    0.413   0.2698     C
C       0.8063   0.3179   0.7046     C
H        0.814   0.4268   0.2363     H
C        0.816    0.408   0.3537     C
H       0.8234   0.3354   0.5855     H
H       0.8249   0.7579   0.5265     H
O      0.82655  0.56935  0.45758     O
C       0.8309   0.6089     0.97     C
C        0.833   0.3418   0.6169     C
C       0.8352   0.4306   0.3043     C
C      0.83624  0.61964   0.4824     C
O      0.84911  0.39371  0.43631     O
H       0.8493   0.5533   0.9557     H
C       0.8593   0.4213   0.3921     C
C       0.8612    0.362   0.7085     C
C       0.8668   0.6974   0.0136     C
H       0.8702   0.3698   0.7397     H
H        0.876   0.4592   0.2943     H
C      0.88952  0.38312   0.6218     C
C       0.8929   0.6167   0.9951     C
C       0.9024    0.394  0.66713     C
O      0.90701  0.59381  0.50394     O
H       0.9104   0.7052   0.0287     H
O      0.91293  0.45913  0.37641     O
O      0.91569  0.41069  0.53662     O
C      0.93119  0.42099  0.57705     C
H       0.9397   0.4237     0.67     H
Tb     0.97098  0.43125  0.45556    Tb
H        0.972   0.4418   0.9873     H
O      0.98074  0.45874  0.58384     O
C       0.9854   0.5412   0.0026     C
