data_I
_chemical_name_common  '/home/zhangsd/repos/MofS-CGCNN/ML/data/TSD/clean_cifs/AMOYOR_clean'
_cell_length_a  5.86530
_cell_length_b 12.85350
_cell_length_c 20.98000
_cell_angle_alpha 92.31720
_cell_angle_beta  90.00000
_cell_angle_gamma 103.18900
_space_group_name_H-M_alt      'P 1'


loop_
_space_group_symop_operation_xyz
  'x, y, z' 

loop_
_atom_site_label
_atom_site_fract_x
_atom_site_fract_y
_atom_site_fract_z
_atom_site_type_symbol
H       0.0067   0.2192   0.9459     H
C      0.03672  0.86164   0.7125     C
C      0.04184  0.75948   0.6143     C
N      0.04401  0.90082  0.19264     N
C      0.05457  0.19914   0.9053     C
C      0.05661  0.47802   0.9378     C
H       0.0716   0.6766   0.5293     H
H       0.0966   0.4636   0.8954     H
H       0.0982    0.882   0.7537     H
C      0.10004  0.87028  0.13357     C
O      0.11359  0.83418   0.3395     O
C      0.13345   0.6875    0.571     C
C      0.13498  0.79336   0.6756     C
N      0.14319  0.09918  0.30736     N
C      0.14457  0.19914   0.4053     C
H       0.1463   0.8774   0.4834     H
H       0.1618    0.987   0.9393     H
C      0.16878  0.56596   0.0411     C
H       0.1748    0.013   0.5607     H
C      0.17508  0.13836   0.7875     C
H       0.1975   0.5708   0.4621     H
H       0.2099    0.822   0.8873     H
H       0.2125   0.2192   0.4459     H
H       0.2162    0.118   0.7463     H
C      0.22247  0.54234   0.9776     C
C      0.22976  0.12972  0.36643     C
H        0.252    0.898   0.1186     H
H       0.2634   0.7692   0.6911     H
H       0.2689   0.1226   0.0166     H
O      0.27941  0.16582   0.1605     O
C      0.28236  0.24052   0.8857     C
Zn     0.28245      0.0     0.25    Zn
H       0.2878   0.6442   0.1282     H
C      0.28982  0.92704     0.49     C
C       0.2986    0.992   0.9637     C
C      0.29876  0.63572   0.5861     C
C       0.3066    0.008   0.5363     C
C      0.31987  0.54234   0.4776     C
C      0.32866  0.86472   0.3451     C
C      0.33696  0.63572   0.0861     C
C      0.34162  0.20664   0.8244     C
H        0.354    0.102   0.3814     H
H       0.3564   0.6442   0.6282     H
C      0.36278  0.07296     0.01     C
H        0.367   0.4636   0.3954     H
H       0.3687   0.7626   0.4162     H
H       0.3733   0.5708   0.9621     H
C      0.37339  0.83078   0.9008     C
H       0.3879    0.178   0.6127     H
H       0.3939   0.7626   0.9162     H
H        0.395   0.3234   0.9707     H
C      0.39718  0.56596   0.5411     C
C      0.42141  0.47802   0.4378     C
C      0.43545   0.9175  0.95292     C
C      0.44595   0.3125    0.929     C
O      0.45345   0.9317  0.30859     O
C      0.45739  0.83078   0.4008     C
C      0.46394  0.13528   0.1549     C
O      0.47825   0.9317  0.80859     O
C      0.48205   0.9175  0.45292     C
H       0.4942   0.2308   0.8089     H
H       0.5058   0.7692   0.1911     H
C      0.51795   0.0825  0.54708     C
O      0.52175   0.0683  0.19141     O
C      0.53606  0.86472   0.8451     C
C      0.54261  0.16922   0.5992     C
O      0.54655   0.0683  0.69141     O
C      0.55405   0.6875    0.071     C
C      0.56455   0.0825  0.04708     C
C      0.57859  0.52198   0.5622     C
C      0.60282  0.43404   0.4589     C
H        0.605   0.6766   0.0293     H
H       0.6061   0.2374   0.0838     H
H       0.6121    0.822   0.3873     H
C      0.62661  0.16922   0.0992     C
H       0.6267   0.4292   0.0379     H
H       0.6313   0.2374   0.5838     H
H        0.633   0.5364   0.6046     H
C      0.63722  0.92704     0.99     C
H       0.6436   0.3558   0.3718     H
H        0.646    0.898   0.6186     H
C      0.65838  0.79336   0.1756     C
C      0.66304  0.36428   0.9139     C
C      0.67134  0.13528   0.6549     C
C      0.68013  0.45766   0.5224     C
C       0.6934    0.992   0.4637     C
C      0.70124  0.36428   0.4139     C
C       0.7014    0.008   0.0363     C
C      0.71018  0.07296     0.51     C
H       0.7122   0.3558   0.8718     H
Zn     0.71755      0.0     0.75    Zn
C      0.71764  0.75948   0.1143     C
O      0.72059  0.83418   0.8395     O
H       0.7311   0.8774   0.9834     H
H       0.7366   0.2308   0.3089     H
H        0.748    0.102   0.8814     H
C      0.77024  0.87028  0.63357     C
C      0.77753  0.45766   0.0224     C
H       0.7838    0.882   0.2537     H
H       0.7875   0.7808   0.5541     H
H       0.7901    0.178   0.1127     H
H       0.8025   0.4292   0.5379     H
C      0.82492  0.86164   0.2125     C
H       0.8252    0.987   0.4393     H
C      0.83122  0.43404   0.9589     C
H       0.8382    0.013   0.0607     H
H       0.8537   0.1226   0.5166     H
C      0.85543  0.80086   0.5947     C
N      0.85681  0.90082  0.69264     N
C      0.86502  0.20664   0.3244     C
C      0.86655   0.3125    0.429     C
O      0.88641  0.16582   0.6605     O
C      0.89996  0.12972  0.86643     C
H       0.9018    0.118   0.2463     H
H       0.9034   0.5364   0.1046     H
H       0.9284   0.3234   0.4707     H
C      0.94339  0.52198   0.0622     C
C      0.94543  0.80086   0.0947     C
N      0.95599  0.09918  0.80736     N
C      0.95816  0.24052   0.3857     C
C      0.96328  0.13836   0.2875     C
H       0.9933   0.7808   0.0541     H
