data_I
_chemical_name_common  '/home/zhangsd/repos/MofS-CGCNN/ML/data/TSD/clean_cifs/AMOZAE_clean'
_cell_length_a  6.75900
_cell_length_b 13.97800
_cell_length_c 14.26510
_cell_angle_alpha 90.00000
_cell_angle_beta  92.49630
_cell_angle_gamma 90.00000
_space_group_name_H-M_alt      'P 1'


loop_
_space_group_symop_operation_xyz
  'x, y, z' 

loop_
_atom_site_label
_atom_site_fract_x
_atom_site_fract_y
_atom_site_fract_z
_atom_site_type_symbol
O         0.07   0.3528   0.3197     O
O       0.0703   0.8161    0.583     O
O       0.1059   0.2993   0.9173     O
O        0.117   0.8862   0.1587     O
O       0.1263   0.5769   0.3288     O
C       0.1785   0.6051   0.2507     C
O       0.2003   0.6911   0.2263     O
K      0.20634  0.19055  0.75824     K
C       0.2165   0.5302    0.177     C
C       0.2216   0.3899   0.2922     C
C       0.2274   0.4312   0.1951     C
N       0.2276   0.5648   0.0899     N
O       0.2326   0.0112   0.6489     O
C       0.2356   0.8357   0.5527     C
Sm      0.2392  0.74409   0.0654    Sm
C       0.2422   0.3702   0.1191     C
C       0.2432   0.0589    0.576     C
H        0.246   0.3029   0.1288     H
C       0.2478   0.5055   0.0168     C
O       0.2479   0.1489   0.5731     O
C       0.2485   0.9068   0.4716     C
C       0.2515   0.4068   0.0284     C
O       0.2521   0.6489   0.9269     O
C       0.2522   0.0055   0.4832     C
H        0.254   0.8029   0.3712     H
C       0.2568   0.5589    0.924     C
C       0.2578   0.8702   0.3809     C
Sm      0.2608  0.24409   0.4346    Sm
C       0.2644   0.3357   0.9473     C
O       0.2674   0.5112   0.8511     O
N       0.2724   0.0648   0.4101     N
C       0.2726   0.9312   0.3049     C
C       0.2784   0.8899   0.2078     C
C       0.2835   0.0302    0.323     C
K      0.29366  0.69055  0.74176     K
O       0.2997   0.1911   0.2737     O
C       0.3215   0.1051   0.2493     C
O       0.3737   0.0769   0.1712     O
O        0.383   0.3862   0.3413     O
O       0.3941   0.7993   0.5827     O
O       0.4297   0.3161    0.917     O
O         0.43   0.8528   0.1803     O
O         0.57   0.1472   0.8197     O
O       0.5703   0.6839    0.083     O
O       0.6059   0.2007   0.4173     O
O        0.617   0.6138   0.6587     O
O       0.6263   0.9231   0.8288     O
C       0.6785   0.8949   0.7507     C
O       0.7003   0.8089   0.7263     O
K      0.70634  0.30945  0.25824     K
C       0.7165   0.9698    0.677     C
C       0.7216   0.1101   0.7922     C
C       0.7274   0.0688   0.6951     C
N       0.7276   0.9352   0.5899     N
O       0.7326   0.4888   0.1489     O
C       0.7356   0.6643   0.0527     C
Sm      0.7392  0.75591   0.5654    Sm
C       0.7422   0.1298   0.6191     C
C       0.7432   0.4411    0.076     C
H        0.746   0.1971   0.6288     H
C       0.7478   0.9945   0.5168     C
O       0.7479   0.3511   0.0731     O
C       0.7485   0.5932   0.9716     C
C       0.7515   0.0932   0.5284     C
O       0.7521   0.8511   0.4269     O
C       0.7522   0.4945   0.9832     C
H        0.754   0.6971   0.8712     H
C       0.7568   0.9411    0.424     C
C       0.7578   0.6298   0.8809     C
Sm      0.7608  0.25591   0.9346    Sm
C       0.7644   0.1643   0.4473     C
O       0.7674   0.9888   0.3511     O
N       0.7724   0.4352   0.9101     N
C       0.7726   0.5688   0.8049     C
C       0.7784   0.6101   0.7078     C
C       0.7835   0.4698    0.823     C
K      0.79366  0.80945  0.24176     K
O       0.7997   0.3089   0.7737     O
C       0.8215   0.3949   0.7493     C
O       0.8737   0.4231   0.6712     O
O        0.883   0.1138   0.8413     O
O       0.8941   0.7007   0.0827     O
O       0.9297   0.1839    0.417     O
O         0.93   0.6472   0.6803     O
