data_I
_chemical_name_common  '/home/zhangsd/repos/MofS-CGCNN/ML/data/TSD/clean_cifs/AMUFEV_clean'
_cell_length_a  9.14610
_cell_length_b  9.65870
_cell_length_c 12.76170
_cell_angle_alpha 94.66400
_cell_angle_beta  103.83700
_cell_angle_gamma 114.83000
_space_group_name_H-M_alt      'P 1'


loop_
_space_group_symop_operation_xyz
  'x, y, z' 

loop_
_atom_site_label
_atom_site_fract_x
_atom_site_fract_y
_atom_site_fract_z
_atom_site_type_symbol
Co         0.0      0.5      0.5    Co
H       0.0025   0.2914   0.1403     H
C       0.0225    0.307   0.2195     C
H       0.0302   0.2932   0.7243     H
C       0.0367   0.1775   0.8469     C
H       0.0673   0.4173   0.2493     H
H       0.0799   0.8779   0.1688     H
C         0.08   0.0425    0.003     C
C       0.0894   0.8581  0.65088     C
O       0.1018  0.73006  0.48328     O
C       0.1037    0.281   0.7829     C
C       0.1062   0.2072  0.38247     C
H       0.1096   0.1451   0.2255     H
H       0.1349   0.9699     0.68     H
H       0.1369    0.125   0.4026     H
C        0.142   0.1557   0.9345     C
C       0.1421   0.7887  0.75249     C
C       0.1434   0.2449  0.27324     C
H       0.1607   0.0293   0.0554     H
O       0.1638   0.5709    0.661     O
C       0.1714   0.8472  0.56095     C
O      0.19381   0.4743  0.45822     O
C        0.203   0.3501  0.47567     C
H       0.2167   0.8761   0.8149     H
C        0.232   0.6899  0.73928     C
N       0.2712   0.3651  0.80164     N
O       0.2889   0.3397  0.56498     O
O       0.3119   0.9602  0.57425     O
C       0.3137   0.2439   0.9539     C
C       0.3272   0.3453   0.2845     C
Co     0.36557  0.51219  0.69877    Co
O         0.37   0.7204  0.80591     O
O        0.372    0.453   0.2342     O
C       0.3721   0.3454   0.8865     C
H         0.39   0.2349   0.0124     H
O       0.4367   0.3155  0.34398     O
H       0.4882   0.4031   0.9013     H
Co         0.5      0.0      0.5    Co
H       0.5118   0.5969   0.0987     H
O       0.5633   0.6845  0.65602     O
H         0.61   0.7651   0.9876     H
C       0.6279   0.6546   0.1135     C
O        0.628    0.547   0.7658     O
O         0.63   0.2796  0.19409     O
Co     0.63443  0.48781  0.30123    Co
C       0.6728   0.6547   0.7155     C
C       0.6863   0.7561   0.0461     C
O       0.6881   0.0398  0.42575     O
O       0.7111   0.6603  0.43502     O
N       0.7288   0.6349  0.19836     N
C        0.768   0.3101  0.26072     C
H       0.7833   0.1239   0.1851     H
C        0.797   0.6499  0.52433     C
O      0.80619   0.5257  0.54178     O
C       0.8286   0.1528  0.43905     C
O       0.8362   0.4291    0.339     O
H       0.8393   0.9707   0.9446     H
C       0.8566   0.7551  0.72676     C
C       0.8579   0.2113  0.24751     C
C        0.858   0.8443   0.0655     C
H       0.8631    0.875   0.5974     H
H       0.8651   0.0301     0.32     H
H       0.8904   0.8549   0.7745     H
C       0.8938   0.7928  0.61753     C
C       0.8963    0.719   0.2171     C
O       0.8982  0.26994  0.51672     O
C       0.9106   0.1419  0.34912     C
C         0.92   0.9575    0.997     C
H       0.9201   0.1221   0.8312     H
H       0.9327   0.5827   0.7507     H
C       0.9633   0.8225   0.1531     C
H       0.9698   0.7068   0.2757     H
C       0.9775    0.693   0.7805     C
H       0.9975   0.7086   0.8597     H
