data_I
_chemical_name_common  '/home/zhangsd/repos/MofS-CGCNN/ML/data/TSD/clean_cifs/AMUFIZ_clean'
_cell_length_a  9.08380
_cell_length_b  9.61570
_cell_length_c 12.42520
_cell_angle_alpha 93.48800
_cell_angle_beta  104.35700
_cell_angle_gamma 113.99300
_space_group_name_H-M_alt      'P 1'


loop_
_space_group_symop_operation_xyz
  'x, y, z' 

loop_
_atom_site_label
_atom_site_fract_x
_atom_site_fract_y
_atom_site_fract_z
_atom_site_type_symbol
Co         0.0      0.5      0.0    Co
H       0.0169   0.1156   0.5861     H
O       0.0602   0.1745   0.1555     O
H       0.1213   0.2787   0.4708     H
O       0.1291   0.7881   0.6907     O
O       0.1317   0.0418   0.2765     O
Co     0.13314  0.99501   0.7959    Co
C       0.1334   0.1693   0.6021     C
C       0.1739   0.1486   0.2208     C
O       0.1942   0.5394   0.9285     O
C       0.1946   0.2675    0.533     C
O       0.2104   0.1641   0.9323     O
N       0.2317   0.1453   0.6925     N
C       0.2674   0.8154   0.7558     C
H       0.2806   0.6299   0.6789     H
C       0.2958   0.1495   0.0251     C
O       0.3062   0.0264   0.0439     O
C       0.3315   0.6535   0.9403     C
O       0.3373   0.9338   0.8357     O
C        0.355   0.2506   0.2328     C
C       0.3556   0.7158   0.7421     C
H       0.3589   0.3728   0.0982     H
C       0.3667   0.3502   0.5565     C
H       0.3689   0.5345   0.8185     H
H       0.3853   0.3486    0.281     H
C       0.3915   0.2906   0.1195     C
O        0.398   0.7697   0.0176     O
C       0.4009   0.2252   0.7137     C
H       0.4107   0.6169   0.3337     H
C       0.4125   0.6452   0.8475     C
N        0.424   0.4551   0.4826     N
H       0.4385   0.0794   0.2594     H
H       0.4717   0.2095   0.7748     H
C       0.4726   0.3288   0.6487     C
C       0.4813   0.1888   0.2885     C
H       0.4975   0.7964   0.6302     H
Co         0.5      0.0      0.0    Co
H       0.5025   0.2036   0.3698     H
C       0.5187   0.8112   0.7115     C
C       0.5274   0.6712   0.3513     C
H       0.5283   0.7905   0.2252     H
H       0.5615   0.9206   0.7406     H
N        0.576   0.5449   0.5174     N
C       0.5875   0.3548   0.1525     C
H       0.5893   0.3831   0.6663     H
C       0.5991   0.7748   0.2863     C
O        0.602   0.2303   0.9824     O
C       0.6085   0.7094   0.8805     C
H       0.6147   0.6514    0.719     H
H       0.6311   0.4655   0.1815     H
C       0.6333   0.6498   0.4435     C
H       0.6411   0.6272   0.9018     H
C       0.6444   0.2842   0.2579     C
C        0.645   0.7494   0.7672     C
O       0.6627   0.0662   0.1643     O
C       0.6685   0.3465   0.0597     C
O       0.6938   0.9736   0.9561     O
C       0.7042   0.8505   0.9749     C
H       0.7194   0.3701   0.3211     H
C       0.7326   0.1846   0.2442     C
N       0.7683   0.8547   0.3075     N
O       0.7896   0.8359   0.0677     O
C       0.8054   0.7325    0.467     C
O       0.8058   0.4606   0.0715     O
C       0.8261   0.8514   0.7792     C
C       0.8666   0.8307   0.3979     C
Co     0.86686  0.00499   0.2041    Co
O       0.8683   0.9582   0.7235     O
O       0.8709   0.2119   0.3093     O
H       0.8787   0.7213   0.5292     H
O       0.9398   0.8255   0.8445     O
H       0.9831   0.8844   0.4139     H
