data_I
_chemical_name_common  '/home/zhangsd/repos/MofS-CGCNN/ML/data/TSD/clean_cifs/AMUFOF_clean'
_cell_length_a  9.10040
_cell_length_b  9.39720
_cell_length_c 14.92870
_cell_angle_alpha 82.08800
_cell_angle_beta  85.45800
_cell_angle_gamma 65.33500
_space_group_name_H-M_alt      'P 1'


loop_
_space_group_symop_operation_xyz
  'x, y, z' 

loop_
_atom_site_label
_atom_site_fract_x
_atom_site_fract_y
_atom_site_fract_z
_atom_site_type_symbol
Co         0.0      0.5      0.0    Co
O       0.0064   0.0008  0.78037     O
O       0.0135   0.1598  0.87066     O
C       0.0658   0.8787  0.17975     C
O      0.22069    0.452   0.9322     O
Co     0.23408  0.97443  0.83801    Co
O       0.2412   0.8241  0.95238     O
C       0.2429   0.7753  0.19123     C
H         0.25   0.7887   0.6699     H
H       0.2506   0.6811   0.2317     H
H       0.2616   0.6209   0.5759     H
H       0.2704   0.4993   0.4498     H
H       0.2741   0.4259   0.3093     H
O      0.27852   0.1743  0.75026     O
C       0.2845   0.8485  0.02449     C
O      0.28554  0.97934  0.03652     O
H       0.3094    0.956   0.2082     H
H       0.3147   0.6294   0.0872     H
H         0.32   0.8438   0.2986     H
C       0.3355   0.7177  0.10195     C
C       0.3391   0.8473  0.23366     C
C       0.3543   0.7568  0.69013     C
C       0.3585    0.343  0.94566     C
C       0.3596   0.5725   0.5453     C
C       0.3651   0.4982   0.4698     C
C       0.3827   0.3628  0.29895     C
C       0.3852   0.1557   0.8035     C
H        0.386   0.2578   0.1882     H
N       0.3892   0.8067  0.75984     N
O      0.39297  0.23924  0.01195     O
O      0.41662  0.04546  0.86899     O
H       0.4369   0.3349   0.7372     H
C       0.4453   0.2693  0.23244     C
H       0.4523   0.4538   0.8464     H
C       0.4815   0.2553  0.78911     C
C       0.4845   0.3431  0.87102     C
N       0.4883   0.6535  0.65111     N
C       0.4945   0.5749   0.5743     C
Co         0.5      0.0      0.0    Co
C       0.5055   0.4251   0.4257     C
N       0.5117   0.3465  0.34889     N
C       0.5155   0.6569  0.12898     C
C       0.5185   0.7447  0.21089     C
H       0.5477   0.5462   0.1536     H
C       0.5547   0.7307  0.76756     C
H       0.5631   0.6651   0.2628     H
O      0.58338  0.95454  0.13101     O
O      0.60703  0.76076  0.98805     O
N       0.6108   0.1933  0.24016     N
H        0.614   0.7422   0.8118     H
C       0.6148   0.8443   0.1965     C
C       0.6173   0.6372  0.70105     C
C       0.6349   0.5018   0.5302     C
C       0.6404   0.4275   0.4547     C
C       0.6415    0.657  0.05434     C
C       0.6457   0.2432  0.30987     C
C       0.6609   0.1527  0.76634     C
C       0.6645   0.2823  0.89805     C
H         0.68   0.1562   0.7014     H
H       0.6853   0.3706   0.9128     H
H       0.6906    0.044   0.7918     H
O      0.71446  0.02066  0.96348     O
C       0.7155   0.1515  0.97551     C
O      0.72148   0.8257  0.24974     O
H       0.7259   0.5741   0.6907     H
H       0.7296   0.5007   0.5502     H
H       0.7384   0.3791   0.4241     H
H       0.7494   0.3189   0.7683     H
H         0.75   0.2113   0.3301     H
C       0.7571   0.2247  0.80877     C
O       0.7588   0.1759  0.04762     O
Co     0.76592  0.02557  0.16199    Co
O      0.77931    0.548   0.0678     O
C       0.9342   0.1213  0.82025     C
O       0.9865   0.8402  0.12934     O
O       0.9936   0.9992  0.21963     O
