data_I
_chemical_name_common  '/home/zhangsd/repos/MofS-CGCNN/ML/data/TSD/clean_cifs/ANEHEI_clean'
_cell_length_a 14.92150
_cell_length_b 15.32260
_cell_length_c 15.98400
_cell_angle_alpha 72.66900
_cell_angle_beta  63.67600
_cell_angle_gamma 63.78800
_space_group_name_H-M_alt      'P 1'


loop_
_space_group_symop_operation_xyz
  'x, y, z' 

loop_
_atom_site_label
_atom_site_fract_x
_atom_site_fract_y
_atom_site_fract_z
_atom_site_type_symbol
C       0.0042   0.6239    0.529     C
C       0.0088   0.9329   0.2664     C
H       0.0141   0.1357     0.36     H
C       0.0194   0.2904   0.4382     C
H       0.0194   0.8486   0.3816     H
H       0.0236   0.0065   0.7065     H
C       0.0286   0.1721   0.3865     C
H       0.0291   0.0041   0.1271     H
N       0.0322   0.7364   0.5989     N
C       0.0438   0.5142   0.9022     C
H       0.0487   0.0854   0.7268     H
H       0.0595   0.8375   0.1289     H
H       0.0652   0.7408   0.2851     H
C       0.0663   0.4573   0.0553     C
H       0.0675    0.445   0.8957     H
N       0.0681   0.3717   0.5054     N
C       0.0701   0.8591    0.318     C
C       0.0747   0.5627   0.8028     C
C        0.075   0.9519   0.1585     C
N       0.0836   0.5437   0.5349     N
O       0.0862   0.6488   0.7881     O
H       0.0877   0.5793    0.957     H
H       0.0923   0.4918   0.5173     H
H       0.0939   0.4708   0.0928     H
O       0.0964   0.5262    0.733     O
H       0.0973   0.3872   0.0525     H
C       0.1005   0.5125   0.9533     C
C       0.1105   0.2094   0.4454     C
N       0.1138   0.1355   0.4131     N
C       0.1198   0.8551   0.1182     C
C        0.121   0.7628    0.276     C
O       0.1244   0.9592   0.3548     O
H       0.1279   0.5422   0.5565     H
H       0.1331   0.9706   0.1497     H
H       0.1367   0.7824   0.8333     H
C       0.1472   0.2945   0.5075     C
O       0.1477   0.8617   0.9592     O
C       0.1519   0.8864   0.3286     C
Zn     0.15749  0.65912   0.6474    Zn
H       0.1672   0.7129   0.3083     H
H       0.1767   0.4805   0.9205     H
N       0.1769   0.2077   0.4809     N
C       0.1797   0.8672   0.0167     C
C       0.1873   0.7769   0.1699     C
H       0.1922   0.2981   0.5312     H
N       0.2009   0.7783   0.6129     N
N        0.202   0.7572    0.795     N
C       0.2097   0.8254   0.5254     C
Zn     0.21081    0.996  0.39022    Zn
H       0.2172   0.7157   0.1444     H
C        0.227   0.8376   0.6421     C
C       0.2311    0.833   0.7271     C
N       0.2348   0.9074   0.5019     N
H       0.2441   0.7304   0.8268     H
H       0.2462   0.7943   0.1611     H
C       0.2478   0.9175   0.5779     C
O       0.2485   0.8176   0.3196     O
N       0.2603   0.9059    0.733     N
O       0.2666   0.8852   0.9853     O
O       0.2676   0.5582   0.5547     O
N       0.2743    0.989   0.5816     N
C       0.2787   0.9781   0.6673     C
H       0.2954   0.0234   0.6799     H
Zn     0.30185  0.89368  0.84601    Zn
O       0.3022   0.1779   0.6571     O
H       0.3046   0.3415   0.6838     H
Zn     0.31402  0.09747  0.48442    Zn
O       0.3179   0.5494   0.6678     O
H         0.32   0.9471    0.205     H
C       0.3312   0.5136   0.6011     C
N       0.3463   0.9968   0.2864     N
H       0.3506   0.3775   0.5073     H
H       0.3639   0.9472   0.9675     H
C       0.3666   0.9719   0.2053     C
H       0.3688   0.3617   0.7271     H
C       0.3743   0.3406   0.6729     C
C       0.3826   0.1724   0.5847     C
O       0.4012   0.1418   0.5115     O
H       0.4064   0.9861   0.0112     H
C       0.4076   0.4107   0.5848     C
N       0.4091   0.9708   0.9624     N
N       0.4103   0.0699   0.3537     N
C       0.4169   0.0325   0.2827     C
C        0.419    0.377   0.4997     C
H       0.4263   0.7273   0.5247     H
H       0.4311    0.195   0.7163     H
H       0.4405   0.4216   0.4439     H
N        0.444   0.9185   0.7746     N
N       0.4478   0.9787   0.1235     N
C       0.4552    0.239   0.6611     C
H       0.4622   0.8581   0.4316     H
C       0.4742   0.2023   0.5755     C
H       0.4775   0.7625   0.3427     H
H       0.4784   0.4073   0.5756     H
C       0.4817   0.9832   0.8806     C
H       0.4889   0.8722   0.6545     H
H       0.4907     0.75   0.5657     H
C       0.4957   0.0982   0.3132     C
C       0.4958   0.7279   0.5124     C
C       0.4984     0.96   0.7956     C
C       0.5016     0.04   0.2044     C
C       0.5042   0.2721   0.4876     C
C       0.5043   0.9018   0.6868     C
H       0.5093     0.25   0.4343     H
H       0.5111   0.1278   0.3455     H
C       0.5183   0.0168   0.1194     C
H       0.5216   0.5927   0.4244     H
H       0.5225   0.2375   0.6573     H
C       0.5258   0.7977   0.4245     C
H       0.5378   0.1419   0.5684     H
C       0.5448    0.761   0.3389     C
N       0.5522   0.0213   0.8765     N
N        0.556   0.0815   0.2254     N
H       0.5595   0.5784   0.5561     H
H       0.5689    0.805   0.2837     H
H       0.5737   0.2727   0.4753     H
C        0.581    0.623   0.5003     C
C       0.5831   0.9675   0.7173     C
N       0.5897   0.9301   0.6463     N
N       0.5909   0.0292   0.0376     N
C       0.5924   0.5893   0.4152     C
H       0.5936   0.0139   0.9888     H
O       0.5988   0.8582   0.4885     O
C       0.6174   0.8276   0.4153     C
C       0.6257   0.6594   0.3271     C
H       0.6312   0.6383   0.2729     H
C       0.6334   0.0281   0.7947     C
H       0.6361   0.0528   0.0325     H
H       0.6494   0.6225   0.4927     H
N       0.6537   0.0032   0.7136     N
C       0.6688   0.4864   0.3989     C
H         0.68   0.0529    0.795     H
O       0.6821   0.4506   0.3322     O
Zn     0.68598  0.90253  0.51558    Zn
H       0.6954   0.6585   0.3162     H
O       0.6978   0.8221   0.3429     O
Zn     0.69815  0.10632  0.15399    Zn
H       0.7046   0.9766   0.3201     H
C       0.7213   0.0219   0.3327     C
N       0.7257    0.011   0.4184     N
O       0.7324   0.4418   0.4453     O
O       0.7334   0.1148   0.0147     O
N       0.7397   0.0941    0.267     N
O       0.7515   0.1824   0.6804     O
C       0.7522   0.0825   0.4221     C
H       0.7538   0.2057   0.8389     H
H       0.7559   0.2696   0.1732     H
N       0.7652   0.0926   0.4981     N
C       0.7689    0.167   0.2729     C
C        0.773   0.1624   0.3579     C
H       0.7828   0.2843   0.8556     H
Zn     0.78919    0.004  0.60978    Zn
C       0.7903   0.1746   0.4746     C
N        0.798   0.2428    0.205     N
N       0.7991   0.2217   0.3871     N
H       0.8078   0.7019   0.4688     H
C       0.8127   0.2231   0.8301     C
C       0.8203   0.1328   0.9833     C
N       0.8231   0.7923   0.5191     N
H       0.8233   0.5195   0.0795     H
H       0.8328   0.2871   0.6917     H
Zn     0.84251  0.34088   0.3526    Zn
C       0.8481   0.1136   0.6714     C
O       0.8523   0.1383   0.0408     O
C       0.8528   0.7055   0.4925     C
H       0.8633   0.2176   0.1667     H
H       0.8669   0.0294   0.8503     H
H       0.8721   0.4578   0.4435     H
O       0.8756   0.0408   0.6452     O
C        0.879   0.2372    0.724     C
C       0.8802   0.1449   0.8818     C
N       0.8862   0.8645   0.5869     N
C       0.8895   0.7906   0.5546     C
C       0.8995   0.4875   0.0467     C
H       0.9027   0.6128   0.9475     H
O       0.9036   0.4738    0.267     O
H       0.9061   0.5292   0.9072     H
H       0.9077   0.5082   0.4827     H
H       0.9123   0.4207    0.043     H
O       0.9138   0.3512   0.2119     O
N       0.9164   0.4563   0.4651     N
C        0.925   0.0481   0.8415     C
C       0.9253   0.4373   0.1972     C
C       0.9299   0.1409    0.682     C
N       0.9319   0.6283   0.4946     N
H       0.9325    0.555   0.1043     H
C       0.9337   0.5427   0.9447     C
H       0.9348   0.2592   0.7149     H
H       0.9405   0.1625   0.8711     H
H       0.9513   0.9146   0.2732     H
C       0.9562   0.4858   0.0978     C
N       0.9678   0.2636   0.4011     N
H       0.9709   0.9959   0.8729     H
C       0.9714   0.8279   0.6135     C
H       0.9764   0.9935   0.2935     H
H       0.9806   0.1514   0.6184     H
C       0.9806   0.7096   0.5618     C
H       0.9859   0.8643     0.64     H
C       0.9912   0.0671   0.7336     C
C       0.9958   0.3761    0.471     C
