data_I
_chemical_name_common  '/home/zhangsd/repos/MofS-CGCNN/ML/data/TSD/clean_cifs/APAZIC_clean'
_cell_length_a 13.99990
_cell_length_b 14.64700
_cell_length_c 42.04000
_cell_angle_alpha 90.00000
_cell_angle_beta  97.94800
_cell_angle_gamma 90.00000
_space_group_name_H-M_alt      'P 1'


loop_
_space_group_symop_operation_xyz
  'x, y, z' 

loop_
_atom_site_label
_atom_site_fract_x
_atom_site_fract_y
_atom_site_fract_z
_atom_site_type_symbol
C       0.0068   0.6121  0.92864     C
C       0.0068   0.8879  0.42864     C
C       0.0123    0.729  0.44043     C
C       0.0123    0.771  0.94043     C
C       0.0189   0.6077  0.77721     C
C       0.0189   0.8923  0.27721     C
H       0.0237   0.5522   0.9342     H
H       0.0237   0.9478   0.4342     H
H       0.0313   0.6808   0.4543     H
H       0.0313   0.8192   0.9543     H
H        0.033   0.6585   0.8223     H
H        0.033   0.8415   0.3223     H
H       0.0335   0.5387   0.7366     H
H       0.0335   0.9613   0.2366     H
C       0.0336   0.6825  0.95072     C
C       0.0336   0.8175  0.45072     C
C       0.0354   0.2106   0.0893     C
C       0.0354   0.2894   0.5893     C
C       0.0437   0.1297  0.60087     C
C       0.0437   0.3703  0.10087     C
H       0.0462   0.1504   0.0958     H
H       0.0462   0.3496   0.5958     H
C       0.0576   0.5437  0.75823     C
C       0.0576   0.9563  0.25823     C
C       0.0595   0.6167  0.80933     C
C       0.0595   0.8833  0.30933     C
H       0.0617   0.0818   0.6149     H
H       0.0617   0.4182   0.1149     H
C       0.0653    0.168  0.73601     C
C       0.0653    0.332  0.23601     C
C       0.0682   0.2181  0.60999     C
C       0.0682   0.2819  0.10999     C
H       0.0779   0.5268    0.982     H
H       0.0779   0.9732    0.482     H
C       0.0873   0.6645  0.98441     C
C       0.0873   0.8355  0.48441     C
O       0.0937   0.2267  0.71748     O
O       0.0937   0.2733  0.21748     O
C       0.1001   0.5752  0.99538     C
C       0.1001   0.9248  0.49538     C
O        0.102   0.1557  0.76415     O
O        0.102   0.3443  0.26415     O
H       0.1118   0.7034    0.497     H
H       0.1118   0.7966    0.997     H
C       0.1204   0.7368  0.00433     C
C       0.1204   0.7632  0.50433     C
C       0.1295   0.2395  0.64123     C
C       0.1295   0.2605  0.14123     C
C        0.131    0.012  0.27131     C
C        0.131    0.488  0.77131     C
O       0.1331   0.1803  0.15156     O
O       0.1331   0.3197  0.65156     O
C       0.1389   0.5645  0.82249     C
C       0.1389   0.9355  0.32249     C
C       0.1461   0.5583  0.02627     C
C       0.1461   0.9417  0.52627     C
H       0.1547   0.0015   0.5336     H
H       0.1547   0.4985   0.0336     H
H       0.1577   0.7147    0.858     H
H       0.1577   0.7853    0.358     H
O       0.1594   0.0713   0.2207     O
O       0.1594   0.4287   0.7207     O
C       0.1664   0.7199  0.03523     C
C       0.1664   0.7801  0.53523     C
C       0.1714   0.0019  0.30356     C
C       0.1714   0.4981  0.80356     C
C       0.1716   0.0825  0.25053     C
C       0.1716   0.4175  0.75053     C
O       0.1741   0.1764  0.65732     O
O       0.1741   0.3236  0.15732     O
C       0.1793   0.6306   0.0462     C
C       0.1793   0.8694   0.5462     C
C       0.1837   0.5801  0.85615     C
C       0.1837   0.9199  0.35615     C
C        0.186   0.6659  0.86993     C
C        0.186   0.8341  0.36993     C
H       0.1886   0.7317   0.5486     H
H       0.1886   0.7683   0.0486     H
H       0.2046   0.0219    0.581     H
H       0.2046   0.4781    0.081     H
O       0.2157   0.1505  0.26355     O
O       0.2157   0.3495  0.76355     O
H       0.2208   0.0407   0.3122     H
H       0.2208   0.4593   0.8122     H
C       0.2269   0.5092  0.87539     C
C       0.2269   0.6123  0.07975     C
C       0.2269   0.8877  0.57975     C
C       0.2269   0.9908  0.37539     C
H       0.2275   0.0498   0.3672     H
H       0.2275   0.4502   0.8672     H
H       0.2297   0.7396   0.9097     H
H       0.2297   0.7604   0.4097     H
C       0.2298   0.6808  0.90129     C
C       0.2298   0.8192  0.40129     C
C       0.2312   0.5268  0.09341     C
C       0.2312   0.9732  0.59341     C
La     0.24569  0.21252  0.20248    La
La     0.24569  0.28748  0.70248    La
La     0.25431  0.21252  0.79752    La
La     0.25431  0.28748  0.29752    La
C       0.2688   0.5268  0.90659     C
C       0.2688   0.9732  0.40659     C
C       0.2702   0.6808  0.09871     C
C       0.2702   0.8192  0.59871     C
H       0.2703   0.7396   0.0903     H
H       0.2703   0.7604   0.5903     H
H       0.2725   0.0498   0.6328     H
H       0.2725   0.4502   0.1328     H
C       0.2731   0.5092  0.12461     C
C       0.2731   0.6123  0.92025     C
C       0.2731   0.8877  0.42025     C
C       0.2731   0.9908  0.62461     C
H       0.2792   0.0407   0.6878     H
H       0.2792   0.4593   0.1878     H
O       0.2843   0.1505  0.73645     O
O       0.2843   0.3495  0.23645     O
H       0.2954   0.0219    0.419     H
H       0.2954   0.4781    0.919     H
H       0.3114   0.7317   0.4514     H
H       0.3114   0.7683   0.9514     H
C        0.314   0.6659  0.13007     C
C        0.314   0.8341  0.63007     C
C       0.3163   0.5801  0.14385     C
C       0.3163   0.9199  0.64385     C
C       0.3207   0.6306   0.9538     C
C       0.3207   0.8694   0.4538     C
O       0.3259   0.1764  0.34268     O
O       0.3259   0.3236  0.84268     O
C       0.3284   0.0825  0.74947     C
C       0.3284   0.4175  0.24947     C
C       0.3286   0.0019  0.69644     C
C       0.3286   0.4981  0.19644     C
C       0.3336   0.7199  0.96477     C
C       0.3336   0.7801  0.46477     C
O       0.3406   0.0713   0.7793     O
O       0.3406   0.4287   0.2793     O
H       0.3423   0.7147    0.142     H
H       0.3423   0.7853    0.642     H
H       0.3453   0.0015   0.4664     H
H       0.3453   0.4985   0.9664     H
C       0.3539   0.5583  0.97373     C
C       0.3539   0.9417  0.47373     C
C       0.3611   0.5645  0.17751     C
C       0.3611   0.9355  0.67751     C
O       0.3669   0.1803  0.84844     O
O       0.3669   0.3197  0.34844     O
C        0.369    0.012  0.72869     C
C        0.369    0.488  0.22869     C
C       0.3705   0.2395  0.35877     C
C       0.3705   0.2605  0.85877     C
C       0.3796   0.7368  0.99567     C
C       0.3796   0.7632  0.49567     C
H       0.3882   0.7034    0.503     H
H       0.3882   0.7966    0.003     H
O        0.398   0.1557  0.23585     O
O        0.398   0.3443  0.73585     O
C       0.3999   0.5752  0.00462     C
C       0.3999   0.9248  0.50462     C
O       0.4063   0.2267  0.28252     O
O       0.4063   0.2733  0.78252     O
C       0.4127   0.6645  0.01559     C
C       0.4127   0.8355  0.51559     C
H       0.4221   0.5268    0.018     H
H       0.4221   0.9732    0.518     H
C       0.4318   0.2181  0.39001     C
C       0.4318   0.2819  0.89001     C
C       0.4347    0.168  0.26399     C
C       0.4347    0.332  0.76399     C
H       0.4383   0.0818   0.3851     H
H       0.4383   0.4182   0.8851     H
C       0.4405   0.6167  0.19067     C
C       0.4405   0.8833  0.69067     C
C       0.4424   0.5437  0.24177     C
C       0.4424   0.9563  0.74177     C
H       0.4538   0.1504   0.9042     H
H       0.4538   0.3496   0.4042     H
C       0.4563   0.1297  0.39913     C
C       0.4563   0.3703  0.89913     C
C       0.4646   0.2106   0.9107     C
C       0.4646   0.2894   0.4107     C
C       0.4664   0.6825  0.04928     C
C       0.4664   0.8175  0.54928     C
H       0.4665   0.5387   0.2634     H
H       0.4665   0.9613   0.7634     H
H        0.467   0.6585   0.1777     H
H        0.467   0.8415   0.6777     H
H       0.4687   0.6808   0.5457     H
H       0.4687   0.8192   0.0457     H
H       0.4763   0.5522   0.0658     H
H       0.4763   0.9478   0.5658     H
C       0.4811   0.6077  0.22279     C
C       0.4811   0.8923  0.72279     C
C       0.4877    0.729  0.55957     C
C       0.4877    0.771  0.05957     C
C       0.4932   0.6121  0.07136     C
C       0.4932   0.8879  0.57136     C
C       0.5068   0.1121  0.42864     C
C       0.5068   0.3879  0.92864     C
C       0.5123    0.229  0.94043     C
C       0.5123    0.271  0.44043     C
C       0.5189   0.1077  0.27721     C
C       0.5189   0.3923  0.77721     C
H       0.5237   0.0522   0.4342     H
H       0.5237   0.4478   0.9342     H
H       0.5313   0.1808   0.9543     H
H       0.5313   0.3192   0.4543     H
H        0.533   0.1585   0.3223     H
H        0.533   0.3415   0.8223     H
H       0.5335   0.0387   0.2366     H
H       0.5335   0.4613   0.7366     H
C       0.5336   0.1825  0.45072     C
C       0.5336   0.3175  0.95072     C
C       0.5354   0.7106   0.5893     C
C       0.5354   0.7894   0.0893     C
C       0.5437   0.6297  0.10087     C
C       0.5437   0.8703  0.60087     C
H       0.5462   0.6504   0.5958     H
H       0.5462   0.8496   0.0958     H
C       0.5576   0.0437  0.25823     C
C       0.5576   0.4563  0.75823     C
C       0.5595   0.1167  0.30933     C
C       0.5595   0.3833  0.80933     C
H       0.5617   0.5818   0.1149     H
H       0.5617   0.9182   0.6149     H
C       0.5653    0.668  0.23601     C
C       0.5653    0.832  0.73601     C
C       0.5682   0.7181  0.10999     C
C       0.5682   0.7819  0.60999     C
H       0.5779   0.0268    0.482     H
H       0.5779   0.4732    0.982     H
C       0.5873   0.1645  0.48441     C
C       0.5873   0.3355  0.98441     C
O       0.5937   0.7267  0.21748     O
O       0.5937   0.7733  0.71748     O
C       0.6001   0.0752  0.49538     C
C       0.6001   0.4248  0.99538     C
O        0.602   0.6557  0.26415     O
O        0.602   0.8443  0.76415     O
H       0.6118   0.2034    0.997     H
H       0.6118   0.2966    0.497     H
C       0.6204   0.2368  0.50433     C
C       0.6204   0.2632  0.00433     C
C       0.6295   0.7395  0.14123     C
C       0.6295   0.7605  0.64123     C
C        0.631    0.512  0.77131     C
C        0.631    0.988  0.27131     C
O       0.6331   0.6803  0.65156     O
O       0.6331   0.8197  0.15156     O
C       0.6389   0.0645  0.32249     C
C       0.6389   0.4355  0.82249     C
C       0.6461   0.0583  0.52627     C
C       0.6461   0.4417  0.02627     C
H       0.6547   0.5015   0.0336     H
H       0.6547   0.9985   0.5336     H
H       0.6577   0.2147    0.358     H
H       0.6577   0.2853    0.858     H
O       0.6594   0.5713   0.7207     O
O       0.6594   0.9287   0.2207     O
C       0.6664   0.2199  0.53523     C
C       0.6664   0.2801  0.03523     C
C       0.6714   0.5019  0.80356     C
C       0.6714   0.9981  0.30356     C
C       0.6716   0.5825  0.75053     C
C       0.6716   0.9175  0.25053     C
O       0.6741   0.6764  0.15732     O
O       0.6741   0.8236  0.65732     O
C       0.6793   0.1306   0.5462     C
C       0.6793   0.3694   0.0462     C
C       0.6837   0.0801  0.35615     C
C       0.6837   0.4199  0.85615     C
C        0.686   0.1659  0.36993     C
C        0.686   0.3341  0.86993     C
H       0.6886   0.2317   0.0486     H
H       0.6886   0.2683   0.5486     H
H       0.7046   0.5219    0.081     H
H       0.7046   0.9781    0.581     H
O       0.7157   0.6505  0.76355     O
O       0.7157   0.8495  0.26355     O
H       0.7208   0.5407   0.8122     H
H       0.7208   0.9593   0.3122     H
C       0.7269   0.0092  0.37539     C
C       0.7269   0.1123  0.57975     C
C       0.7269   0.3877  0.07975     C
C       0.7269   0.4908  0.87539     C
H       0.7275   0.5498   0.8672     H
H       0.7275   0.9502   0.3672     H
H       0.7297   0.2396   0.4097     H
H       0.7297   0.2604   0.9097     H
C       0.7298   0.1808  0.40129     C
C       0.7298   0.3192  0.90129     C
C       0.7312   0.0268  0.59341     C
C       0.7312   0.4732  0.09341     C
La     0.74569  0.71252  0.70248    La
La     0.74569  0.78748  0.20248    La
La     0.75431  0.71252  0.29752    La
La     0.75431  0.78748  0.79752    La
C       0.7688   0.0268  0.40659     C
C       0.7688   0.4732  0.90659     C
C       0.7702   0.1808  0.59871     C
C       0.7702   0.3192  0.09871     C
H       0.7703   0.2396   0.5903     H
H       0.7703   0.2604   0.0903     H
H       0.7725   0.5498   0.1328     H
H       0.7725   0.9502   0.6328     H
C       0.7731   0.0092  0.62461     C
C       0.7731   0.1123  0.42025     C
C       0.7731   0.3877  0.92025     C
C       0.7731   0.4908  0.12461     C
H       0.7792   0.5407   0.1878     H
H       0.7792   0.9593   0.6878     H
O       0.7843   0.6505  0.23645     O
O       0.7843   0.8495  0.73645     O
H       0.7954   0.5219    0.919     H
H       0.7954   0.9781    0.419     H
H       0.8114   0.2317   0.9514     H
H       0.8114   0.2683   0.4514     H
C        0.814   0.1659  0.63007     C
C        0.814   0.3341  0.13007     C
C       0.8163   0.0801  0.64385     C
C       0.8163   0.4199  0.14385     C
C       0.8207   0.1306   0.4538     C
C       0.8207   0.3694   0.9538     C
O       0.8259   0.6764  0.84268     O
O       0.8259   0.8236  0.34268     O
C       0.8284   0.5825  0.24947     C
C       0.8284   0.9175  0.74947     C
C       0.8286   0.5019  0.19644     C
C       0.8286   0.9981  0.69644     C
C       0.8336   0.2199  0.46477     C
C       0.8336   0.2801  0.96477     C
O       0.8406   0.5713   0.2793     O
O       0.8406   0.9287   0.7793     O
H       0.8423   0.2147    0.642     H
H       0.8423   0.2853    0.142     H
H       0.8453   0.5015   0.9664     H
H       0.8453   0.9985   0.4664     H
C       0.8539   0.0583  0.47373     C
C       0.8539   0.4417  0.97373     C
C       0.8611   0.0645  0.67751     C
C       0.8611   0.4355  0.17751     C
O       0.8669   0.6803  0.34844     O
O       0.8669   0.8197  0.84844     O
C        0.869    0.512  0.22869     C
C        0.869    0.988  0.72869     C
C       0.8705   0.7395  0.85877     C
C       0.8705   0.7605  0.35877     C
C       0.8796   0.2368  0.49567     C
C       0.8796   0.2632  0.99567     C
H       0.8882   0.2034    0.003     H
H       0.8882   0.2966    0.503     H
O        0.898   0.6557  0.73585     O
O        0.898   0.8443  0.23585     O
C       0.8999   0.0752  0.50462     C
C       0.8999   0.4248  0.00462     C
O       0.9063   0.7267  0.78252     O
O       0.9063   0.7733  0.28252     O
C       0.9127   0.1645  0.51559     C
C       0.9127   0.3355  0.01559     C
H       0.9221   0.0268    0.518     H
H       0.9221   0.4732    0.018     H
C       0.9318   0.7181  0.89001     C
C       0.9318   0.7819  0.39001     C
C       0.9347    0.668  0.76399     C
C       0.9347    0.832  0.26399     C
H       0.9383   0.5818   0.8851     H
H       0.9383   0.9182   0.3851     H
C       0.9405   0.1167  0.69067     C
C       0.9405   0.3833  0.19067     C
C       0.9424   0.0437  0.74177     C
C       0.9424   0.4563  0.24177     C
H       0.9538   0.6504   0.4042     H
H       0.9538   0.8496   0.9042     H
C       0.9563   0.6297  0.89913     C
C       0.9563   0.8703  0.39913     C
C       0.9646   0.7106   0.4107     C
C       0.9646   0.7894   0.9107     C
C       0.9664   0.1825  0.54928     C
C       0.9664   0.3175  0.04928     C
H       0.9665   0.0387   0.7634     H
H       0.9665   0.4613   0.2634     H
H        0.967   0.1585   0.6777     H
H        0.967   0.3415   0.1777     H
H       0.9687   0.1808   0.0457     H
H       0.9687   0.3192   0.5457     H
H       0.9763   0.0522   0.5658     H
H       0.9763   0.4478   0.0658     H
C       0.9811   0.1077  0.72279     C
C       0.9811   0.3923  0.22279     C
C       0.9877    0.229  0.05957     C
C       0.9877    0.271  0.55957     C
C       0.9932   0.1121  0.57136     C
C       0.9932   0.3879  0.07136     C
