data_I
_chemical_name_common  '/home/zhangsd/repos/MofS-CGCNN/ML/data/TSD/clean_cifs/APAZAU_clean'
_cell_length_a 42.14200
_cell_length_b 14.06500
_cell_length_c 13.87000
_cell_angle_alpha 90.00000
_cell_angle_beta  101.99600
_cell_angle_gamma 90.00000
_space_group_name_H-M_alt      'P 1'


loop_
_space_group_symop_operation_xyz
  'x, y, z' 

loop_
_atom_site_label
_atom_site_fract_x
_atom_site_fract_y
_atom_site_fract_z
_atom_site_type_symbol
C       0.0006   0.2478   0.8819     C
C       0.0006   0.7522   0.3819     C
C       0.0065   0.0801   0.5947     C
C       0.0065   0.9199   0.0947     C
H       0.0073   0.3097   0.6196     H
H       0.0073   0.6903   0.1196     H
C       0.0183   0.1726   0.5969     C
C       0.0183   0.8274   0.0969     C
H       0.0191   0.0298   0.5805     H
H       0.0191   0.9702   0.0805     H
C       0.0241   0.0628   0.8862     C
C       0.0241   0.9372   0.3862     C
C       0.0311   0.2305   0.8628     C
C       0.0311   0.7695   0.3628     C
H       0.0319   0.0009   0.8877     H
H       0.0319   0.9991   0.3877     H
C       0.0429    0.138    0.865     C
C       0.0429    0.862    0.365     C
H       0.0438   0.2808   0.8486     H
H       0.0438   0.7192   0.3486     H
H       0.0475    0.335   0.5699     H
H       0.0475    0.665   0.0699     H
C      0.05246   0.1921   0.5788     C
C      0.05246   0.8079   0.0788     C
C       0.0615   0.2852   0.5641     C
C       0.0615   0.7148   0.0641     C
H       0.0673   0.0553     0.58     H
H       0.0673   0.9447     0.08     H
C       0.0734   0.1176   0.5702     C
C       0.0734   0.8824   0.0702     C
C       0.0769   0.1198   0.8536     C
C       0.0769   0.8802   0.3536     C
H       0.0783   0.0245   0.3746     H
H       0.0783   0.9755   0.8746     H
H       0.0879   0.2582     0.82     H
H       0.0879   0.7418     0.32     H
C       0.0902   0.0272   0.8601     C
C       0.0902   0.9728   0.3601     C
C       0.0914   0.3038   0.5408     C
C       0.0914   0.6962   0.0408     C
C       0.0966   0.1973   0.8287     C
C       0.0966   0.8027   0.3287     C
H       0.0974    0.366    0.531     H
H       0.0974    0.634    0.031     H
C      0.10329   0.1362   0.5469     C
C      0.10329   0.8638   0.0469     C
C      0.11231   0.2293   0.5322     C
C      0.11231   0.7707   0.0322     C
H       0.1173   0.0863   0.5411     H
H       0.1173   0.9137   0.0411     H
C       0.1217   0.0145   0.8445     C
C       0.1217   0.9855   0.3445     C
C       0.1285   0.1819   0.8177     C
C       0.1285   0.8181   0.3177     C
H         0.13    0.047   0.3485     H
H         0.13    0.953   0.8485     H
C       0.1412   0.0869   0.8236     C
C       0.1412   0.9131   0.3236     C
H       0.1414   0.2328   0.8066     H
H       0.1414   0.7672   0.3066     H
C       0.1441    0.249   0.4995     C
C       0.1441    0.751   0.9995     C
O       0.1536   0.3324   0.5058     O
O       0.1536   0.6676   0.0058     O
O       0.1595    0.184   0.4747     O
O       0.1595    0.816   0.9747     O
C       0.1757   0.0722    0.813     C
C       0.1757   0.9278    0.313     C
H       0.1758   0.1713   0.7105     H
H       0.1758   0.8287   0.2105     H
H       0.1865    0.036   0.4115     H
H       0.1865    0.964   0.9115     H
C       0.1887   0.1258   0.7485     C
C       0.1887   0.8742   0.2485     C
C       0.1953   0.0031   0.8697     C
C       0.1953   0.9969   0.3697     C
Eu     0.20411  0.29234  0.45204    Eu
Eu     0.20411  0.70766  0.95204    Eu
O       0.2161   0.2399    0.619     O
O       0.2161   0.7601    0.119     O
C       0.2202   0.1147   0.7377     C
C       0.2202   0.8853   0.2377     C
O      0.22275   0.4327   0.5508     O
O      0.22275   0.5673   0.0508     O
C       0.2276   0.0077   0.3642     C
C       0.2276   0.9923   0.8642     C
C       0.2345   0.1763   0.6628     C
C       0.2345   0.8237   0.1628     C
O      0.23551    0.154   0.4514     O
O      0.23551    0.846   0.9514     O
H       0.2376   0.4521   0.2005     H
H       0.2376   0.5479   0.7005     H
O      0.23786   0.3376   0.3401     O
O      0.23786   0.6624   0.8401     O
C       0.2404    0.051   0.8004     C
C       0.2404    0.949   0.3004     C
C       0.2472   0.0788   0.4229     C
C       0.2472   0.9212   0.9229     C
C       0.2528   0.4212   0.5771     C
C       0.2528   0.5788   0.0771     C
C       0.2596    0.449   0.1996     C
C       0.2596    0.551   0.6996     C
O      0.26214   0.1624   0.6599     O
O      0.26214   0.8376   0.1599     O
H       0.2624   0.0479   0.7995     H
H       0.2624   0.9521   0.2995     H
O      0.26449    0.346   0.5486     O
O      0.26449    0.654   0.0486     O
C       0.2655   0.3237   0.3372     C
C       0.2655   0.6763   0.8372     C
C       0.2724   0.4923   0.6358     C
C       0.2724   0.5077   0.1358     C
O      0.27725   0.0673   0.4492     O
O      0.27725   0.9327   0.9492     O
C       0.2798   0.3853   0.2623     C
C       0.2798   0.6147   0.7623     C
O       0.2839   0.2601    0.381     O
O       0.2839   0.7399    0.881     O
Eu     0.29589  0.20766  0.54796    Eu
Eu     0.29589  0.79234  0.04796    Eu
C       0.3047   0.4969   0.1303     C
C       0.3047   0.5031   0.6303     C
C       0.3113   0.3742   0.2515     C
C       0.3113   0.6258   0.7515     C
H       0.3135    0.464   0.5885     H
H       0.3135    0.536   0.0885     H
H       0.3242   0.3287   0.2895     H
H       0.3242   0.6713   0.7895     H
C       0.3243   0.4278    0.187     C
C       0.3243   0.5722    0.687     C
O       0.3405    0.316   0.5253     O
O       0.3405    0.684   0.0253     O
O       0.3464   0.1676   0.4942     O
O       0.3464   0.8324   0.9942     O
C       0.3559    0.251   0.5005     C
C       0.3559    0.749   0.0005     C
H       0.3586   0.2672   0.1934     H
H       0.3586   0.7328   0.6934     H
C       0.3588   0.4131   0.1764     C
C       0.3588   0.5869   0.6764     C
H         0.37    0.453   0.6515     H
H         0.37    0.547   0.1515     H
C       0.3715   0.3181   0.1823     C
C       0.3715   0.6819   0.6823     C
C       0.3783   0.4855   0.1555     C
C       0.3783   0.5145   0.6555     C
H       0.3827   0.4137   0.4589     H
H       0.3827   0.5863   0.9589     H
C      0.38769   0.2707   0.4678     C
C      0.38769   0.7293   0.9678     C
C      0.39671   0.3638   0.4531     C
C      0.39671   0.6362   0.9531     C
H       0.4026    0.134    0.469     H
H       0.4026    0.866    0.969     H
C       0.4034   0.3027   0.1713     C
C       0.4034   0.6973   0.6713     C
C       0.4086   0.1962   0.4592     C
C       0.4086   0.8038   0.9592     C
C       0.4098   0.4728   0.1399     C
C       0.4098   0.5272   0.6399     C
H       0.4121   0.2418     0.18     H
H       0.4121   0.7582     0.68     H
H       0.4217   0.4755   0.6254     H
H       0.4217   0.5245   0.1254     H
C       0.4231   0.3802   0.1464     C
C       0.4231   0.6198   0.6464     C
C       0.4266   0.3824   0.4298     C
C       0.4266   0.6176   0.9298     C
H       0.4327   0.4447     0.42     H
H       0.4327   0.5553     0.92     H
C       0.4385   0.2148   0.4359     C
C       0.4385   0.7852   0.9359     C
C      0.44754   0.3079   0.4212     C
C      0.44754   0.6921   0.9212     C
H       0.4525    0.165   0.4301     H
H       0.4525    0.835   0.9301     H
H       0.4562   0.2192   0.1514     H
H       0.4562   0.7808   0.6514     H
C       0.4571    0.362    0.135     C
C       0.4571    0.638    0.635     C
H       0.4681   0.4991   0.1123     H
H       0.4681   0.5009   0.6123     H
C       0.4689   0.2695   0.1372     C
C       0.4689   0.7305   0.6372     C
C       0.4759   0.4372   0.1138     C
C       0.4759   0.5628   0.6138     C
H       0.4809   0.4702   0.4195     H
H       0.4809   0.5298   0.9195     H
C       0.4817   0.3274   0.4031     C
C       0.4817   0.6726   0.9031     C
H       0.4927   0.1903   0.3804     H
H       0.4927   0.8097   0.8804     H
C       0.4935   0.4199   0.4053     C
C       0.4935   0.5801   0.9053     C
C       0.4994   0.2522   0.1181     C
C       0.4994   0.7478   0.6181     C
C       0.5006   0.2522   0.3819     C
C       0.5006   0.7478   0.8819     C
C       0.5065   0.4199   0.0947     C
C       0.5065   0.5801   0.5947     C
H       0.5073   0.1903   0.1196     H
H       0.5073   0.8097   0.6196     H
C       0.5183   0.3274   0.0969     C
C       0.5183   0.6726   0.5969     C
H       0.5191   0.4702   0.0805     H
H       0.5191   0.5298   0.5805     H
C       0.5241   0.4372   0.3862     C
C       0.5241   0.5628   0.8862     C
C       0.5311   0.2695   0.3628     C
C       0.5311   0.7305   0.8628     C
H       0.5319   0.4991   0.3877     H
H       0.5319   0.5009   0.8877     H
C       0.5429    0.362    0.365     C
C       0.5429    0.638    0.865     C
H       0.5438   0.2192   0.3486     H
H       0.5438   0.7808   0.8486     H
H       0.5475    0.165   0.0699     H
H       0.5475    0.835   0.5699     H
C      0.55246   0.3079   0.0788     C
C      0.55246   0.6921   0.5788     C
C       0.5615   0.2148   0.0641     C
C       0.5615   0.7852   0.5641     C
H       0.5673   0.4447     0.08     H
H       0.5673   0.5553     0.58     H
C       0.5734   0.3824   0.0702     C
C       0.5734   0.6176   0.5702     C
C       0.5769   0.3802   0.3536     C
C       0.5769   0.6198   0.8536     C
H       0.5783   0.4755   0.8746     H
H       0.5783   0.5245   0.3746     H
H       0.5879   0.2418     0.32     H
H       0.5879   0.7582     0.82     H
C       0.5902   0.4728   0.3601     C
C       0.5902   0.5272   0.8601     C
C       0.5914   0.1962   0.0408     C
C       0.5914   0.8038   0.5408     C
C       0.5966   0.3027   0.3287     C
C       0.5966   0.6973   0.8287     C
H       0.5974    0.134    0.031     H
H       0.5974    0.866    0.531     H
C      0.60329   0.3638   0.0469     C
C      0.60329   0.6362   0.5469     C
C      0.61231   0.2707   0.0322     C
C      0.61231   0.7293   0.5322     C
H       0.6173   0.4137   0.0411     H
H       0.6173   0.5863   0.5411     H
C       0.6217   0.4855   0.3445     C
C       0.6217   0.5145   0.8445     C
C       0.6285   0.3181   0.3177     C
C       0.6285   0.6819   0.8177     C
H         0.63    0.453   0.8485     H
H         0.63    0.547   0.3485     H
C       0.6412   0.4131   0.3236     C
C       0.6412   0.5869   0.8236     C
H       0.6414   0.2672   0.3066     H
H       0.6414   0.7328   0.8066     H
C       0.6441    0.251   0.9995     C
C       0.6441    0.749   0.4995     C
O       0.6536   0.1676   0.0058     O
O       0.6536   0.8324   0.5058     O
O       0.6595    0.316   0.9747     O
O       0.6595    0.684   0.4747     O
C       0.6757   0.4278    0.313     C
C       0.6757   0.5722    0.813     C
H       0.6758   0.3287   0.2105     H
H       0.6758   0.6713   0.7105     H
H       0.6865    0.464   0.9115     H
H       0.6865    0.536   0.4115     H
C       0.6887   0.3742   0.2485     C
C       0.6887   0.6258   0.7485     C
C       0.6953   0.4969   0.3697     C
C       0.6953   0.5031   0.8697     C
Eu     0.70411  0.20766  0.95204    Eu
Eu     0.70411  0.79234  0.45204    Eu
O       0.7161   0.2601    0.119     O
O       0.7161   0.7399    0.619     O
C       0.7202   0.3853   0.2377     C
C       0.7202   0.6147   0.7377     C
O      0.72275   0.0673   0.0508     O
O      0.72275   0.9327   0.5508     O
C       0.7276   0.4923   0.8642     C
C       0.7276   0.5077   0.3642     C
C       0.7345   0.3237   0.1628     C
C       0.7345   0.6763   0.6628     C
O      0.73551    0.346   0.9514     O
O      0.73551    0.654   0.4514     O
H       0.7376   0.0479   0.7005     H
H       0.7376   0.9521   0.2005     H
O      0.73786   0.1624   0.8401     O
O      0.73786   0.8376   0.3401     O
C       0.7404    0.449   0.3004     C
C       0.7404    0.551   0.8004     C
C       0.7472   0.4212   0.9229     C
C       0.7472   0.5788   0.4229     C
C       0.7528   0.0788   0.0771     C
C       0.7528   0.9212   0.5771     C
C       0.7596    0.051   0.6996     C
C       0.7596    0.949   0.1996     C
O      0.76214   0.3376   0.1599     O
O      0.76214   0.6624   0.6599     O
H       0.7624   0.4521   0.2995     H
H       0.7624   0.5479   0.7995     H
O      0.76449    0.154   0.0486     O
O      0.76449    0.846   0.5486     O
C       0.7655   0.1763   0.8372     C
C       0.7655   0.8237   0.3372     C
C       0.7724   0.0077   0.1358     C
C       0.7724   0.9923   0.6358     C
O      0.77725   0.4327   0.9492     O
O      0.77725   0.5673   0.4492     O
C       0.7798   0.1147   0.7623     C
C       0.7798   0.8853   0.2623     C
O       0.7839   0.2399    0.881     O
O       0.7839   0.7601    0.381     O
Eu     0.79589  0.29234  0.04796    Eu
Eu     0.79589  0.70766  0.54796    Eu
C       0.8047   0.0031   0.6303     C
C       0.8047   0.9969   0.1303     C
C       0.8113   0.1258   0.7515     C
C       0.8113   0.8742   0.2515     C
H       0.8135    0.036   0.0885     H
H       0.8135    0.964   0.5885     H
H       0.8242   0.1713   0.7895     H
H       0.8242   0.8287   0.2895     H
C       0.8243   0.0722    0.687     C
C       0.8243   0.9278    0.187     C
O       0.8405    0.184   0.0253     O
O       0.8405    0.816   0.5253     O
O       0.8464   0.3324   0.9942     O
O       0.8464   0.6676   0.4942     O
C       0.8559    0.249   0.0005     C
C       0.8559    0.751   0.5005     C
H       0.8586   0.2328   0.6934     H
H       0.8586   0.7672   0.1934     H
C       0.8588   0.0869   0.6764     C
C       0.8588   0.9131   0.1764     C
H         0.87    0.047   0.1515     H
H         0.87    0.953   0.6515     H
C       0.8715   0.1819   0.6823     C
C       0.8715   0.8181   0.1823     C
C       0.8783   0.0145   0.6555     C
C       0.8783   0.9855   0.1555     C
H       0.8827   0.0863   0.9589     H
H       0.8827   0.9137   0.4589     H
C      0.88769   0.2293   0.9678     C
C      0.88769   0.7707   0.4678     C
C      0.89671   0.1362   0.9531     C
C      0.89671   0.8638   0.4531     C
H       0.9026    0.366    0.969     H
H       0.9026    0.634    0.469     H
C       0.9034   0.1973   0.6713     C
C       0.9034   0.8027   0.1713     C
C       0.9086   0.3038   0.9592     C
C       0.9086   0.6962   0.4592     C
C       0.9098   0.0272   0.6399     C
C       0.9098   0.9728   0.1399     C
H       0.9121   0.2582     0.68     H
H       0.9121   0.7418     0.18     H
H       0.9217   0.0245   0.1254     H
H       0.9217   0.9755   0.6254     H
C       0.9231   0.1198   0.6464     C
C       0.9231   0.8802   0.1464     C
C       0.9266   0.1176   0.9298     C
C       0.9266   0.8824   0.4298     C
H       0.9327   0.0553     0.92     H
H       0.9327   0.9447     0.42     H
C       0.9385   0.2852   0.9359     C
C       0.9385   0.7148   0.4359     C
C      0.94754   0.1921   0.9212     C
C      0.94754   0.8079   0.4212     C
H       0.9525    0.335   0.9301     H
H       0.9525    0.665   0.4301     H
H       0.9562   0.2808   0.6514     H
H       0.9562   0.7192   0.1514     H
C       0.9571    0.138    0.635     C
C       0.9571    0.862    0.135     C
H       0.9681   0.0009   0.6123     H
H       0.9681   0.9991   0.1123     H
C       0.9689   0.2305   0.6372     C
C       0.9689   0.7695   0.1372     C
C       0.9759   0.0628   0.6138     C
C       0.9759   0.9372   0.1138     C
H       0.9809   0.0298   0.9195     H
H       0.9809   0.9702   0.4195     H
C       0.9817   0.1726   0.9031     C
C       0.9817   0.8274   0.4031     C
H       0.9927   0.3097   0.8804     H
H       0.9927   0.6903   0.3804     H
C       0.9935   0.0801   0.9053     C
C       0.9935   0.9199   0.4053     C
C       0.9994   0.2478   0.6181     C
C       0.9994   0.7522   0.1181     C
