data_I
_chemical_name_common  '/home/zhangsd/repos/MofS-CGCNN/ML/data/TSD/clean_cifs/AQAJEI_clean'
_cell_length_a 19.76650
_cell_length_b 15.80120
_cell_length_c 16.96800
_cell_angle_alpha 90.00000
_cell_angle_beta  90.00000
_cell_angle_gamma 90.00000
_space_group_name_H-M_alt      'P 1'


loop_
_space_group_symop_operation_xyz
  'x, y, z' 

loop_
_atom_site_label
_atom_site_fract_x
_atom_site_fract_y
_atom_site_fract_z
_atom_site_type_symbol
C       0.0027   0.2098   0.0491     C
C       0.0027   0.7902   0.5491     C
H       0.0198   0.4543   0.1009     H
H       0.0198   0.5457   0.6009     H
C       0.0204   0.4359    0.422     C
C       0.0204   0.5641    0.922     C
C       0.0216    0.294   0.0363     C
C       0.0216    0.706   0.5363     C
N       0.0291   0.3585   0.4555     N
N       0.0291   0.6415   0.9555     N
H       0.0395   0.0908    0.048     H
H       0.0395   0.9092    0.548     H
H       0.0415   0.1961   0.4373     H
H       0.0415   0.8039   0.9373     H
C       0.0512   0.1474   0.0412     C
C       0.0512   0.8526   0.5412     C
N        0.076   0.4811   0.4263     N
N        0.076   0.5189   0.9263     N
C       0.0866   0.3161   0.0193     C
C       0.0866   0.6839   0.5193     C
C       0.0939   0.3578   0.4816     C
C       0.0939   0.6422   0.9816     C
H       0.0985   0.3726   0.0129     H
H       0.0985   0.6274   0.5129     H
H       0.1147   0.3127   0.5072     H
H       0.1147   0.6873   0.0072     H
H       0.1172   0.4198   0.2459     H
H       0.1172   0.5802   0.7459     H
C       0.1176   0.1693    0.023     C
C       0.1176   0.8307    0.523     C
N       0.1229   0.4305   0.4655     N
N       0.1229   0.5695   0.9655     N
C       0.1344   0.2527   0.0119     C
C       0.1344   0.7473   0.5119     C
N       0.1431   0.4827   0.1508     N
N       0.1431   0.5173   0.6508     N
C        0.147   0.4248   0.2037     C
C        0.147   0.5752   0.7037     C
O       0.1547   0.0255   0.0244     O
O       0.1547   0.9745   0.5244     O
C       0.1701   0.1003   0.0169     C
C       0.1701   0.8997   0.5169     C
H       0.1788   0.2669   0.9991     H
H       0.1788   0.7331   0.4991     H
N       0.1972   0.4673      0.1     N
N       0.1972   0.5327      0.6     N
N       0.2002   0.3714   0.1908     N
N       0.2002   0.6286   0.6908     N
H       0.2024   0.3484   0.3425     H
H       0.2024   0.6516   0.8425     H
C       0.2137   0.2987   0.3162     C
C       0.2137   0.7013   0.8162     C
Zn     0.21462  0.47712  0.49343    Zn
Zn     0.21462  0.52288  0.99343    Zn
C       0.2178   0.2975   0.2347     C
C       0.2178   0.7025   0.7347     C
H        0.223   0.2256   0.4126     H
H        0.223   0.7744   0.9126     H
C       0.2265   0.2256    0.358     C
C       0.2265   0.7744    0.858     C
C       0.2297   0.4009   0.1259     C
C       0.2297   0.5991   0.6259     C
O         0.23   0.1247   0.0019     O
O         0.23   0.8753   0.5019     O
O       0.2311   0.4174    0.938     O
O       0.2311   0.5826    0.438     O
H       0.2321   0.1223   0.6024     H
H       0.2321   0.8777   0.1024     H
C       0.2355   0.2251   0.1942     C
C       0.2355   0.7749   0.6942     C
O       0.2367   0.4964   0.8307     O
O       0.2367   0.5036   0.3307     O
H       0.2381   0.2252   0.1395     H
H       0.2381   0.7748   0.6395     H
H       0.2382    0.398    0.711     H
H       0.2382    0.602    0.211     H
C       0.2402    0.428   0.8646     C
C       0.2402    0.572   0.3646     C
C       0.2448   0.1518   0.3187     C
C       0.2448   0.8482   0.8187     C
C       0.2494   0.1513   0.2372     C
C       0.2494   0.8487   0.7372     C
C       0.2506   0.3487   0.7372     C
C       0.2506   0.6513   0.2372     C
C       0.2552   0.3482   0.8187     C
C       0.2552   0.6518   0.3187     C
C       0.2598    0.072   0.3646     C
C       0.2598    0.928   0.8646     C
H       0.2618    0.102    0.211     H
H       0.2618    0.898    0.711     H
H       0.2619   0.2748   0.6395     H
H       0.2619   0.7252   0.1395     H
O       0.2633   0.0036   0.3307     O
O       0.2633   0.9964   0.8307     O
C       0.2645   0.2749   0.6942     C
C       0.2645   0.7251   0.1942     C
H       0.2679   0.3777   0.1024     H
H       0.2679   0.6223   0.6024     H
O       0.2689   0.0826    0.438     O
O       0.2689   0.9174    0.938     O
O         0.27   0.3753   0.5019     O
O         0.27   0.6247   0.0019     O
C       0.2703   0.0991   0.6259     C
C       0.2703   0.9009   0.1259     C
C       0.2735   0.2744    0.858     C
C       0.2735   0.7256    0.358     C
H        0.277   0.2744   0.9126     H
H        0.277   0.7256   0.4126     H
C       0.2822   0.2025   0.7347     C
C       0.2822   0.7975   0.2347     C
Zn     0.28538  0.02288  0.99343    Zn
Zn     0.28538  0.97712  0.49343    Zn
C       0.2863   0.2013   0.8162     C
C       0.2863   0.7987   0.3162     C
H       0.2976   0.1516   0.8425     H
H       0.2976   0.8484   0.3425     H
N       0.2998   0.1286   0.6908     N
N       0.2998   0.8714   0.1908     N
N       0.3028   0.0327      0.6     N
N       0.3028   0.9673      0.1     N
H       0.3212   0.2331   0.4991     H
H       0.3212   0.7669   0.9991     H
C       0.3299   0.3997   0.5169     C
C       0.3299   0.6003   0.0169     C
O       0.3453   0.4745   0.5244     O
O       0.3453   0.5255   0.0244     O
C        0.353   0.0752   0.7037     C
C        0.353   0.9248   0.2037     C
N       0.3569   0.0173   0.6508     N
N       0.3569   0.9827   0.1508     N
C       0.3656   0.2473   0.5119     C
C       0.3656   0.7527   0.0119     C
N       0.3771   0.0695   0.9655     N
N       0.3771   0.9305   0.4655     N
C       0.3824   0.3307    0.523     C
C       0.3824   0.6693    0.023     C
H       0.3828   0.0802   0.7459     H
H       0.3828   0.9198   0.2459     H
H       0.3853   0.1873   0.0072     H
H       0.3853   0.8127   0.5072     H
H       0.4015   0.1274   0.5129     H
H       0.4015   0.8726   0.0129     H
C       0.4061   0.1422   0.9816     C
C       0.4061   0.8578   0.4816     C
C       0.4134   0.1839   0.5193     C
C       0.4134   0.8161   0.0193     C
N        0.424   0.0189   0.9263     N
N        0.424   0.9811   0.4263     N
C       0.4488   0.3526   0.5412     C
C       0.4488   0.6474   0.0412     C
H       0.4585   0.3039   0.9373     H
H       0.4585   0.6961   0.4373     H
H       0.4605   0.4092    0.548     H
H       0.4605   0.5908    0.048     H
N       0.4709   0.1415   0.9555     N
N       0.4709   0.8585   0.4555     N
C       0.4784    0.206   0.5363     C
C       0.4784    0.794   0.0363     C
C       0.4796   0.0641    0.922     C
C       0.4796   0.9359    0.422     C
H       0.4802   0.0457   0.6009     H
H       0.4802   0.9543   0.1009     H
C       0.4973   0.2902   0.5491     C
C       0.4973   0.7098   0.0491     C
C       0.5027   0.2902   0.9509     C
C       0.5027   0.7098   0.4509     C
H       0.5198   0.0457   0.8991     H
H       0.5198   0.9543   0.3991     H
C       0.5204   0.0641    0.578     C
C       0.5204   0.9359    0.078     C
C       0.5216    0.206   0.9637     C
C       0.5216    0.794   0.4637     C
N       0.5291   0.1415   0.5445     N
N       0.5291   0.8585   0.0445     N
H       0.5395   0.4092    0.952     H
H       0.5395   0.5908    0.452     H
H       0.5415   0.3039   0.5627     H
H       0.5415   0.6961   0.0627     H
C       0.5512   0.3526   0.9588     C
C       0.5512   0.6474   0.4588     C
N        0.576   0.0189   0.5737     N
N        0.576   0.9811   0.0737     N
C       0.5866   0.1839   0.9807     C
C       0.5866   0.8161   0.4807     C
C       0.5939   0.1422   0.5184     C
C       0.5939   0.8578   0.0184     C
H       0.5985   0.1274   0.9871     H
H       0.5985   0.8726   0.4871     H
H       0.6147   0.1873   0.4928     H
H       0.6147   0.8127   0.9928     H
H       0.6172   0.0802   0.7541     H
H       0.6172   0.9198   0.2541     H
C       0.6176   0.3307    0.977     C
C       0.6176   0.6693    0.477     C
N       0.6229   0.0695   0.5345     N
N       0.6229   0.9305   0.0345     N
C       0.6344   0.2473   0.9881     C
C       0.6344   0.7527   0.4881     C
N       0.6431   0.0173   0.8492     N
N       0.6431   0.9827   0.3492     N
C        0.647   0.0752   0.7963     C
C        0.647   0.9248   0.2963     C
O       0.6547   0.4745   0.9756     O
O       0.6547   0.5255   0.4756     O
C       0.6701   0.3997   0.9831     C
C       0.6701   0.6003   0.4831     C
H       0.6788   0.2331   0.0009     H
H       0.6788   0.7669   0.5009     H
N       0.6972   0.0327      0.9     N
N       0.6972   0.9673      0.4     N
N       0.7002   0.1286   0.8092     N
N       0.7002   0.8714   0.3092     N
H       0.7024   0.1516   0.6575     H
H       0.7024   0.8484   0.1575     H
C       0.7137   0.2013   0.6838     C
C       0.7137   0.7987   0.1838     C
Zn     0.71462  0.02288  0.50657    Zn
Zn     0.71462  0.97712  0.00657    Zn
C       0.7178   0.2025   0.7653     C
C       0.7178   0.7975   0.2653     C
H        0.723   0.2744   0.5874     H
H        0.723   0.7256   0.0874     H
C       0.7265   0.2744    0.642     C
C       0.7265   0.7256    0.142     C
C       0.7297   0.0991   0.8741     C
C       0.7297   0.9009   0.3741     C
O         0.73   0.3753   0.9981     O
O         0.73   0.6247   0.4981     O
O       0.7311   0.0826    0.062     O
O       0.7311   0.9174    0.562     O
H       0.7321   0.3777   0.3976     H
H       0.7321   0.6223   0.8976     H
C       0.7355   0.2749   0.8058     C
C       0.7355   0.7251   0.3058     C
O       0.7367   0.0036   0.1693     O
O       0.7367   0.9964   0.6693     O
H       0.7381   0.2748   0.8605     H
H       0.7381   0.7252   0.3605     H
H       0.7382    0.102    0.289     H
H       0.7382    0.898    0.789     H
C       0.7402    0.072   0.1354     C
C       0.7402    0.928   0.6354     C
C       0.7448   0.3482   0.6813     C
C       0.7448   0.6518   0.1813     C
C       0.7494   0.3487   0.7628     C
C       0.7494   0.6513   0.2628     C
C       0.7506   0.1513   0.2628     C
C       0.7506   0.8487   0.7628     C
C       0.7552   0.1518   0.1813     C
C       0.7552   0.8482   0.6813     C
C       0.7598    0.428   0.6354     C
C       0.7598    0.572   0.1354     C
H       0.7618    0.398    0.789     H
H       0.7618    0.602    0.289     H
H       0.7619   0.2252   0.3605     H
H       0.7619   0.7748   0.8605     H
O       0.7633   0.4964   0.6693     O
O       0.7633   0.5036   0.1693     O
C       0.7645   0.2251   0.3058     C
C       0.7645   0.7749   0.8058     C
H       0.7679   0.1223   0.8976     H
H       0.7679   0.8777   0.3976     H
O       0.7689   0.4174    0.562     O
O       0.7689   0.5826    0.062     O
O         0.77   0.1247   0.4981     O
O         0.77   0.8753   0.9981     O
C       0.7703   0.4009   0.3741     C
C       0.7703   0.5991   0.8741     C
C       0.7735   0.2256    0.142     C
C       0.7735   0.7744    0.642     C
H        0.777   0.2256   0.0874     H
H        0.777   0.7744   0.5874     H
C       0.7822   0.2975   0.2653     C
C       0.7822   0.7025   0.7653     C
Zn     0.78538  0.47712  0.00657    Zn
Zn     0.78538  0.52288  0.50657    Zn
C       0.7863   0.2987   0.1838     C
C       0.7863   0.7013   0.6838     C
H       0.7976   0.3484   0.1575     H
H       0.7976   0.6516   0.6575     H
N       0.7998   0.3714   0.3092     N
N       0.7998   0.6286   0.8092     N
N       0.8028   0.4673      0.4     N
N       0.8028   0.5327      0.9     N
H       0.8212   0.2669   0.5009     H
H       0.8212   0.7331   0.0009     H
C       0.8299   0.1003   0.4831     C
C       0.8299   0.8997   0.9831     C
O       0.8453   0.0255   0.4756     O
O       0.8453   0.9745   0.9756     O
C        0.853   0.4248   0.2963     C
C        0.853   0.5752   0.7963     C
N       0.8569   0.4827   0.3492     N
N       0.8569   0.5173   0.8492     N
C       0.8656   0.2527   0.4881     C
C       0.8656   0.7473   0.9881     C
N       0.8771   0.4305   0.0345     N
N       0.8771   0.5695   0.5345     N
C       0.8824   0.1693    0.477     C
C       0.8824   0.8307    0.977     C
H       0.8828   0.4198   0.2541     H
H       0.8828   0.5802   0.7541     H
H       0.8853   0.3127   0.9928     H
H       0.8853   0.6873   0.4928     H
H       0.9015   0.3726   0.4871     H
H       0.9015   0.6274   0.9871     H
C       0.9061   0.3578   0.0184     C
C       0.9061   0.6422   0.5184     C
C       0.9134   0.3161   0.4807     C
C       0.9134   0.6839   0.9807     C
N        0.924   0.4811   0.0737     N
N        0.924   0.5189   0.5737     N
C       0.9488   0.1474   0.4588     C
C       0.9488   0.8526   0.9588     C
H       0.9585   0.1961   0.0627     H
H       0.9585   0.8039   0.5627     H
H       0.9605   0.0908    0.452     H
H       0.9605   0.9092    0.952     H
N       0.9709   0.3585   0.0445     N
N       0.9709   0.6415   0.5445     N
C       0.9784    0.294   0.4637     C
C       0.9784    0.706   0.9637     C
C       0.9796   0.4359    0.078     C
C       0.9796   0.5641    0.578     C
H       0.9802   0.4543   0.3991     H
H       0.9802   0.5457   0.8991     H
C       0.9973   0.2098   0.4509     C
C       0.9973   0.7902   0.9509     C
