data_I
_chemical_name_common  '/home/zhangsd/repos/MofS-CGCNN/ML/data/TSD/clean_cifs/AQOSEG_clean'
_cell_length_a 35.10440
_cell_length_b 35.10440
_cell_length_c 11.73520
_cell_angle_alpha 90.00000
_cell_angle_beta  90.00000
_cell_angle_gamma 90.00000
_space_group_name_H-M_alt      'P 1'


loop_
_space_group_symop_operation_xyz
  'x, y, z' 

loop_
_atom_site_label
_atom_site_fract_x
_atom_site_fract_y
_atom_site_fract_z
_atom_site_type_symbol
H       0.0228   0.1936   0.3217     H
H       0.0228   0.6936   0.6783     H
N       0.0234   0.2062    0.485     N
N       0.0234   0.7062    0.515     N
N       0.0252   0.1715    0.938     N
N       0.0252   0.6715    0.062     N
Cu     0.03095  0.29158   0.5274    Cu
Cu     0.03095  0.79158   0.4726    Cu
H       0.0365    0.129   0.0508     H
H       0.0365    0.629   0.9492     H
C        0.037   0.1951    0.388     C
C        0.037   0.6951    0.612     C
N       0.0379   0.1751   0.8232     N
N       0.0379   0.6751   0.1768     N
C        0.041   0.1393    0.979     C
C        0.041   0.6393    0.021     C
Cu     0.04158  0.21905   0.7226    Cu
Cu     0.04158  0.71905   0.2774    Cu
H        0.042   0.3295   0.0619     H
H        0.042   0.8295   0.9381     H
N       0.0438   0.2734    0.765     N
N       0.0438   0.7734    0.235     N
H       0.0455   0.0615    0.998     H
H       0.0455   0.5615    0.002     H
N       0.0462   0.3026   0.6882     N
N       0.0462   0.8026   0.3118     N
N       0.0526   0.2038   0.5618     N
N       0.0526   0.7038   0.4382     N
C       0.0549    0.287    0.862     C
C       0.0549    0.787    0.138     C
H       0.0564   0.2728   0.9283     H
H       0.0564   0.7728   0.0717     H
C       0.0584   0.3321    0.743     C
C       0.0584   0.8321    0.257     C
C       0.0613   0.1464    0.809     C
C       0.0613   0.6464    0.191     C
C       0.0619   0.3465    0.049     C
C       0.0619   0.8465    0.951     C
H       0.0628   0.3558   0.7104     H
H       0.0628   0.8558   0.2896     H
N       0.0639   0.3242   0.8546     N
N       0.0639   0.8242   0.1454     N
N       0.0641   0.1244   0.9012     N
N       0.0641   0.6244   0.0988     N
H       0.0666   0.3678   0.2142     H
H       0.0666   0.8678   0.7858     H
C       0.0699   0.0596    0.968     C
C       0.0699   0.5596    0.032     C
N       0.0742   0.1861   0.3954     N
N       0.0742   0.6861   0.6046     N
H       0.0746   0.1419   0.7422     H
H       0.0746   0.6419   0.2578     H
N       0.0749   0.2879   0.4268     N
N       0.0749   0.7879   0.5732     N
C       0.0762   0.3697    0.141     C
C       0.0762   0.8697    0.859     C
C       0.0781   0.3497    0.941     C
C       0.0781   0.8497    0.059     C
N       0.0785   0.2752    0.312     N
N       0.0785   0.7752    0.688     N
H       0.0795    0.208   0.1881     H
H       0.0795    0.708   0.8119     H
C       0.0821   0.1916    0.507     C
C       0.0821   0.6916    0.493     C
H       0.0828   0.0064   0.0258     H
H       0.0828   0.5064   0.9742     H
C       0.0857   0.0883    0.916     C
C       0.0857   0.5883    0.084     C
C       0.0907   0.0258    0.977     C
C       0.0907   0.5258    0.023     C
C       0.0965   0.1881    0.201     C
C       0.0965   0.6881    0.799     C
C       0.0997   0.1719    0.309     C
C       0.0997   0.6719    0.691     C
C       0.1036   0.3113    0.441     C
C       0.1036   0.8113    0.559     C
C       0.1053   0.3953    0.113     C
C       0.1053   0.8953    0.887     C
H       0.1058   0.1872   0.5396     H
H       0.1058   0.6872   0.4604     H
C       0.1066   0.3753    0.915     C
C       0.1066   0.8753    0.085     C
H       0.1081   0.3246   0.5078     H
H       0.1081   0.8246   0.4922     H
C       0.1107    0.291    0.271     C
C       0.1107    0.791    0.729     C
H       0.1152   0.4114   0.1691     H
H       0.1152   0.9114   0.8309     H
H       0.1162   0.3775   0.8418     H
H       0.1162   0.8775   0.1582     H
H       0.1178   0.1834   0.0358     H
H       0.1178   0.6834   0.9642     H
C       0.1197   0.1738    0.109     C
C       0.1197   0.3969    0.001     C
C       0.1197   0.6738    0.891     C
C       0.1197   0.8969    0.999     C
C       0.1205   0.0862   0.8564     C
C       0.1205   0.5862   0.1436     C
H        0.121   0.2865   0.1992     H
H        0.121   0.7865   0.8008     H
C       0.1239    0.022    0.911     C
C       0.1239    0.522    0.089     C
C       0.1253   0.1434    0.335     C
C       0.1253   0.6434    0.665     C
N       0.1256   0.3141   0.3488     N
N       0.1256   0.8141   0.6512     N
H       0.1275   0.1338   0.4082     H
H       0.1275   0.6338   0.5918     H
H       0.1306   0.1073   0.8191     H
H       0.1306   0.6073   0.1809     H
H       0.1358   0.4985   0.0953     H
H       0.1358   0.9985   0.9047     H
H       0.1377   0.4432    0.819     H
H       0.1377   0.9432    0.181     H
C       0.1383   0.0526    0.856     C
C       0.1383   0.5526    0.144     C
H       0.1427   0.3806   0.4309     H
H       0.1427   0.8806   0.5691     H
C       0.1453   0.1447    0.137     C
C       0.1453   0.6447    0.863     C
C       0.1469   0.1303    0.249     C
C       0.1469   0.6303    0.751     C
N       0.1506   0.4219   0.9788     N
N       0.1506   0.9219   0.0212     N
C       0.1548   0.4429     0.88     C
C       0.1548   0.9429     0.12     C
H       0.1614   0.1348   0.0809     H
H       0.1614   0.6348   0.9191     H
C       0.1617   0.3357    0.334     C
C       0.1617   0.8357    0.666     C
H       0.1635   0.0727   0.6395     H
H       0.1635   0.5727   0.3605     H
C       0.1638   0.3705   0.3936     C
C       0.1638   0.8705   0.6064     C
H       0.1676   0.0638   0.1395     H
H       0.1676   0.5638   0.8605     H
N       0.1719   0.0994   0.2712     N
N       0.1719   0.5994   0.7288     N
N       0.1727   0.0485   0.7929     N
N       0.1727   0.5485   0.2071     N
H       0.1773   0.4135   0.6105     H
H       0.1773   0.9135   0.3895     H
C       0.1783   0.0684    0.211     C
C       0.1783   0.5684    0.789     C
C       0.1803   0.0591    0.685     C
C       0.1803   0.5591    0.315     C
C       0.1816   0.4283    0.039     C
C       0.1816   0.9283    0.961     C
H       0.1862   0.4176   0.1105     H
H       0.1862   0.9176   0.8895     H
N       0.1869   0.4625   0.8849     N
N       0.1869   0.9625   0.1151     N
H       0.1885   0.2955    0.252     H
H       0.1885   0.7955    0.748     H
C       0.1904   0.3199    0.282     C
C       0.1904   0.8199    0.718     C
C       0.1909   0.4303    0.565     C
C       0.1909   0.9303    0.435     C
C       0.1929   0.0952     0.37     C
C       0.1929   0.5952     0.63     C
H       0.1932   0.1123    0.431     H
H       0.1932   0.6123    0.569     H
C       0.1974   0.3883    0.394     C
C       0.1974   0.8883    0.606     C
N       0.2015   0.4227   0.4571     N
N       0.2015   0.9227   0.5429     N
N       0.2019   0.4637   0.5964     N
N       0.2019   0.9637   0.4036     N
N       0.2021   0.0445   0.2643     N
N       0.2021   0.5445   0.7357     N
C       0.2054   0.0303    0.823     C
C       0.2054   0.5303    0.177     C
N       0.2055   0.4521   0.9857     N
N       0.2055   0.9521   0.0143     N
H       0.2096   0.0203   0.8957     H
H       0.2096   0.5203   0.1043     H
N       0.2125   0.0631   0.3651     N
N       0.2125   0.5631   0.6349     N
N       0.2137   0.0481   0.6536     N
N       0.2137   0.5481   0.3464     N
Cu     0.21373  0.48848   0.7559    Cu
Cu     0.21373  0.98848   0.2441    Cu
C       0.2197   0.4554    0.427     C
C       0.2197   0.9554    0.573     C
N       0.2216   0.4797   0.5075     N
N       0.2216   0.9797   0.4925     N
C       0.2242   0.3407    0.273     C
C       0.2242   0.8407    0.727     C
C        0.228   0.3739    0.339     C
C        0.228   0.8739    0.661     C
N       0.2297   0.0284   0.7425     N
H       0.2297   0.4596   0.3543     H
N       0.2297   0.5284   0.2575     N
H       0.2297   0.9596   0.6457     H
Cu     0.23848  0.03627   0.4941    Cu
Cu     0.23848  0.53627   0.5059    Cu
H       0.2436   0.3328   0.2242     H
H       0.2436   0.8328   0.7758     H
H       0.2485   0.1142   0.1547     H
H       0.2485   0.6142   0.8453     H
H       0.2515   0.3858   0.3453     H
H       0.2515   0.8858   0.6547     H
H       0.2564   0.1672   0.2758     H
H       0.2564   0.6672   0.7242     H
Cu     0.26152  0.46373   0.0059    Cu
Cu     0.26152  0.96373   0.9941    Cu
H       0.2703   0.0404   0.1457     H
N       0.2703   0.4716   0.7575     N
H       0.2703   0.5404   0.8543     H
N       0.2703   0.9716   0.2425     N
C        0.272   0.1261    0.161     C
C        0.272   0.6261    0.839     C
C       0.2758   0.1593    0.227     C
C       0.2758   0.6593    0.773     C
N       0.2784   0.0203   0.9925     N
N       0.2784   0.5203   0.0075     N
C       0.2803   0.0446    0.073     C
C       0.2803   0.5446    0.927     C
Cu     0.28627  0.01152   0.7441    Cu
Cu     0.28627  0.51152   0.2559    Cu
N       0.2863   0.4519   0.8464     N
N       0.2863   0.9519   0.1536     N
N       0.2875   0.4369   0.1349     N
N       0.2875   0.9369   0.8651     N
H       0.2904   0.4797   0.6043     H
H       0.2904   0.9797   0.3957     H
N       0.2945   0.0479   0.5143     N
N       0.2945   0.5479   0.4857     N
C       0.2946   0.4697    0.677     C
C       0.2946   0.9697    0.323     C
N       0.2979   0.4555   0.2357     N
N       0.2979   0.9555   0.7643     N
N       0.2981   0.0363   0.9036     N
N       0.2981   0.5363   0.0964     N
N       0.2985   0.0773   0.0429     N
N       0.2985   0.5773   0.9571     N
C       0.3026   0.1117    0.106     C
C       0.3026   0.6117    0.894     C
H       0.3068   0.3877    0.069     H
H       0.3068   0.8877    0.931     H
C       0.3071   0.4048     0.13     C
C       0.3071   0.9048     0.87     C
C       0.3091   0.0697    0.935     C
C       0.3091   0.5697    0.065     C
C       0.3096   0.1801    0.218     C
C       0.3096   0.6801    0.782     C
H       0.3115   0.2045    0.248     H
H       0.3115   0.7045    0.752     H
N       0.3131   0.0375   0.6151     N
N       0.3131   0.5375   0.3849     N
H       0.3138   0.0824   0.3895     H
H       0.3138   0.5824   0.6105     H
C       0.3184   0.0717    0.461     C
C       0.3184   0.5717    0.539     C
C       0.3197   0.4409    0.815     C
C       0.3197   0.9409    0.185     C
C       0.3217   0.4316    0.289     C
C       0.3217   0.9316    0.711     C
H       0.3227   0.0865   0.8895     H
H       0.3227   0.5865   0.1105     H
N       0.3273   0.4515   0.7071     N
N       0.3273   0.9515   0.2929     N
N       0.3281   0.4006   0.2288     N
N       0.3281   0.9006   0.7712     N
H       0.3324   0.4362   0.3605     H
H       0.3324   0.9362   0.6395     H
C       0.3362   0.1295   0.1064     C
C       0.3362   0.6295   0.8936     C
H       0.3365   0.4273   0.8605     H
H       0.3365   0.9273   0.1395     H
C       0.3383   0.1643    0.166     C
C       0.3383   0.6643    0.834     C
H       0.3386   0.3652   0.4191     H
H       0.3386   0.8652   0.5809     H
C       0.3452   0.0571     0.62     C
C       0.3452   0.5571     0.38     C
N       0.3494   0.0781   0.5212     N
N       0.3494   0.5781   0.4788     N
C       0.3531   0.3697    0.251     C
C       0.3531   0.8697    0.749     C
C       0.3547   0.3553    0.363     C
C       0.3547   0.8553    0.637     C
H       0.3573   0.1194   0.0691     H
H       0.3573   0.6194   0.9309     H
C       0.3617   0.4474    0.644     C
C       0.3617   0.9474    0.356     C
H       0.3623   0.0568    0.681     H
H       0.3623   0.5568    0.319     H
H       0.3642   0.0015   0.4047     H
H       0.3642   0.5015   0.5953     H
H       0.3694   0.3927   0.6809     H
H       0.3694   0.8927   0.3191     H
H       0.3725   0.3662   0.0918     H
H       0.3725   0.8662   0.9082     H
N       0.3744   0.1859   0.1512     N
N       0.3744   0.6859   0.8488     N
C       0.3747   0.3566    0.165     C
C       0.3747   0.8566    0.835     C
C       0.3761    0.478    0.589     C
C       0.3761    0.978    0.411     C
H        0.379   0.2135   0.3008     H
H        0.379   0.7135   0.6992     H
C       0.3795   0.4138   0.6436     C
C       0.3795   0.9138   0.3564     C
C       0.3803   0.1031    0.499     C
C       0.3803   0.3262    0.391     C
C       0.3803   0.6031    0.501     C
C       0.3803   0.8262    0.609     C
H       0.3822   0.3166   0.4642     H
H       0.3822   0.8166   0.5358     H
H       0.3838   0.1225   0.6582     H
H       0.3838   0.6225   0.3418     H
H       0.3848   0.0886   0.3309     H
H       0.3848   0.5886   0.6691     H
C       0.3893    0.209    0.229     C
C       0.3893    0.709    0.771     C
H       0.3919   0.1754   0.9922     H
H       0.3919   0.6754   0.0078     H
C       0.3934   0.1247    0.585     C
C       0.3934   0.6247    0.415     C
H       0.3942   0.3128   0.9604     H
H       0.3942   0.8128   0.0396     H
C       0.3947   0.1047    0.387     C
C       0.3947   0.6047    0.613     C
C       0.3964   0.1887    0.059     C
C       0.3964   0.6887    0.941     C
C       0.4003   0.3281    0.191     C
C       0.4003   0.8281    0.809     C
C       0.4035   0.3119    0.299     C
C       0.4035   0.8119    0.701     C
C       0.4093   0.4742    0.523     C
C       0.4093   0.9742    0.477     C
C       0.4143   0.4117    0.584     C
C       0.4143   0.9117    0.416     C
H       0.4172   0.4936   0.4742     H
H       0.4172   0.9936   0.5258     H
C       0.4179   0.3084    0.993     C
C       0.4179   0.8084    0.007     C
H       0.4205    0.292   0.3119     H
H       0.4205    0.792   0.6881     H
N       0.4215   0.2248    0.188     N
N       0.4215   0.7248    0.812     N
C       0.4219   0.1503    0.559     C
C       0.4219   0.6503    0.441     C
C       0.4238   0.1303    0.359     C
C       0.4238   0.6303    0.641     C
N       0.4251   0.2121   0.0732     N
N       0.4251   0.7121   0.9268     N
H       0.4254   0.3581   0.7578     H
H       0.4254   0.8581   0.2422     H
N       0.4258   0.3139   0.1046     N
N       0.4258   0.8139   0.8954     N
C       0.4301   0.4404    0.532     C
C       0.4301   0.9404    0.468     C
H       0.4334   0.1322   0.2858     H
H       0.4334   0.6322   0.7142     H
N       0.4359   0.3756   0.5988     N
N       0.4359   0.8756   0.4012     N
N       0.4361   0.1758   0.6454     N
N       0.4361   0.6758   0.3546     N
H       0.4372   0.1442   0.7896     H
H       0.4372   0.6442   0.2104     H
C       0.4381   0.1535    0.451     C
C       0.4381   0.6535    0.549     C
C       0.4387   0.3536    0.691     C
C       0.4387   0.8536    0.309     C
C       0.4416   0.1679    0.757     C
C       0.4416   0.6679    0.243     C
H       0.4436   0.2272   0.5717     H
H       0.4436   0.7272   0.4283     H
C       0.4451    0.213    0.638     C
C       0.4451    0.713    0.362     C
N       0.4474   0.2962   0.9382     N
N       0.4474   0.7962   0.0618     N
N       0.4538   0.1974   0.8118     N
N       0.4538   0.6974   0.1882     N
H       0.4545   0.4385    0.502     H
H       0.4545   0.9385    0.498     H
N       0.4562   0.2266    0.735     N
N       0.4562   0.7266    0.265     N
H        0.458   0.1705   0.4381     H
H        0.458   0.6705   0.5619     H
Cu     0.45842  0.28095   0.7774    Cu
Cu     0.45842  0.78095   0.2226    Cu
C        0.459   0.3607    0.521     C
C        0.459   0.8607    0.479     C
N       0.4621   0.3249   0.6768     N
N       0.4621   0.8249   0.3232     N
C        0.463   0.3049    0.112     C
C        0.463   0.8049    0.888     C
H       0.4635    0.371   0.4492     H
H       0.4635    0.871   0.5508     H
Cu     0.46905  0.20842   0.9726    Cu
Cu     0.46905  0.70842   0.0274    Cu
N       0.4748   0.3285    0.562     N
N       0.4748   0.8285    0.438     N
N       0.4766   0.2938    0.015     N
N       0.4766   0.7938    0.985     N
H       0.4772   0.3064   0.1783     H
H       0.4772   0.8064   0.8217     H
H       0.5228   0.1936   0.1783     H
H       0.5228   0.6936   0.8217     H
N       0.5234   0.2062    0.015     N
N       0.5234   0.7062    0.985     N
N       0.5252   0.1715    0.562     N
N       0.5252   0.6715    0.438     N
Cu     0.53095  0.29158   0.9726    Cu
Cu     0.53095  0.79158   0.0274    Cu
H       0.5365    0.129   0.4492     H
H       0.5365    0.629   0.5508     H
C        0.537   0.1951    0.112     C
C        0.537   0.6951    0.888     C
N       0.5379   0.1751   0.6768     N
N       0.5379   0.6751   0.3232     N
C        0.541   0.1393    0.521     C
C        0.541   0.6393    0.479     C
Cu     0.54158  0.21905   0.7774    Cu
Cu     0.54158  0.71905   0.2226    Cu
H        0.542   0.3295   0.4381     H
H        0.542   0.8295   0.5619     H
N       0.5438   0.2734    0.735     N
N       0.5438   0.7734    0.265     N
H       0.5455   0.0615    0.502     H
H       0.5455   0.5615    0.498     H
N       0.5462   0.3026   0.8118     N
N       0.5462   0.8026   0.1882     N
N       0.5526   0.2038   0.9382     N
N       0.5526   0.7038   0.0618     N
C       0.5549    0.287    0.638     C
C       0.5549    0.787    0.362     C
H       0.5564   0.2728   0.5717     H
H       0.5564   0.7728   0.4283     H
C       0.5584   0.3321    0.757     C
C       0.5584   0.8321    0.243     C
C       0.5613   0.1464    0.691     C
C       0.5613   0.6464    0.309     C
C       0.5619   0.3465    0.451     C
C       0.5619   0.8465    0.549     C
H       0.5628   0.3558   0.7896     H
H       0.5628   0.8558   0.2104     H
N       0.5639   0.3242   0.6454     N
N       0.5639   0.8242   0.3546     N
N       0.5641   0.1244   0.5988     N
N       0.5641   0.6244   0.4012     N
H       0.5666   0.3678   0.2858     H
H       0.5666   0.8678   0.7142     H
C       0.5699   0.0596    0.532     C
C       0.5699   0.5596    0.468     C
N       0.5742   0.1861   0.1046     N
N       0.5742   0.6861   0.8954     N
H       0.5746   0.1419   0.7578     H
H       0.5746   0.6419   0.2422     H
N       0.5749   0.2879   0.0732     N
N       0.5749   0.7879   0.9268     N
C       0.5762   0.3697    0.359     C
C       0.5762   0.8697    0.641     C
C       0.5781   0.3497    0.559     C
C       0.5781   0.8497    0.441     C
N       0.5785   0.2752    0.188     N
N       0.5785   0.7752    0.812     N
H       0.5795    0.208   0.3119     H
H       0.5795    0.708   0.6881     H
C       0.5821   0.1916    0.993     C
C       0.5821   0.6916    0.007     C
H       0.5828   0.0064   0.4742     H
H       0.5828   0.5064   0.5258     H
C       0.5857   0.0883    0.584     C
C       0.5857   0.5883    0.416     C
C       0.5907   0.0258    0.523     C
C       0.5907   0.5258    0.477     C
C       0.5965   0.1881    0.299     C
C       0.5965   0.6881    0.701     C
C       0.5997   0.1719    0.191     C
C       0.5997   0.6719    0.809     C
C       0.6036   0.3113    0.059     C
C       0.6036   0.8113    0.941     C
C       0.6053   0.3953    0.387     C
C       0.6053   0.8953    0.613     C
H       0.6058   0.1872   0.9604     H
H       0.6058   0.6872   0.0396     H
C       0.6066   0.3753    0.585     C
C       0.6066   0.8753    0.415     C
H       0.6081   0.3246   0.9922     H
H       0.6081   0.8246   0.0078     H
C       0.6107    0.291    0.229     C
C       0.6107    0.791    0.771     C
H       0.6152   0.4114   0.3309     H
H       0.6152   0.9114   0.6691     H
H       0.6162   0.3775   0.6582     H
H       0.6162   0.8775   0.3418     H
H       0.6178   0.1834   0.4642     H
H       0.6178   0.6834   0.5358     H
C       0.6197   0.1738    0.391     C
C       0.6197   0.3969    0.499     C
C       0.6197   0.6738    0.609     C
C       0.6197   0.8969    0.501     C
C       0.6205   0.0862   0.6436     C
C       0.6205   0.5862   0.3564     C
H        0.621   0.2865   0.3008     H
H        0.621   0.7865   0.6992     H
C       0.6239    0.022    0.589     C
C       0.6239    0.522    0.411     C
C       0.6253   0.1434    0.165     C
C       0.6253   0.6434    0.835     C
N       0.6256   0.3141   0.1512     N
N       0.6256   0.8141   0.8488     N
H       0.6275   0.1338   0.0918     H
H       0.6275   0.6338   0.9082     H
H       0.6306   0.1073   0.6809     H
H       0.6306   0.6073   0.3191     H
H       0.6358   0.4985   0.4047     H
H       0.6358   0.9985   0.5953     H
H       0.6377   0.4432    0.681     H
H       0.6377   0.9432    0.319     H
C       0.6383   0.0526    0.644     C
C       0.6383   0.5526    0.356     C
H       0.6427   0.3806   0.0691     H
H       0.6427   0.8806   0.9309     H
C       0.6453   0.1447    0.363     C
C       0.6453   0.6447    0.637     C
C       0.6469   0.1303    0.251     C
C       0.6469   0.6303    0.749     C
N       0.6506   0.4219   0.5212     N
N       0.6506   0.9219   0.4788     N
C       0.6548   0.4429     0.62     C
C       0.6548   0.9429     0.38     C
H       0.6614   0.1348   0.4191     H
H       0.6614   0.6348   0.5809     H
C       0.6617   0.3357    0.166     C
C       0.6617   0.8357    0.834     C
H       0.6635   0.0727   0.8605     H
H       0.6635   0.5727   0.1395     H
C       0.6638   0.3705   0.1064     C
C       0.6638   0.8705   0.8936     C
H       0.6676   0.0638   0.3605     H
H       0.6676   0.5638   0.6395     H
N       0.6719   0.0994   0.2288     N
N       0.6719   0.5994   0.7712     N
N       0.6727   0.0485   0.7071     N
N       0.6727   0.5485   0.2929     N
H       0.6773   0.4135   0.8895     H
H       0.6773   0.9135   0.1105     H
C       0.6783   0.0684    0.289     C
C       0.6783   0.5684    0.711     C
C       0.6803   0.0591    0.815     C
C       0.6803   0.5591    0.185     C
C       0.6816   0.4283    0.461     C
C       0.6816   0.9283    0.539     C
H       0.6862   0.4176   0.3895     H
H       0.6862   0.9176   0.6105     H
N       0.6869   0.4625   0.6151     N
N       0.6869   0.9625   0.3849     N
H       0.6885   0.2955    0.248     H
H       0.6885   0.7955    0.752     H
C       0.6904   0.3199    0.218     C
C       0.6904   0.8199    0.782     C
C       0.6909   0.4303    0.935     C
C       0.6909   0.9303    0.065     C
C       0.6929   0.0952     0.13     C
C       0.6929   0.5952     0.87     C
H       0.6932   0.1123    0.069     H
H       0.6932   0.6123    0.931     H
C       0.6974   0.3883    0.106     C
C       0.6974   0.8883    0.894     C
N       0.7015   0.4227   0.0429     N
N       0.7015   0.9227   0.9571     N
N       0.7019   0.4637   0.9036     N
N       0.7019   0.9637   0.0964     N
N       0.7021   0.0445   0.2357     N
N       0.7021   0.5445   0.7643     N
C       0.7054   0.0303    0.677     C
C       0.7054   0.5303    0.323     C
N       0.7055   0.4521   0.5143     N
N       0.7055   0.9521   0.4857     N
H       0.7096   0.0203   0.6043     H
H       0.7096   0.5203   0.3957     H
N       0.7125   0.0631   0.1349     N
N       0.7125   0.5631   0.8651     N
N       0.7137   0.0481   0.8464     N
N       0.7137   0.5481   0.1536     N
Cu     0.71373  0.48848   0.7441    Cu
Cu     0.71373  0.98848   0.2559    Cu
C       0.7197   0.4554    0.073     C
C       0.7197   0.9554    0.927     C
N       0.7216   0.4797   0.9925     N
N       0.7216   0.9797   0.0075     N
C       0.7242   0.3407    0.227     C
C       0.7242   0.8407    0.773     C
C        0.728   0.3739    0.161     C
C        0.728   0.8739    0.839     C
N       0.7297   0.0284   0.7575     N
H       0.7297   0.4596   0.1457     H
N       0.7297   0.5284   0.2425     N
H       0.7297   0.9596   0.8543     H
Cu     0.73848  0.03627   0.0059    Cu
Cu     0.73848  0.53627   0.9941    Cu
H       0.7436   0.3328   0.2758     H
H       0.7436   0.8328   0.7242     H
H       0.7485   0.1142   0.3453     H
H       0.7485   0.6142   0.6547     H
H       0.7515   0.3858   0.1547     H
H       0.7515   0.8858   0.8453     H
H       0.7564   0.1672   0.2242     H
H       0.7564   0.6672   0.7758     H
Cu     0.76152  0.46373   0.4941    Cu
Cu     0.76152  0.96373   0.5059    Cu
H       0.7703   0.0404   0.3543     H
N       0.7703   0.4716   0.7425     N
H       0.7703   0.5404   0.6457     H
N       0.7703   0.9716   0.2575     N
C        0.772   0.1261    0.339     C
C        0.772   0.6261    0.661     C
C       0.7758   0.1593    0.273     C
C       0.7758   0.6593    0.727     C
N       0.7784   0.0203   0.5075     N
N       0.7784   0.5203   0.4925     N
C       0.7803   0.0446    0.427     C
C       0.7803   0.5446    0.573     C
Cu     0.78627  0.01152   0.7559    Cu
Cu     0.78627  0.51152   0.2441    Cu
N       0.7863   0.4519   0.6536     N
N       0.7863   0.9519   0.3464     N
N       0.7875   0.4369   0.3651     N
N       0.7875   0.9369   0.6349     N
H       0.7904   0.4797   0.8957     H
H       0.7904   0.9797   0.1043     H
N       0.7945   0.0479   0.9857     N
N       0.7945   0.5479   0.0143     N
C       0.7946   0.4697    0.823     C
C       0.7946   0.9697    0.177     C
N       0.7979   0.4555   0.2643     N
N       0.7979   0.9555   0.7357     N
N       0.7981   0.0363   0.5964     N
N       0.7981   0.5363   0.4036     N
N       0.7985   0.0773   0.4571     N
N       0.7985   0.5773   0.5429     N
C       0.8026   0.1117    0.394     C
C       0.8026   0.6117    0.606     C
H       0.8068   0.3877    0.431     H
H       0.8068   0.8877    0.569     H
C       0.8071   0.4048     0.37     C
C       0.8071   0.9048     0.63     C
C       0.8091   0.0697    0.565     C
C       0.8091   0.5697    0.435     C
C       0.8096   0.1801    0.282     C
C       0.8096   0.6801    0.718     C
H       0.8115   0.2045    0.252     H
H       0.8115   0.7045    0.748     H
N       0.8131   0.0375   0.8849     N
N       0.8131   0.5375   0.1151     N
H       0.8138   0.0824   0.1105     H
H       0.8138   0.5824   0.8895     H
C       0.8184   0.0717    0.039     C
C       0.8184   0.5717    0.961     C
C       0.8197   0.4409    0.685     C
C       0.8197   0.9409    0.315     C
C       0.8217   0.4316    0.211     C
C       0.8217   0.9316    0.789     C
H       0.8227   0.0865   0.6105     H
H       0.8227   0.5865   0.3895     H
N       0.8273   0.4515   0.7929     N
N       0.8273   0.9515   0.2071     N
N       0.8281   0.4006   0.2712     N
N       0.8281   0.9006   0.7288     N
H       0.8324   0.4362   0.1395     H
H       0.8324   0.9362   0.8605     H
C       0.8362   0.1295   0.3936     C
C       0.8362   0.6295   0.6064     C
H       0.8365   0.4273   0.6395     H
H       0.8365   0.9273   0.3605     H
C       0.8383   0.1643    0.334     C
C       0.8383   0.6643    0.666     C
H       0.8386   0.3652   0.0809     H
H       0.8386   0.8652   0.9191     H
C       0.8452   0.0571     0.88     C
C       0.8452   0.5571     0.12     C
N       0.8494   0.0781   0.9788     N
N       0.8494   0.5781   0.0212     N
C       0.8531   0.3697    0.249     C
C       0.8531   0.8697    0.751     C
C       0.8547   0.3553    0.137     C
C       0.8547   0.8553    0.863     C
H       0.8573   0.1194   0.4309     H
H       0.8573   0.6194   0.5691     H
C       0.8617   0.4474    0.856     C
C       0.8617   0.9474    0.144     C
H       0.8623   0.0568    0.819     H
H       0.8623   0.5568    0.181     H
H       0.8642   0.0015   0.0953     H
H       0.8642   0.5015   0.9047     H
H       0.8694   0.3927   0.8191     H
H       0.8694   0.8927   0.1809     H
H       0.8725   0.3662   0.4082     H
H       0.8725   0.8662   0.5918     H
N       0.8744   0.1859   0.3488     N
N       0.8744   0.6859   0.6512     N
C       0.8747   0.3566    0.335     C
C       0.8747   0.8566    0.665     C
C       0.8761    0.478    0.911     C
C       0.8761    0.978    0.089     C
H        0.879   0.2135   0.1992     H
H        0.879   0.7135   0.8008     H
C       0.8795   0.4138   0.8564     C
C       0.8795   0.9138   0.1436     C
C       0.8803   0.1031    0.001     C
C       0.8803   0.3262    0.109     C
C       0.8803   0.6031    0.999     C
C       0.8803   0.8262    0.891     C
H       0.8822   0.3166   0.0358     H
H       0.8822   0.8166   0.9642     H
H       0.8838   0.1225   0.8418     H
H       0.8838   0.6225   0.1582     H
H       0.8848   0.0886   0.1691     H
H       0.8848   0.5886   0.8309     H
C       0.8893    0.209    0.271     C
C       0.8893    0.709    0.729     C
H       0.8919   0.1754   0.5078     H
H       0.8919   0.6754   0.4922     H
C       0.8934   0.1247    0.915     C
C       0.8934   0.6247    0.085     C
H       0.8942   0.3128   0.5396     H
H       0.8942   0.8128   0.4604     H
C       0.8947   0.1047    0.113     C
C       0.8947   0.6047    0.887     C
C       0.8964   0.1887    0.441     C
C       0.8964   0.6887    0.559     C
C       0.9003   0.3281    0.309     C
C       0.9003   0.8281    0.691     C
C       0.9035   0.3119    0.201     C
C       0.9035   0.8119    0.799     C
C       0.9093   0.4742    0.977     C
C       0.9093   0.9742    0.023     C
C       0.9143   0.4117    0.916     C
C       0.9143   0.9117    0.084     C
H       0.9172   0.4936   0.0258     H
H       0.9172   0.9936   0.9742     H
C       0.9179   0.3084    0.507     C
C       0.9179   0.8084    0.493     C
H       0.9205    0.292   0.1881     H
H       0.9205    0.792   0.8119     H
N       0.9215   0.2248    0.312     N
N       0.9215   0.7248    0.688     N
C       0.9219   0.1503    0.941     C
C       0.9219   0.6503    0.059     C
C       0.9238   0.1303    0.141     C
C       0.9238   0.6303    0.859     C
N       0.9251   0.2121   0.4268     N
N       0.9251   0.7121   0.5732     N
H       0.9254   0.3581   0.7422     H
H       0.9254   0.8581   0.2578     H
N       0.9258   0.3139   0.3954     N
N       0.9258   0.8139   0.6046     N
C       0.9301   0.4404    0.968     C
C       0.9301   0.9404    0.032     C
H       0.9334   0.1322   0.2142     H
H       0.9334   0.6322   0.7858     H
N       0.9359   0.3756   0.9012     N
N       0.9359   0.8756   0.0988     N
N       0.9361   0.1758   0.8546     N
N       0.9361   0.6758   0.1454     N
H       0.9372   0.1442   0.7104     H
H       0.9372   0.6442   0.2896     H
C       0.9381   0.1535    0.049     C
C       0.9381   0.6535    0.951     C
C       0.9387   0.3536    0.809     C
C       0.9387   0.8536    0.191     C
C       0.9416   0.1679    0.743     C
C       0.9416   0.6679    0.257     C
H       0.9436   0.2272   0.9283     H
H       0.9436   0.7272   0.0717     H
C       0.9451    0.213    0.862     C
C       0.9451    0.713    0.138     C
N       0.9474   0.2962   0.5618     N
N       0.9474   0.7962   0.4382     N
N       0.9538   0.1974   0.6882     N
N       0.9538   0.6974   0.3118     N
H       0.9545   0.4385    0.998     H
H       0.9545   0.9385    0.002     H
N       0.9562   0.2266    0.765     N
N       0.9562   0.7266    0.235     N
H        0.958   0.1705   0.0619     H
H        0.958   0.6705   0.9381     H
Cu     0.95842  0.28095   0.7226    Cu
Cu     0.95842  0.78095   0.2774    Cu
C        0.959   0.3607    0.979     C
C        0.959   0.8607    0.021     C
N       0.9621   0.3249   0.8232     N
N       0.9621   0.8249   0.1768     N
C        0.963   0.3049    0.388     C
C        0.963   0.8049    0.612     C
H       0.9635    0.371   0.0508     H
H       0.9635    0.871   0.9492     H
Cu     0.96905  0.20842   0.5274    Cu
Cu     0.96905  0.70842   0.4726    Cu
N       0.9748   0.3285    0.938     N
N       0.9748   0.8285    0.062     N
N       0.9766   0.2938    0.485     N
N       0.9766   0.7938    0.515     N
H       0.9772   0.3064   0.3217     H
H       0.9772   0.8064   0.6783     H
