data_I
_chemical_name_common  '/home/zhangsd/repos/MofS-CGCNN/ML/data/TSD/clean_cifs/ARAFIJ_clean'
_cell_length_a 23.73900
_cell_length_b  7.07240
_cell_length_c 11.54050
_cell_angle_alpha 90.00000
_cell_angle_beta  90.00000
_cell_angle_gamma 90.00000
_space_group_name_H-M_alt      'P 1'


loop_
_space_group_symop_operation_xyz
  'x, y, z' 

loop_
_atom_site_label
_atom_site_fract_x
_atom_site_fract_y
_atom_site_fract_z
_atom_site_type_symbol
Cu         0.0      0.0      0.0    Cu
Cu         0.0      0.5      0.0    Cu
N      0.05961   0.1565   0.0756     N
N      0.05961   0.3435   0.0756     N
N      0.05961   0.6565   0.9244     N
N      0.05961   0.8435   0.9244     N
C      0.10846   0.0968   0.1224     C
N      0.10846   0.4032   0.1224     N
N      0.10846   0.5968   0.8776     N
C      0.10846   0.9032   0.8776     C
H       0.1195   0.0311   0.8666     H
H       0.1195   0.4689   0.8666     H
H       0.1195   0.5311   0.1334     H
H       0.1195   0.9689   0.1334     H
C       0.1386     0.25   0.1507     C
C       0.1386     0.75   0.8493     C
C       0.1957     0.25    0.203     C
C       0.1957     0.75    0.797     C
H       0.2035   0.0276   0.7824     H
H       0.2035   0.4724   0.7824     H
H       0.2035   0.5276   0.2176     H
H       0.2035   0.9724   0.2176     H
C       0.2224   0.0894   0.2286     C
C       0.2224   0.4106   0.2286     C
C       0.2224   0.5894   0.7714     C
C       0.2224   0.9106   0.7714     C
C       0.2776   0.0894   0.2714     C
C       0.2776   0.4106   0.2714     C
C       0.2776   0.5894   0.7286     C
C       0.2776   0.9106   0.7286     C
H       0.2965   0.0276   0.7176     H
H       0.2965   0.4724   0.7176     H
H       0.2965   0.5276   0.2824     H
H       0.2965   0.9724   0.2824     H
C       0.3043     0.25    0.297     C
C       0.3043     0.75    0.703     C
C       0.3614     0.25   0.3493     C
C       0.3614     0.75   0.6507     C
H       0.3805   0.0311   0.6334     H
H       0.3805   0.4689   0.6334     H
H       0.3805   0.5311   0.3666     H
H       0.3805   0.9689   0.3666     H
C      0.39154   0.0968   0.3776     C
N      0.39154   0.4032   0.3776     N
N      0.39154   0.5968   0.6224     N
C      0.39154   0.9032   0.6224     C
N      0.44039   0.1565   0.4244     N
N      0.44039   0.3435   0.4244     N
N      0.44039   0.6565   0.5756     N
N      0.44039   0.8435   0.5756     N
Cu         0.5      0.0      0.5    Cu
Cu         0.5      0.5      0.5    Cu
N      0.55961   0.1565   0.4244     N
N      0.55961   0.3435   0.4244     N
N      0.55961   0.6565   0.5756     N
N      0.55961   0.8435   0.5756     N
N      0.60846   0.0968   0.3776     N
C      0.60846   0.4032   0.3776     C
C      0.60846   0.5968   0.6224     C
N      0.60846   0.9032   0.6224     N
H       0.6195   0.0311   0.6334     H
H       0.6195   0.4689   0.6334     H
H       0.6195   0.5311   0.3666     H
H       0.6195   0.9689   0.3666     H
C       0.6386     0.25   0.3493     C
C       0.6386     0.75   0.6507     C
C       0.6957     0.25    0.297     C
C       0.6957     0.75    0.703     C
H       0.7035   0.0276   0.7176     H
H       0.7035   0.4724   0.7176     H
H       0.7035   0.5276   0.2824     H
H       0.7035   0.9724   0.2824     H
C       0.7224   0.0894   0.2714     C
C       0.7224   0.4106   0.2714     C
C       0.7224   0.5894   0.7286     C
C       0.7224   0.9106   0.7286     C
C       0.7776   0.0894   0.2286     C
C       0.7776   0.4106   0.2286     C
C       0.7776   0.5894   0.7714     C
C       0.7776   0.9106   0.7714     C
H       0.7965   0.0276   0.7824     H
H       0.7965   0.4724   0.7824     H
H       0.7965   0.5276   0.2176     H
H       0.7965   0.9724   0.2176     H
C       0.8043     0.25    0.203     C
C       0.8043     0.75    0.797     C
C       0.8614     0.25   0.1507     C
C       0.8614     0.75   0.8493     C
H       0.8805   0.0311   0.8666     H
H       0.8805   0.4689   0.8666     H
H       0.8805   0.5311   0.1334     H
H       0.8805   0.9689   0.1334     H
N      0.89154   0.0968   0.1224     N
C      0.89154   0.4032   0.1224     C
C      0.89154   0.5968   0.8776     C
N      0.89154   0.9032   0.8776     N
N      0.94039   0.1565   0.0756     N
N      0.94039   0.3435   0.0756     N
N      0.94039   0.6565   0.9244     N
N      0.94039   0.8435   0.9244     N
