data_I
_chemical_name_common  '/home/zhangsd/repos/MofS-CGCNN/ML/data/TSD/clean_cifs/AROFAP_clean'
_cell_length_a 15.42000
_cell_length_b 15.84200
_cell_length_c 17.81900
_cell_angle_alpha 112.76300
_cell_angle_beta  112.20300
_cell_angle_gamma 95.42500
_space_group_name_H-M_alt      'P 1'


loop_
_space_group_symop_operation_xyz
  'x, y, z' 

loop_
_atom_site_label
_atom_site_fract_x
_atom_site_fract_y
_atom_site_fract_z
_atom_site_type_symbol
O       0.0001   0.0655   0.9383     O
C       0.0025    0.582   0.6081     C
Cd     0.00319  0.31406  0.90686    Cd
C        0.005    0.003   0.6708     C
O       0.0083   0.8669   0.5585     O
H       0.0164   0.1232    0.775     H
O       0.0194   0.2139   0.9695     O
C       0.0228   0.6614   0.3769     C
C       0.0253   0.5412   0.6651     C
C       0.0288   0.9274   0.3066     C
C       0.0421   0.0976   0.7329     C
H       0.0438   0.8571   0.4605     H
C       0.0446   0.8228   0.4968     C
C       0.0474   0.9628   0.6142     C
C       0.0479   0.0368   0.2509     C
O        0.051   0.7107   0.3341     O
C       0.0548   0.1522   0.9831     C
H       0.0567   0.9002   0.3459     H
O       0.0661   0.6815   0.5526     O
C       0.0774   0.6352   0.6068     C
H       0.0792   0.5382   0.2858     H
H       0.0806   0.6496   0.4161     H
O       0.0829    0.459   0.7897     O
C       0.0855   0.0028   0.3124     C
C       0.0863   0.6628   0.2743     C
H        0.087   0.0906   0.2558     H
C       0.0901   0.5687   0.2523     C
H       0.1053   0.4545   0.1574     H
C       0.1106   0.5207   0.1788     C
H       0.1126   0.8227   0.5298     H
O       0.1142   0.2982   0.8513     O
C       0.1173   0.1571   0.7355     C
C       0.1187   0.7104   0.2373     C
H       0.1211   0.7758   0.2557     H
C       0.1213   0.5545   0.7253     C
C       0.1246   0.0197   0.6174     C
C       0.1386   0.5687   0.1374     C
O       0.1439   0.4261   0.0275     O
C       0.1445   0.5162   0.7918     C
C       0.1486    0.663   0.1721     C
H       0.1514   0.0496   0.0563     H
H       0.1532   0.9935    0.578     H
C       0.1538   0.1756   0.0592     C
C       0.1543    0.259   0.7985     C
C       0.1591    0.117   0.6804     C
C       0.1631   0.5163   0.0596     C
C       0.1755   0.6476   0.6623     C
H       0.1774   0.6987   0.1509     H
O       0.1808   0.0498   0.3771     O
H       0.1896    0.314    0.086     H
C        0.192   0.1129   0.0849     C
H       0.1923   0.0156   0.4756     H
O       0.1957   0.5581    0.029     O
C       0.1969   0.6082   0.7209     C
H       0.2132   0.1561   0.6848     H
C        0.214   0.2681   0.1034     C
H       0.2231   0.9456   0.4029     H
O       0.2251   0.3112    0.805     O
C       0.2258   0.0129   0.4374     C
H       0.2264   0.6828   0.6592     H
Cd     0.22823  0.44949  0.92367    Cd
O       0.2344   0.5439   0.8541     O
H       0.2632   0.6168   0.7591     H
C       0.2856    0.134   0.1494     C
H       0.2888   0.1989   0.5213     H
H       0.2892   0.9775   0.7061     H
H       0.3061   0.3157   0.6634     H
H       0.3065   0.1685   0.6008     H
C        0.307   0.2955   0.1709     C
H       0.3098   0.0866   0.1639     H
C       0.3322   0.1735    0.559     C
C       0.3338   0.0758   0.4981     C
H       0.3436   0.1128   0.4018     H
H       0.3451   0.3602   0.2016     H
C       0.3453   0.2299   0.1941     C
H       0.3454   0.4754   0.7763     H
O       0.3464    0.015   0.6055     O
C       0.3495   0.9635   0.7133     C
Cd     0.35304  0.68624  0.95877    Cd
H        0.361   0.9142   0.8055     H
O       0.3635   0.9821   0.3743     O
C       0.3695   0.3583   0.6918     C
O       0.3755   0.4579   0.0249     O
C       0.3769   0.0797   0.4363     C
H       0.3788   0.8254   0.2833     H
C       0.3906   0.0284   0.5538     C
H       0.3922    0.966    0.512     H
C        0.393   0.4541    0.758     C
C       0.3931   0.9284   0.7739     C
C       0.3943   0.9785   0.6627     C
O       0.3992   0.5995   0.0331     O
C       0.4024   0.9652   0.3156     C
C       0.4027   0.8724   0.2698     C
C       0.4272   0.5386   0.0559     C
O       0.4297   0.2369   0.6109     O
H       0.4323   0.7803   0.1706     H
O       0.4347   0.6478   0.8747     O
C       0.4368   0.8453   0.2041     C
O       0.4374   0.2448   0.2546     O
C       0.4419   0.0334   0.2969     C
C       0.4427   0.3295   0.6701     C
H       0.4436   0.0982   0.3276     H
H       0.4473   0.1147   0.4724     H
H       0.4587   0.0691   0.5947     H
H       0.4724   0.3842   0.3401     H
C       0.4777   0.9156   0.1885     C
C        0.478   0.0073   0.2345     C
C       0.4827     0.96   0.6745     C
C       0.4834   0.5168   0.7962     C
C       0.4855   0.9141   0.7881     C
O       0.4951   0.8678   0.9042     O
O       0.4987   0.7989   0.0677     O
C        0.499   0.3418   0.3025     C
H       0.5009    0.364   0.2582     H
C       0.5029   0.6191   0.8627     C
H       0.5042   0.0549   0.2228     H
H       0.5125   0.9672   0.6386     H
H       0.5164   0.4448   0.1408     H
C       0.5177   0.8873   0.1223     C
C       0.5277   0.9303   0.7408     C
C       0.5297   0.5664   0.1309     C
C       0.5332   0.3925   0.7104     C
C       0.5338   0.8758    0.854     C
C       0.5531   0.4876   0.7705     C
C       0.5604   0.5051   0.1642     C
H       0.5641   0.2401    0.397     H
H       0.5711   0.3445   0.4674     H
O       0.5724   0.9507   0.1209     O
H       0.5745   0.6947   0.1392     H
H       0.5797   0.2462   0.5359     H
H         0.58   0.5944   0.5977     H
H       0.5833   0.3706   0.6969     H
O       0.5896   0.6733   0.9059     O
H       0.5906   0.9215   0.7521     H
Cd     0.59262  0.81935  0.99859    Cd
C       0.5943   0.6528   0.1646     C
C       0.6019   0.3082   0.4307     C
C       0.6023   0.3456   0.3638     C
H        0.606   0.2158   0.2732     H
O       0.6107   0.8548   0.8595     O
H       0.6139   0.5318   0.7934     H
O       0.6215   0.4983   0.4741     O
H       0.6229   0.1766   0.6348     H
C       0.6299   0.6337   0.5971     C
H       0.6388   0.7512   0.6973     H
C       0.6451   0.2448   0.5648     C
C       0.6458   0.2832    0.306     C
O       0.6471   0.3157   0.2422     O
C       0.6552   0.5286    0.232     C
H       0.6582   0.4762   0.3729     H
C       0.6623   0.4495   0.4156     C
C       0.6652   0.7257   0.6558     C
C       0.6663   0.5945    0.534     C
C       0.6723   0.2058   0.6259     C
H       0.6763   0.4848   0.2543     H
H       0.6766   0.3593   0.1317     H
C       0.6804   0.2635   0.1813     C
H       0.6873     0.15   0.2054     H
C        0.689   0.6811   0.2357     C
C       0.6919   0.3012   0.1261     C
C       0.6983    0.178   0.1701     C
O       0.6996    0.319   0.4883     O
H        0.713    0.287   0.3458     H
C       0.7179   0.2815   0.5481     C
C       0.7185   0.6183   0.2664     C
C       0.7249   0.2562   0.0633     C
O       0.7258    0.109   0.7337     O
H       0.7313    0.743   0.2614     H
H       0.7317   0.4558   0.4519     H
O       0.7319   0.8278   0.1228     O
C        0.732   0.1316   0.1089     C
H       0.7322   0.2836   0.0264     H
C        0.737   0.6517   0.5342     C
C       0.7395   0.7863   0.6591     C
H       0.7453   0.0726   0.1031     H
C       0.7472   0.1716    0.054     C
O       0.7541   0.9005   0.0466     O
H       0.7619   0.6258   0.4915     H
O       0.7632   0.9185   0.7977     O
C       0.7658   0.2079   0.6728     C
C       0.7738   0.7473   0.5957     C
Cd     0.77394  0.89512  0.92181    Cd
C       0.7829   0.8872    0.729     C
C       0.7862    0.124   0.9922     C
C       0.7881   0.8807   0.1135     C
C       0.7913   0.1634   0.7333     C
O       0.7941   0.1613   0.9388     O
O       0.8119   0.6326   0.3297     O
C       0.8133   0.2834   0.5944     C
O       0.8149   0.0538   0.9907     O
H       0.8231   0.7867   0.5945     H
C       0.8372   0.2477   0.6555     C
O       0.8374   0.9441   0.7214     O
Cd     0.85277    0.078  0.84865    Cd
H        0.857   0.7721   0.4144     H
H       0.8626   0.3097   0.5836     H
C       0.8792   0.7249   0.3757     C
O       0.8817   0.1805   0.7898     O
H       0.8837   0.7449   0.3308     H
H       0.8898   0.8416   0.2457     H
C       0.8909   0.9207   0.1783     C
H       0.9033   0.2497    0.687     H
H       0.9292   0.0128   0.1345     H
C       0.9302   0.8891   0.2439     C
H       0.9327    0.602   0.4518     H
H       0.9333   0.7009   0.5262     H
H       0.9363   0.5739   0.5701     H
H       0.9502   0.9648   0.6663     H
C       0.9523    0.993   0.1807     C
C       0.9686   0.6705   0.4917     C
H       0.9737    0.502    0.664     H
H       0.9748   0.5989   0.3298     H
C        0.978   0.7199   0.4341     C
