data_I
_chemical_name_common  '/home/zhangsd/repos/MofS-CGCNN/ML/data/TSD/clean_cifs/ASADAA_clean'
_cell_length_a 11.94100
_cell_length_b 15.29860
_cell_length_c 17.31600
_cell_angle_alpha 84.72180
_cell_angle_beta  76.36610
_cell_angle_gamma 67.02910
_space_group_name_H-M_alt      'P 1'


loop_
_space_group_symop_operation_xyz
  'x, y, z' 

loop_
_atom_site_label
_atom_site_fract_x
_atom_site_fract_y
_atom_site_fract_z
_atom_site_type_symbol
O      0.01082  0.39536   0.2595     O
O       0.0373    0.593   0.0472     O
C       0.0387   0.3742   0.5128     C
C       0.0403   0.5402   0.6888     C
C       0.0489   0.5656   0.6022     C
C       0.0551   0.3928   0.4323     C
C       0.0793    0.607   0.4398     C
H       0.0892   0.6196   0.3856     H
Cd     0.08992  0.43734  0.83444    Cd
O       0.0901    0.454   0.7048     O
H       0.1079   0.3486   0.5357     H
O      0.12765   0.5283   0.1454     O
C       0.1318    0.561   0.0754     C
O       0.1323   0.3454   0.0803     O
H       0.1351   0.2246   0.3204     H
H        0.153    0.348   0.0277     H
H       0.1651   0.2364   0.9177     H
C       0.1676   0.5466   0.5538     C
O       0.1684   0.5404   0.8555     O
C       0.1822   0.5696   0.4738     C
N        0.183   0.2784   0.8087     N
C       0.1851   0.3752    0.385     C
H       0.1903   0.0684   0.3529     H
C       0.1929   0.2152   0.8653     C
C       0.2003   0.1802    0.286     C
O      0.20221  0.41098   0.3168     O
Cd     0.20915  0.36928  0.18588    Cd
H       0.2178   0.2912   0.6928     H
C       0.2196   0.4994   0.9112     C
O      0.22238  0.41964   0.9358     O
C       0.2242    0.247   0.7338     C
C       0.2319   0.0862   0.3056     C
C       0.2435   0.1168   0.8512     C
C       0.2482   0.5696   0.0262     C
H       0.2487    0.074   0.8932     H
N       0.2572   0.2122   0.2205     N
H       0.2587   0.9316   0.8529     H
C        0.275   0.1532   0.7151     C
O       0.2752   0.3294   0.4157     O
C        0.281   0.4994   0.5888     C
C       0.2855   0.0852   0.7727     C
C       0.2858   0.5466   0.9462     C
O       0.2912   0.5404   0.6445     O
H       0.2912   0.6196   0.1144     H
H       0.3032   0.1352    0.662     H
C       0.3072    0.561   0.4246     C
C       0.3137    0.607   0.0602     C
C       0.3181   0.9138   0.8056     C
H       0.3227    0.926   0.3932     H
C       0.3261   0.0176   0.2547     C
C       0.3437   0.9824   0.7547     C
O      0.34405   0.5283   0.3546     O
C       0.3476   0.1464   0.1715     C
O      0.35798  0.41964   0.5642     O
H       0.3597   0.7754   0.8204     H
C       0.3603   0.8832   0.3512     C
O       0.3697    0.593   0.4528     O
C       0.3707   0.9148   0.2727     C
C       0.3805   0.8198    0.786     C
C       0.3829   0.0496   0.1868     C
C       0.3855   0.5656   0.8978     C
O      0.38681  0.41098   0.1832     O
H       0.3889    0.166    0.125     H
O       0.3954   0.3294   0.0843     O
H       0.4015   0.7636   0.4177     H
O      0.40618  0.60464   0.7595     O
C       0.4081   0.7848   0.3653     C
C       0.4129   0.6258   0.0128     C
C       0.4195   0.5402   0.8112     C
Cd     0.42157  0.36928  0.31412    Cd
C       0.4282   0.8468   0.2151     C
C       0.4325   0.9504   0.6868     C
H       0.4384   0.8648    0.162     H
C       0.4397   0.3752    0.115     C
H       0.4451    0.166    0.375     H
H       0.4458   0.0062   0.1504     H
C       0.4479   0.6072   0.9323     C
H        0.452   0.9938   0.6504     H
O       0.4559    0.454   0.7952     O
H       0.4565   0.6514   0.0357     H
N       0.4614   0.7216   0.3087     N
N       0.4694   0.7878   0.7205     N
C       0.4712    0.753   0.2338     C
Cd     0.47274  0.43734  0.66556    Cd
O       0.4777   0.6546   0.5803     O
H        0.491   0.2912   0.8072     H
C        0.494   0.8536   0.6715     C
H        0.499    0.348   0.4723     H
H        0.501    0.652   0.5277     H
C        0.506   0.1464   0.3285     C
H        0.509   0.7088   0.1928     H
O       0.5223   0.3454   0.4197     O
Cd     0.52726  0.56266  0.33444    Cd
C       0.5288    0.247   0.7662     C
N       0.5306   0.2122   0.2795     N
N       0.5386   0.2784   0.6913     N
H       0.5435   0.3486   0.9643     H
O       0.5441    0.546   0.2048     O
H        0.548   0.0062   0.3496     H
C       0.5521   0.3928   0.0677     C
H       0.5542   0.9938   0.8496     H
H       0.5549    0.834    0.625     H
C       0.5603   0.6248    0.885     C
H       0.5616   0.1352    0.838     H
C       0.5675   0.0496   0.3132     C
C       0.5718   0.1532   0.7849     C
Cd     0.57843  0.63072  0.68588    Cd
C       0.5805   0.4598   0.1888     C
C       0.5871   0.3742   0.9872     C
C       0.5919   0.2152   0.6347     C
O      0.59382  0.39536   0.2405     O
H       0.5985   0.2364   0.5823     H
O       0.6046   0.6706   0.9157     O
H       0.6111    0.834    0.875     H
O      0.61319  0.58902   0.8168     O
C       0.6145   0.4344   0.1022     C
C       0.6171   0.9504   0.8132     C
C       0.6195   0.1802    0.214     C
C       0.6293   0.0852   0.7273     C
O       0.6303    0.407   0.5472     O
C       0.6397   0.1168   0.6488     C
H       0.6403   0.2246   0.1796     H
O      0.64202  0.58036   0.4358     O
C       0.6524   0.8536   0.8285     C
O      0.65595   0.4717   0.6454     O
C       0.6563   0.0176   0.2453     C
C       0.6739   0.9824   0.7453     C
H       0.6773    0.074   0.6068     H
C       0.6819   0.0862   0.1944     C
C       0.6863    0.393   0.9398     C
C       0.6928    0.439   0.5754     C
H       0.6968   0.8648    0.338     H
H       0.7088   0.3804   0.8856     H
O       0.7088   0.4596   0.3555     O
C       0.7142   0.4534   0.0538     C
C       0.7145   0.9148   0.2273     C
C        0.719   0.5006   0.4112     C
O       0.7248   0.6706   0.5843     O
C        0.725   0.8468   0.2849     C
H       0.7413   0.0684   0.1471     H
N       0.7428   0.7878   0.7795     N
H       0.7513    0.926   0.1068     H
C       0.7518   0.4304   0.9738     C
C       0.7565   0.8832   0.1488     C
C       0.7681   0.9138   0.6944     C
C       0.7758    0.753   0.2662     C
O      0.77762  0.58036   0.0642     O
C       0.7804   0.5006   0.0888     C
H       0.7822   0.7088   0.3072     H
Cd     0.79085  0.63072  0.81412    Cd
O      0.79779  0.58902   0.6832     O
C       0.7997   0.8198    0.714     C
C       0.8071   0.7848   0.1347     C
H       0.8097   0.9316   0.6471     H
C       0.8149   0.6248    0.615     C
N        0.817   0.7216   0.1913     N
C       0.8178   0.4304   0.5262     C
O       0.8316   0.4596   0.1445     O
C       0.8324   0.4534   0.4462     C
H       0.8349   0.7636   0.0823     H
H        0.847    0.652   0.9723     H
H       0.8649   0.7754   0.6796     H
O       0.8677   0.6546   0.9197     O
C       0.8682    0.439   0.9246     C
O      0.87235   0.4717   0.8546     O
H       0.8921   0.6514   0.4643     H
O       0.9099    0.546   0.2952     O
Cd     0.91008  0.56266  0.16556    Cd
H       0.9108   0.3804   0.6144     H
C       0.9207    0.393   0.5602     C
C       0.9449   0.6072   0.5677     C
C       0.9511   0.4344   0.3978     C
C       0.9597   0.4598   0.3112     C
C       0.9613   0.6258   0.4872     C
O       0.9627    0.407   0.9528     O
O      0.98918  0.60464   0.7405     O
