data_I
_chemical_name_common  '/home/zhangsd/repos/MofS-CGCNN/ML/data/TSD/clean_cifs/ASIQIE_clean'
_cell_length_a 18.12000
_cell_length_b 18.12000
_cell_length_c 12.90500
_cell_angle_alpha 90.00000
_cell_angle_beta  90.00000
_cell_angle_gamma 90.00000
_space_group_name_H-M_alt      'P 1'


loop_
_space_group_symop_operation_xyz
  'x, y, z' 

loop_
_atom_site_label
_atom_site_fract_x
_atom_site_fract_y
_atom_site_fract_z
_atom_site_type_symbol
Cu         0.0      0.0      0.0    Cu
Cu         0.0      0.5      0.5    Cu
O       0.0011   0.2975   0.8865     O
H       0.0011   0.3251   0.5266     H
H        0.002   0.9683   0.6113     H
C       0.0065    0.009   0.3252     C
C        0.009   0.4935   0.1748     C
N         0.01   0.9856   0.1543     N
C       0.0139   0.9651   0.7692     C
N       0.0144     0.51   0.6543     N
H       0.0156   0.6199   0.9636     H
H       0.0317    0.502   0.1113     H
C       0.0349   0.5139   0.2692     C
H       0.0396   0.9216   0.7812     H
N       0.0424   0.9423   0.3095     N
C       0.0434   0.9314   0.2047     C
H       0.0442   0.8283   0.9593     H
H       0.0446   0.7977   0.3342     H
C       0.0473   0.6579   0.4703     C
N       0.0577   0.5424   0.8095     N
H        0.065   0.8908   0.1727     H
N       0.0668   0.5868   0.4752     N
C       0.0668   0.6159   0.9642     C
C       0.0686   0.5434   0.7047     C
C       0.0696   0.6923   0.1273     C
C       0.0717   0.8215   0.3854     C
C       0.0768   0.8977   0.3877     C
H       0.0784   0.5396   0.2812     H
C       0.0863   0.8577   0.9618     C
N       0.0868   0.9332   0.9752     N
O       0.1021   0.7171   0.1995     O
C       0.1023   0.5768   0.8877     C
N        0.107    0.702     0.46     N
C       0.1082   0.6502   0.0438     C
C       0.1084   0.7812   0.4619     C
H       0.1092    0.565   0.6727     H
C       0.1159   0.9332   0.4642     C
H       0.1199   0.9844   0.4636     H
C       0.1423   0.5863   0.4618     C
C       0.1456   0.8154    0.541     C
C       0.1502   0.8918   0.5438     C
C       0.1561   0.8333    0.953     C
C       0.1579   0.9527   0.9703     C
C       0.1667   0.6561    0.453     C
H       0.1677   0.7874   0.5928     H
H       0.1706   0.7845   0.9437     H
H       0.1717   0.5442   0.4593     H
H       0.1749   0.0011   0.9734     H
C       0.1785   0.5717   0.8854     C
C       0.1846   0.6456    0.041     C
C       0.1923   0.9304   0.6273     C
N        0.202    0.893     0.96     N
H       0.2023   0.5446   0.8342     H
O       0.2025   0.0011   0.6135     O
H       0.2126   0.6677   0.0928     H
H       0.2155   0.6706   0.4437     H
O       0.2171   0.8979   0.6995     O
C       0.2188   0.6084   0.9619     C
C       0.2812   0.8916   0.9619     C
O       0.2829   0.6021   0.6995     O
H       0.2845   0.8294   0.4437     H
H       0.2874   0.8323   0.0928     H
O       0.2975   0.4989   0.6135     O
H       0.2977   0.9554   0.8342     H
N        0.298    0.607     0.96     N
C       0.3077   0.5696   0.6273     C
C       0.3154   0.8544    0.041     C
C       0.3215   0.9283   0.8854     C
H       0.3251   0.4989   0.9734     H
H       0.3283   0.9558   0.4593     H
H       0.3294   0.7155   0.9437     H
H       0.3323   0.7126   0.5928     H
C       0.3333   0.8439    0.453     C
C       0.3421   0.5473   0.9703     C
C       0.3439   0.6667    0.953     C
C       0.3498   0.6082   0.5438     C
C       0.3544   0.6846    0.541     C
C       0.3577   0.9137   0.4618     C
H       0.3801   0.5156   0.4636     H
C       0.3841   0.5668   0.4642     C
H       0.3908    0.935   0.6727     H
C       0.3916   0.7188   0.4619     C
C       0.3918   0.8498   0.0438     C
N        0.393    0.798     0.46     N
C       0.3977   0.9232   0.8877     C
O       0.3979   0.7829   0.1995     O
N       0.4132   0.5668   0.9752     N
C       0.4137   0.6423   0.9618     C
H       0.4216   0.9604   0.2812     H
C       0.4232   0.6023   0.3877     C
C       0.4283   0.6785   0.3854     C
C       0.4304   0.8077   0.1273     C
C       0.4314   0.9566   0.7047     C
C       0.4332   0.8841   0.9642     C
N       0.4332   0.9132   0.4752     N
H        0.435   0.6092   0.1727     H
N       0.4423   0.9576   0.8095     N
C       0.4527   0.8421   0.4703     C
H       0.4554   0.7023   0.3342     H
H       0.4558   0.6717   0.9593     H
C       0.4566   0.5686   0.2047     C
N       0.4576   0.5577   0.3095     N
H       0.4604   0.5784   0.7812     H
C       0.4651   0.9861   0.2692     C
H       0.4683    0.998   0.1113     H
H       0.4844   0.8801   0.9636     H
N       0.4856     0.99   0.6543     N
C       0.4861   0.5349   0.7692     C
N         0.49   0.5144   0.1543     N
C        0.491   0.0065   0.1748     C
C       0.4935    0.491   0.3252     C
H        0.498   0.5317   0.6113     H
H       0.4989   0.1749   0.5266     H
O       0.4989   0.2025   0.8865     O
Cu         0.5      0.0      0.5    Cu
Cu         0.5      0.5      0.0    Cu
O       0.5011   0.7975   0.1135     O
H       0.5011   0.8251   0.4734     H
H        0.502   0.4683   0.3887     H
C       0.5065    0.509   0.6748     C
C        0.509   0.9935   0.8252     C
N         0.51   0.4856   0.8457     N
C       0.5139   0.4651   0.2308     C
N       0.5144     0.01   0.3457     N
H       0.5156   0.1199   0.0364     H
H       0.5317    0.002   0.8887     H
C       0.5349   0.0139   0.7308     C
H       0.5396   0.4216   0.2188     H
N       0.5424   0.4423   0.6905     N
C       0.5434   0.4314   0.7953     C
H       0.5442   0.3283   0.0407     H
H       0.5446   0.2977   0.6658     H
C       0.5473   0.1579   0.5297     C
N       0.5577   0.0424   0.1905     N
H        0.565   0.3908   0.8273     H
N       0.5668   0.0868   0.5248     N
C       0.5668   0.1159   0.0358     C
C       0.5686   0.0434   0.2953     C
C       0.5696   0.1923   0.8727     C
C       0.5717   0.3215   0.6146     C
C       0.5768   0.3977   0.6123     C
H       0.5784   0.0396   0.7188     H
C       0.5863   0.3577   0.0382     C
N       0.5868   0.4332   0.0248     N
O       0.6021   0.2171   0.8005     O
C       0.6023   0.0768   0.1123     C
N        0.607    0.202     0.54     N
C       0.6082   0.1502   0.9562     C
C       0.6084   0.2812   0.5381     C
H       0.6092    0.065   0.3273     H
C       0.6159   0.4332   0.5358     C
H       0.6199   0.4844   0.5364     H
C       0.6423   0.0863   0.5382     C
C       0.6456   0.3154    0.459     C
C       0.6502   0.3918   0.4562     C
C       0.6561   0.3333    0.047     C
C       0.6579   0.4527   0.0297     C
C       0.6667   0.1561    0.547     C
H       0.6677   0.2874   0.4072     H
H       0.6706   0.2845   0.0563     H
H       0.6717   0.0442   0.5407     H
H       0.6749   0.5011   0.0266     H
C       0.6785   0.0717   0.1146     C
C       0.6846   0.1456    0.959     C
C       0.6923   0.4304   0.3727     C
N        0.702    0.393     0.04     N
H       0.7023   0.0446   0.1658     H
O       0.7025   0.5011   0.3865     O
H       0.7126   0.1677   0.9072     H
H       0.7155   0.1706   0.5563     H
O       0.7171   0.3979   0.3005     O
C       0.7188   0.1084   0.0381     C
C       0.7812   0.3916   0.0381     C
O       0.7829   0.1021   0.3005     O
H       0.7845   0.3294   0.5563     H
H       0.7874   0.3323   0.9072     H
O       0.7975   0.9989   0.3865     O
H       0.7977   0.4554   0.1658     H
N        0.798    0.107     0.04     N
C       0.8077   0.0696   0.3727     C
C       0.8154   0.3544    0.959     C
C       0.8215   0.4283   0.1146     C
H       0.8251   0.9989   0.0266     H
H       0.8283   0.4558   0.5407     H
H       0.8294   0.2155   0.0563     H
H       0.8323   0.2126   0.4072     H
C       0.8333   0.3439    0.547     C
C       0.8421   0.0473   0.0297     C
C       0.8439   0.1667    0.047     C
C       0.8498   0.1082   0.4562     C
C       0.8544   0.1846    0.459     C
C       0.8577   0.4137   0.5382     C
H       0.8801   0.0156   0.5364     H
C       0.8841   0.0668   0.5358     C
H       0.8908    0.435   0.3273     H
C       0.8916   0.2188   0.5381     C
C       0.8918   0.3498   0.9562     C
N        0.893    0.298     0.54     N
C       0.8977   0.4232   0.1123     C
O       0.8979   0.2829   0.8005     O
N       0.9132   0.0668   0.0248     N
C       0.9137   0.1423   0.0382     C
H       0.9216   0.4604   0.7188     H
C       0.9232   0.1023   0.6123     C
C       0.9283   0.1785   0.6146     C
C       0.9304   0.3077   0.8727     C
C       0.9314   0.4566   0.2953     C
C       0.9332   0.3841   0.0358     C
N       0.9332   0.4132   0.5248     N
H        0.935   0.1092   0.8273     H
N       0.9423   0.4576   0.1905     N
C       0.9527   0.3421   0.5297     C
H       0.9554   0.2023   0.6658     H
H       0.9558   0.1717   0.0407     H
C       0.9566   0.0686   0.7953     C
N       0.9576   0.0577   0.6905     N
H       0.9604   0.0784   0.2188     H
C       0.9651   0.4861   0.7308     C
H       0.9683    0.498   0.8887     H
H       0.9844   0.3801   0.0364     H
N       0.9856     0.49   0.3457     N
C       0.9861   0.0349   0.2308     C
N         0.99   0.0144   0.8457     N
C        0.991   0.5065   0.8252     C
C       0.9935    0.991   0.6748     C
H        0.998   0.0317   0.3887     H
H       0.9989   0.6749   0.4734     H
O       0.9989   0.7025   0.1135     O
