data_I
_chemical_name_common  '/home/zhangsd/repos/MofS-CGCNN/ML/data/TSD/clean_cifs/ASIRUR_clean'
_cell_length_a 10.89300
_cell_length_b  6.61800
_cell_length_c 17.33700
_cell_angle_alpha 90.00000
_cell_angle_beta  106.88500
_cell_angle_gamma 90.00000
_space_group_name_H-M_alt      'P 1'


loop_
_space_group_symop_operation_xyz
  'x, y, z' 

loop_
_atom_site_label
_atom_site_fract_x
_atom_site_fract_y
_atom_site_fract_z
_atom_site_type_symbol
C       0.0114   0.0163   0.6252     C
C       0.0114   0.4837   0.1252     C
H       0.0161   0.7474   0.1863     H
H       0.0161   0.7526   0.6863     H
C       0.0338   0.1507   0.0599     C
C       0.0338   0.3493   0.5599     C
C       0.0544   0.6209   0.1891     C
C       0.0544   0.8791   0.6891     C
H       0.0575    0.017    0.419     H
H       0.0575    0.483    0.919     H
C       0.0721   0.2021   0.6283     C
C       0.0721   0.2979   0.1283     C
C       0.0877   0.5697   0.4633     C
C       0.0877   0.9303   0.9633     C
C       0.1236   0.0818   0.0222     C
C       0.1236   0.4182   0.5222     C
H       0.1481   0.6169   0.4392     H
H       0.1481   0.8831   0.9392     H
C       0.1536   0.5685   0.2564     C
C       0.1536   0.9315   0.7564     C
C       0.1717   0.2473   0.1966     C
C       0.1717   0.2527   0.6966     C
H       0.1807   0.6595   0.2989     H
H       0.1807   0.8405   0.7989     H
H       0.2111   0.1218    0.199     H
H       0.2111   0.3782    0.699     H
C       0.2135   0.1202   0.7612     C
C       0.2135   0.3798   0.2612     C
C       0.2574   0.1657   0.0414     C
C       0.2574   0.3343   0.5414     C
O       0.2734   0.1472   0.5382     O
O       0.2734   0.3528   0.0382     O
C       0.3226    0.178   0.8345     C
C       0.3226    0.322   0.3345     C
H       0.3455   0.6872   0.9533     H
H       0.3455   0.8128   0.4533     H
O       0.3485   0.0385   0.0601     O
O       0.3485   0.4615   0.5601     O
O       0.3599   0.0456   0.8862     O
O       0.3599   0.4544   0.3862     O
O       0.3628   0.1454   0.3381     O
O       0.3628   0.3546   0.8381     O
O       0.4376   0.6873   0.9814     O
O       0.4376   0.8127   0.4814     O
Mn     0.46859  0.00323  0.58739    Mn
Mn     0.46859  0.49677  0.08739    Mn
Mn         0.5      0.0      0.0    Mn
Mn         0.5      0.5      0.5    Mn
Mn     0.53141  0.50323  0.91261    Mn
Mn     0.53141  0.99677  0.41261    Mn
O       0.5624   0.1873   0.5186     O
O       0.5624   0.3127   0.0186     O
O       0.6372   0.6454   0.1619     O
O       0.6372   0.8546   0.6619     O
O       0.6401   0.5456   0.6138     O
O       0.6401   0.9544   0.1138     O
O       0.6515   0.5385   0.4399     O
O       0.6515   0.9615   0.9399     O
H       0.6545   0.1872   0.5467     H
H       0.6545   0.3128   0.0467     H
C       0.6774    0.678   0.6655     C
C       0.6774    0.822   0.1655     C
O       0.7266   0.6472   0.9618     O
O       0.7266   0.8528   0.4618     O
C       0.7426   0.6657   0.4586     C
C       0.7426   0.8343   0.9586     C
C       0.7865   0.6202   0.7388     C
C       0.7865   0.8798   0.2388     C
H       0.7889   0.6218    0.301     H
H       0.7889   0.8782    0.801     H
H       0.8193   0.1595   0.2011     H
H       0.8193   0.3405   0.7011     H
C       0.8283   0.7473   0.3034     C
C       0.8283   0.7527   0.8034     C
C       0.8464   0.0685   0.2436     C
C       0.8464   0.4315   0.7436     C
H       0.8519   0.1169   0.0608     H
H       0.8519   0.3831   0.5608     H
C       0.8764   0.5818   0.4778     C
C       0.8764   0.9182   0.9778     C
C       0.9123   0.0697   0.0367     C
C       0.9123   0.4303   0.5367     C
C       0.9279   0.7021   0.8717     C
C       0.9279   0.7979   0.3717     C
H       0.9425    0.517    0.081     H
H       0.9425    0.983    0.581     H
C       0.9456   0.1209   0.3109     C
C       0.9456   0.3791   0.8109     C
C       0.9662   0.6507   0.4401     C
C       0.9662   0.8493   0.9401     C
H       0.9839   0.2474   0.3137     H
H       0.9839   0.2526   0.8137     H
C       0.9886   0.5163   0.8748     C
C       0.9886   0.9837   0.3748     C
