data_I
_chemical_name_common  '/home/zhangsd/repos/MofS-CGCNN/ML/data/TSD/clean_cifs/ASIVAB_clean'
_cell_length_a 34.14490
_cell_length_b 34.14490
_cell_length_c 19.88430
_cell_angle_alpha 90.00000
_cell_angle_beta  90.00000
_cell_angle_gamma 90.00000
_space_group_name_H-M_alt      'P 1'


loop_
_space_group_symop_operation_xyz
  'x, y, z' 

loop_
_atom_site_label
_atom_site_fract_x
_atom_site_fract_y
_atom_site_fract_z
_atom_site_type_symbol
Cu         0.0  0.03822      0.5    Cu
N          0.0   0.3087   0.2486     N
N          0.0   0.3087   0.7514     N
C          0.0   0.3423   0.2134     C
C          0.0   0.3423   0.7866     C
C          0.0   0.4103   0.1315     C
C          0.0   0.4103   0.8685     C
C          0.0   0.4468   0.0874     C
C          0.0   0.4468   0.9126     C
C          0.0   0.5532   0.0874     C
C          0.0   0.5532   0.9126     C
C          0.0   0.5897   0.1315     C
C          0.0   0.5897   0.8685     C
C          0.0   0.6577   0.2134     C
C          0.0   0.6577   0.7866     C
N          0.0   0.6913   0.2486     N
N          0.0   0.6913   0.7514     N
Cu         0.0  0.96178      0.5    Cu
H        0.022    0.307    0.266     H
H        0.022    0.307    0.734     H
H        0.022    0.693    0.266     H
H        0.022    0.693    0.734     H
O      0.03312  0.45924   0.0677     O
O      0.03312  0.45924   0.9323     O
O      0.03312  0.54076   0.0677     O
O      0.03312  0.54076   0.9323     O
C      0.03465  0.39326    0.151     C
C      0.03465  0.39326    0.849     C
C      0.03465  0.60674    0.151     C
C      0.03465  0.60674    0.849     C
C      0.03591   0.3594   0.1903     C
C      0.03591   0.3594   0.8097     C
C      0.03591   0.6406   0.1903     C
C      0.03591   0.6406   0.8097     C
Cu     0.03829      0.5      0.0    Cu
O      0.04158  0.03299    0.434     O
O      0.04158  0.03299    0.566     O
O      0.04158  0.96701    0.434     O
O      0.04158  0.96701    0.566     O
C       0.0531      0.0   0.4094     C
C       0.0531      0.0   0.5906     C
H       0.0581   0.4047   0.1376     H
H       0.0581   0.4047   0.8624     H
H       0.0581   0.5953   0.1376     H
H       0.0581   0.5953   0.8624     H
H       0.0696   0.3369    0.296     H
H       0.0696   0.3369    0.704     H
H       0.0696   0.6631    0.296     H
H       0.0696   0.6631    0.704     H
C      0.07428  0.34107   0.2023     C
C      0.07428  0.34107   0.7977     C
C      0.07428  0.65893   0.2023     C
C      0.07428  0.65893   0.7977     C
C       0.0867   0.3318   0.2608     C
C       0.0867   0.3318   0.7392     C
C       0.0867   0.6682   0.2608     C
C       0.0867   0.6682   0.7392     C
C       0.0884      0.0   0.3686     C
C       0.0884      0.0   0.6314     C
H       0.0892   0.3373   0.1079     H
H       0.0892   0.3373   0.8921     H
H       0.0892   0.6627   0.1079     H
H       0.0892   0.6627   0.8921     H
H       0.0899   0.0578    0.353     H
H       0.0899   0.0578    0.647     H
H       0.0899   0.9422    0.353     H
H       0.0899   0.9422    0.647     H
C       0.0978   0.3312   0.1511     C
C       0.0978   0.3312   0.8489     C
C       0.0978   0.6688   0.1511     C
C       0.0978   0.6688   0.8489     C
C      0.10543  0.03578   0.3501     C
C      0.10543  0.03578   0.6499     C
C      0.10543  0.96422   0.3501     C
C      0.10543  0.96422   0.6499     C
C      0.12319   0.3149   0.2796     C
C      0.12319   0.3149   0.7204     C
C      0.12319   0.6851   0.2796     C
C      0.12319   0.6851   0.7204     C
H       0.1308   0.3108    0.324     H
H       0.1308   0.3108    0.676     H
H       0.1308   0.6892    0.324     H
H       0.1308   0.6892    0.676     H
C       0.1346   0.3124   0.1569     C
C       0.1346   0.3124   0.8431     C
C       0.1346   0.6876   0.1569     C
C       0.1346   0.6876   0.8431     C
C       0.1403  0.03552   0.3069     C
C       0.1403  0.03552   0.6931     C
C       0.1403  0.96448   0.3069     C
C       0.1403  0.96448   0.6931     C
C      0.14583  0.30511   0.2256     C
C      0.14583  0.30511   0.7744     C
C      0.14583  0.69489   0.2256     C
C      0.14583  0.69489   0.7744     C
H         0.15   0.3055   0.1201     H
H         0.15   0.3055   0.8799     H
H         0.15   0.6945   0.1201     H
H         0.15   0.6945   0.8799     H
C       0.1575      0.0   0.2903     C
C       0.1575      0.0   0.7097     C
C      0.15866   0.0727   0.2965     C
C      0.15866   0.0727   0.7035     C
C      0.15866   0.9273   0.2965     C
C      0.15866   0.9273   0.7035     C
H       0.1636   0.0865   0.3915     H
H       0.1636   0.0865   0.6085     H
H       0.1636   0.9135   0.3915     H
H       0.1636   0.9135   0.6085     H
H       0.1637   0.0695   0.1985     H
H       0.1637   0.0695   0.8015     H
H       0.1637   0.9305   0.1985     H
H       0.1637   0.9305   0.8015     H
C       0.1682   0.0965   0.3487     C
C       0.1682   0.0965   0.6513     C
C       0.1682   0.9035   0.3487     C
C       0.1682   0.9035   0.6513     C
C       0.1688   0.0864    0.234     C
C       0.1688   0.0864    0.766     C
C       0.1688   0.9136    0.234     C
C       0.1688   0.9136    0.766     C
C       0.1844   0.1354   0.3458     C
C       0.1844   0.1354   0.6542     C
C       0.1844   0.8646   0.3458     C
C       0.1844   0.8646   0.6542     C
C      0.18616  0.28434   0.2419     C
C      0.18616  0.28434   0.7581     C
C      0.18616  0.71566   0.2419     C
C      0.18616  0.71566   0.7581     C
C       0.1869   0.1243   0.2152     C
C       0.1869   0.1243   0.7848     C
C       0.1869   0.8757   0.2152     C
C       0.1869   0.8757   0.7848     C
H       0.1883   0.1516   0.3827     H
H       0.1883   0.1516   0.6173     H
H       0.1883   0.8484   0.3827     H
H       0.1883   0.8484   0.6173     H
N       0.1917      0.0    0.248     N
N       0.1917      0.0    0.752     N
H       0.1921   0.1319   0.1711     H
H       0.1921   0.1319   0.8289     H
H       0.1921   0.8681   0.1711     H
H       0.1921   0.8681   0.8289     H
H        0.194    0.027    0.226     H
H        0.194    0.027    0.774     H
H        0.194    0.973    0.226     H
H        0.194    0.973    0.774     H
C       0.1949   0.1466   0.2698     C
C       0.1949   0.1466   0.7302     C
C       0.1949   0.8534   0.2698     C
C       0.1949   0.8534   0.7302     C
O      0.19785  0.28048   0.3007     O
O      0.19785  0.28048   0.6993     O
O      0.19785  0.71952   0.3007     O
O      0.19785  0.71952   0.6993     O
O      0.20407  0.27237   0.1832     O
O      0.20407  0.27237   0.8168     O
O      0.20407  0.72763   0.1832     O
O      0.20407  0.72763   0.8168     O
C       0.2148   0.1857   0.2614     C
C       0.2148   0.1857   0.7386     C
C       0.2148   0.8143   0.2614     C
C       0.2148   0.8143   0.7386     C
O      0.21839  0.20239   0.3083     O
O      0.21839  0.20239   0.6917     O
O      0.21839  0.79761   0.3083     O
O      0.21839  0.79761   0.6917     O
O      0.22611  0.19701   0.1963     O
O      0.22611  0.19701   0.8037     O
O      0.22611  0.80299   0.1963     O
O      0.22611  0.80299   0.8037     O
Cu     0.24658  0.25458  0.31462    Cu
Cu     0.24658  0.25458  0.68538    Cu
Cu     0.24658  0.74542  0.31462    Cu
Cu     0.24658  0.74542  0.68538    Cu
Cu     0.25342  0.24542  0.18538    Cu
Cu     0.25342  0.24542  0.81462    Cu
Cu     0.25342  0.75458  0.18538    Cu
Cu     0.25342  0.75458  0.81462    Cu
O      0.27389  0.30299   0.3037     O
O      0.27389  0.30299   0.6963     O
O      0.27389  0.69701   0.3037     O
O      0.27389  0.69701   0.6963     O
O      0.28161  0.29761   0.1917     O
O      0.28161  0.29761   0.8083     O
O      0.28161  0.70239   0.1917     O
O      0.28161  0.70239   0.8083     O
C       0.2852   0.3143   0.2386     C
C       0.2852   0.3143   0.7614     C
C       0.2852   0.6857   0.2386     C
C       0.2852   0.6857   0.7614     C
O      0.29593  0.22763   0.3168     O
O      0.29593  0.22763   0.6832     O
O      0.29593  0.77237   0.3168     O
O      0.29593  0.77237   0.6832     O
O      0.30215  0.21952   0.1993     O
O      0.30215  0.21952   0.8007     O
O      0.30215  0.78048   0.1993     O
O      0.30215  0.78048   0.8007     O
C       0.3051   0.3534   0.2302     C
C       0.3051   0.3534   0.7698     C
C       0.3051   0.6466   0.2302     C
C       0.3051   0.6466   0.7698     C
H        0.306    0.473    0.274     H
H        0.306    0.473    0.726     H
H        0.306    0.527    0.274     H
H        0.306    0.527    0.726     H
H       0.3079   0.3681   0.3289     H
H       0.3079   0.3681   0.6711     H
H       0.3079   0.6319   0.3289     H
H       0.3079   0.6319   0.6711     H
N       0.3083      0.5    0.252     N
N       0.3083      0.5    0.748     N
H       0.3117   0.3484   0.1173     H
H       0.3117   0.3484   0.8827     H
H       0.3117   0.6516   0.1173     H
H       0.3117   0.6516   0.8827     H
C       0.3131   0.3757   0.2848     C
C       0.3131   0.3757   0.7152     C
C       0.3131   0.6243   0.2848     C
C       0.3131   0.6243   0.7152     C
C      0.31384  0.21566   0.2581     C
C      0.31384  0.21566   0.7419     C
C      0.31384  0.78434   0.2581     C
C      0.31384  0.78434   0.7419     C
C       0.3156   0.3646   0.1542     C
C       0.3156   0.3646   0.8458     C
C       0.3156   0.6354   0.1542     C
C       0.3156   0.6354   0.8458     C
C       0.3312   0.4136    0.266     C
C       0.3312   0.4136    0.734     C
C       0.3312   0.5864    0.266     C
C       0.3312   0.5864    0.734     C
C       0.3318   0.4035   0.1513     C
C       0.3318   0.4035   0.8487     C
C       0.3318   0.5965   0.1513     C
C       0.3318   0.5965   0.8487     C
H       0.3363   0.4305   0.3015     H
H       0.3363   0.4305   0.6985     H
H       0.3363   0.5695   0.3015     H
H       0.3363   0.5695   0.6985     H
H       0.3364   0.4135   0.1085     H
H       0.3364   0.4135   0.8915     H
H       0.3364   0.5865   0.1085     H
H       0.3364   0.5865   0.8915     H
C      0.34134   0.4273   0.2035     C
C      0.34134   0.4273   0.7965     C
C      0.34134   0.5727   0.2035     C
C      0.34134   0.5727   0.7965     C
C       0.3425      0.5   0.2097     C
C       0.3425      0.5   0.7903     C
H         0.35   0.1945   0.3799     H
H         0.35   0.1945   0.6201     H
H         0.35   0.8055   0.3799     H
H         0.35   0.8055   0.6201     H
C      0.35417  0.19489   0.2744     C
C      0.35417  0.19489   0.7256     C
C      0.35417  0.80511   0.2744     C
C      0.35417  0.80511   0.7256     C
C       0.3597  0.46448   0.1931     C
C       0.3597  0.46448   0.8069     C
C       0.3597  0.53552   0.1931     C
C       0.3597  0.53552   0.8069     C
C       0.3654   0.1876   0.3431     C
C       0.3654   0.1876   0.6569     C
C       0.3654   0.8124   0.3431     C
C       0.3654   0.8124   0.6569     C
H       0.3692   0.1892    0.176     H
H       0.3692   0.1892    0.824     H
H       0.3692   0.8108    0.176     H
H       0.3692   0.8108    0.824     H
C      0.37681   0.1851   0.2204     C
C      0.37681   0.1851   0.7796     C
C      0.37681   0.8149   0.2204     C
C      0.37681   0.8149   0.7796     C
C      0.39457  0.46422   0.1499     C
C      0.39457  0.46422   0.8501     C
C      0.39457  0.53578   0.1499     C
C      0.39457  0.53578   0.8501     C
C       0.4022   0.1688   0.3489     C
C       0.4022   0.1688   0.6511     C
C       0.4022   0.8312   0.3489     C
C       0.4022   0.8312   0.6511     C
H       0.4101   0.4422    0.147     H
H       0.4101   0.4422    0.853     H
H       0.4101   0.5578    0.147     H
H       0.4101   0.5578    0.853     H
H       0.4108   0.1627   0.3921     H
H       0.4108   0.1627   0.6079     H
H       0.4108   0.8373   0.3921     H
H       0.4108   0.8373   0.6079     H
C       0.4116      0.5   0.1314     C
C       0.4116      0.5   0.8686     C
C       0.4133   0.1682   0.2392     C
C       0.4133   0.1682   0.7608     C
C       0.4133   0.8318   0.2392     C
C       0.4133   0.8318   0.7608     C
C      0.42572  0.15893   0.2977     C
C      0.42572  0.15893   0.7023     C
C      0.42572  0.84107   0.2977     C
C      0.42572  0.84107   0.7023     C
H       0.4304   0.1631    0.204     H
H       0.4304   0.1631    0.796     H
H       0.4304   0.8369    0.204     H
H       0.4304   0.8369    0.796     H
H       0.4419   0.0953   0.3624     H
H       0.4419   0.0953   0.6376     H
H       0.4419   0.9047   0.3624     H
H       0.4419   0.9047   0.6376     H
C       0.4469      0.5   0.0906     C
C       0.4469      0.5   0.9094     C
O      0.45842  0.46701    0.066     O
O      0.45842  0.46701    0.934     O
O      0.45842  0.53299    0.066     O
O      0.45842  0.53299    0.934     O
Cu     0.46171      0.0      0.5    Cu
C      0.46409   0.1406   0.3097     C
C      0.46409   0.1406   0.6903     C
C      0.46409   0.8594   0.3097     C
C      0.46409   0.8594   0.6903     C
C      0.46535  0.10674    0.349     C
C      0.46535  0.10674    0.651     C
C      0.46535  0.89326    0.349     C
C      0.46535  0.89326    0.651     C
O      0.46688  0.04076   0.4323     O
O      0.46688  0.04076   0.5677     O
O      0.46688  0.95924   0.4323     O
O      0.46688  0.95924   0.5677     O
H        0.478    0.193    0.234     H
H        0.478    0.193    0.766     H
H        0.478    0.807    0.234     H
H        0.478    0.807    0.766     H
C          0.5   0.0532   0.4126     C
C          0.5   0.0532   0.5874     C
C          0.5   0.0897   0.3685     C
C          0.5   0.0897   0.6315     C
C          0.5   0.1577   0.2866     C
C          0.5   0.1577   0.7134     C
N          0.5   0.1913   0.2514     N
N          0.5   0.1913   0.7486     N
Cu         0.5  0.46178      0.0    Cu
Cu         0.5  0.53822      0.0    Cu
N          0.5   0.8087   0.2514     N
N          0.5   0.8087   0.7486     N
C          0.5   0.8423   0.2866     C
C          0.5   0.8423   0.7134     C
C          0.5   0.9103   0.3685     C
C          0.5   0.9103   0.6315     C
C          0.5   0.9468   0.4126     C
C          0.5   0.9468   0.5874     C
H        0.522    0.193    0.234     H
H        0.522    0.193    0.766     H
H        0.522    0.807    0.234     H
H        0.522    0.807    0.766     H
O      0.53312  0.04076   0.4323     O
O      0.53312  0.04076   0.5677     O
O      0.53312  0.95924   0.4323     O
O      0.53312  0.95924   0.5677     O
C      0.53465  0.10674    0.349     C
C      0.53465  0.10674    0.651     C
C      0.53465  0.89326    0.349     C
C      0.53465  0.89326    0.651     C
C      0.53591   0.1406   0.3097     C
C      0.53591   0.1406   0.6903     C
C      0.53591   0.8594   0.3097     C
C      0.53591   0.8594   0.6903     C
Cu     0.53829      0.0      0.5    Cu
O      0.54158  0.46701    0.066     O
O      0.54158  0.46701    0.934     O
O      0.54158  0.53299    0.066     O
O      0.54158  0.53299    0.934     O
C       0.5531      0.5   0.0906     C
C       0.5531      0.5   0.9094     C
H       0.5581   0.0953   0.3624     H
H       0.5581   0.0953   0.6376     H
H       0.5581   0.9047   0.3624     H
H       0.5581   0.9047   0.6376     H
H       0.5696   0.1631    0.204     H
H       0.5696   0.1631    0.796     H
H       0.5696   0.8369    0.204     H
H       0.5696   0.8369    0.796     H
C      0.57428  0.15893   0.2977     C
C      0.57428  0.15893   0.7023     C
C      0.57428  0.84107   0.2977     C
C      0.57428  0.84107   0.7023     C
C       0.5867   0.1682   0.2392     C
C       0.5867   0.1682   0.7608     C
C       0.5867   0.8318   0.2392     C
C       0.5867   0.8318   0.7608     C
C       0.5884      0.5   0.1314     C
C       0.5884      0.5   0.8686     C
H       0.5892   0.1627   0.3921     H
H       0.5892   0.1627   0.6079     H
H       0.5892   0.8373   0.3921     H
H       0.5892   0.8373   0.6079     H
H       0.5899   0.4422    0.147     H
H       0.5899   0.4422    0.853     H
H       0.5899   0.5578    0.147     H
H       0.5899   0.5578    0.853     H
C       0.5978   0.1688   0.3489     C
C       0.5978   0.1688   0.6511     C
C       0.5978   0.8312   0.3489     C
C       0.5978   0.8312   0.6511     C
C      0.60543  0.46422   0.1499     C
C      0.60543  0.46422   0.8501     C
C      0.60543  0.53578   0.1499     C
C      0.60543  0.53578   0.8501     C
C      0.62319   0.1851   0.2204     C
C      0.62319   0.1851   0.7796     C
C      0.62319   0.8149   0.2204     C
C      0.62319   0.8149   0.7796     C
H       0.6308   0.1892    0.176     H
H       0.6308   0.1892    0.824     H
H       0.6308   0.8108    0.176     H
H       0.6308   0.8108    0.824     H
C       0.6346   0.1876   0.3431     C
C       0.6346   0.1876   0.6569     C
C       0.6346   0.8124   0.3431     C
C       0.6346   0.8124   0.6569     C
C       0.6403  0.46448   0.1931     C
C       0.6403  0.46448   0.8069     C
C       0.6403  0.53552   0.1931     C
C       0.6403  0.53552   0.8069     C
C      0.64583  0.19489   0.2744     C
C      0.64583  0.19489   0.7256     C
C      0.64583  0.80511   0.2744     C
C      0.64583  0.80511   0.7256     C
H         0.65   0.1945   0.3799     H
H         0.65   0.1945   0.6201     H
H         0.65   0.8055   0.3799     H
H         0.65   0.8055   0.6201     H
C       0.6575      0.5   0.2097     C
C       0.6575      0.5   0.7903     C
C      0.65866   0.4273   0.2035     C
C      0.65866   0.4273   0.7965     C
C      0.65866   0.5727   0.2035     C
C      0.65866   0.5727   0.7965     C
H       0.6636   0.4135   0.1085     H
H       0.6636   0.4135   0.8915     H
H       0.6636   0.5865   0.1085     H
H       0.6636   0.5865   0.8915     H
H       0.6637   0.4305   0.3015     H
H       0.6637   0.4305   0.6985     H
H       0.6637   0.5695   0.3015     H
H       0.6637   0.5695   0.6985     H
C       0.6682   0.4035   0.1513     C
C       0.6682   0.4035   0.8487     C
C       0.6682   0.5965   0.1513     C
C       0.6682   0.5965   0.8487     C
C       0.6688   0.4136    0.266     C
C       0.6688   0.4136    0.734     C
C       0.6688   0.5864    0.266     C
C       0.6688   0.5864    0.734     C
C       0.6844   0.3646   0.1542     C
C       0.6844   0.3646   0.8458     C
C       0.6844   0.6354   0.1542     C
C       0.6844   0.6354   0.8458     C
C      0.68616  0.21566   0.2581     C
C      0.68616  0.21566   0.7419     C
C      0.68616  0.78434   0.2581     C
C      0.68616  0.78434   0.7419     C
C       0.6869   0.3757   0.2848     C
C       0.6869   0.3757   0.7152     C
C       0.6869   0.6243   0.2848     C
C       0.6869   0.6243   0.7152     C
H       0.6883   0.3484   0.1173     H
H       0.6883   0.3484   0.8827     H
H       0.6883   0.6516   0.1173     H
H       0.6883   0.6516   0.8827     H
N       0.6917      0.5    0.252     N
N       0.6917      0.5    0.748     N
H       0.6921   0.3681   0.3289     H
H       0.6921   0.3681   0.6711     H
H       0.6921   0.6319   0.3289     H
H       0.6921   0.6319   0.6711     H
H        0.694    0.473    0.274     H
H        0.694    0.473    0.726     H
H        0.694    0.527    0.274     H
H        0.694    0.527    0.726     H
C       0.6949   0.3534   0.2302     C
C       0.6949   0.3534   0.7698     C
C       0.6949   0.6466   0.2302     C
C       0.6949   0.6466   0.7698     C
O      0.69785  0.21952   0.1993     O
O      0.69785  0.21952   0.8007     O
O      0.69785  0.78048   0.1993     O
O      0.69785  0.78048   0.8007     O
O      0.70407  0.22763   0.3168     O
O      0.70407  0.22763   0.6832     O
O      0.70407  0.77237   0.3168     O
O      0.70407  0.77237   0.6832     O
C       0.7148   0.3143   0.2386     C
C       0.7148   0.3143   0.7614     C
C       0.7148   0.6857   0.2386     C
C       0.7148   0.6857   0.7614     C
O      0.71839  0.29761   0.1917     O
O      0.71839  0.29761   0.8083     O
O      0.71839  0.70239   0.1917     O
O      0.71839  0.70239   0.8083     O
O      0.72611  0.30299   0.3037     O
O      0.72611  0.30299   0.6963     O
O      0.72611  0.69701   0.3037     O
O      0.72611  0.69701   0.6963     O
Cu     0.74658  0.24542  0.18538    Cu
Cu     0.74658  0.24542  0.81462    Cu
Cu     0.74658  0.75458  0.18538    Cu
Cu     0.74658  0.75458  0.81462    Cu
Cu     0.75342  0.25458  0.31462    Cu
Cu     0.75342  0.25458  0.68538    Cu
Cu     0.75342  0.74542  0.31462    Cu
Cu     0.75342  0.74542  0.68538    Cu
O      0.77389  0.19701   0.1963     O
O      0.77389  0.19701   0.8037     O
O      0.77389  0.80299   0.1963     O
O      0.77389  0.80299   0.8037     O
O      0.78161  0.20239   0.3083     O
O      0.78161  0.20239   0.6917     O
O      0.78161  0.79761   0.3083     O
O      0.78161  0.79761   0.6917     O
C       0.7852   0.1857   0.2614     C
C       0.7852   0.1857   0.7386     C
C       0.7852   0.8143   0.2614     C
C       0.7852   0.8143   0.7386     C
O      0.79593  0.27237   0.1832     O
O      0.79593  0.27237   0.8168     O
O      0.79593  0.72763   0.1832     O
O      0.79593  0.72763   0.8168     O
O      0.80215  0.28048   0.3007     O
O      0.80215  0.28048   0.6993     O
O      0.80215  0.71952   0.3007     O
O      0.80215  0.71952   0.6993     O
C       0.8051   0.1466   0.2698     C
C       0.8051   0.1466   0.7302     C
C       0.8051   0.8534   0.2698     C
C       0.8051   0.8534   0.7302     C
H        0.806    0.027    0.226     H
H        0.806    0.027    0.774     H
H        0.806    0.973    0.226     H
H        0.806    0.973    0.774     H
H       0.8079   0.1319   0.1711     H
H       0.8079   0.1319   0.8289     H
H       0.8079   0.8681   0.1711     H
H       0.8079   0.8681   0.8289     H
N       0.8083      0.0    0.248     N
N       0.8083      0.0    0.752     N
H       0.8117   0.1516   0.3827     H
H       0.8117   0.1516   0.6173     H
H       0.8117   0.8484   0.3827     H
H       0.8117   0.8484   0.6173     H
C       0.8131   0.1243   0.2152     C
C       0.8131   0.1243   0.7848     C
C       0.8131   0.8757   0.2152     C
C       0.8131   0.8757   0.7848     C
C      0.81384  0.28434   0.2419     C
C      0.81384  0.28434   0.7581     C
C      0.81384  0.71566   0.2419     C
C      0.81384  0.71566   0.7581     C
C       0.8156   0.1354   0.3458     C
C       0.8156   0.1354   0.6542     C
C       0.8156   0.8646   0.3458     C
C       0.8156   0.8646   0.6542     C
C       0.8312   0.0864    0.234     C
C       0.8312   0.0864    0.766     C
C       0.8312   0.9136    0.234     C
C       0.8312   0.9136    0.766     C
C       0.8318   0.0965   0.3487     C
C       0.8318   0.0965   0.6513     C
C       0.8318   0.9035   0.3487     C
C       0.8318   0.9035   0.6513     C
H       0.8363   0.0695   0.1985     H
H       0.8363   0.0695   0.8015     H
H       0.8363   0.9305   0.1985     H
H       0.8363   0.9305   0.8015     H
H       0.8364   0.0865   0.3915     H
H       0.8364   0.0865   0.6085     H
H       0.8364   0.9135   0.3915     H
H       0.8364   0.9135   0.6085     H
C      0.84134   0.0727   0.2965     C
C      0.84134   0.0727   0.7035     C
C      0.84134   0.9273   0.2965     C
C      0.84134   0.9273   0.7035     C
C       0.8425      0.0   0.2903     C
C       0.8425      0.0   0.7097     C
H         0.85   0.3055   0.1201     H
H         0.85   0.3055   0.8799     H
H         0.85   0.6945   0.1201     H
H         0.85   0.6945   0.8799     H
C      0.85417  0.30511   0.2256     C
C      0.85417  0.30511   0.7744     C
C      0.85417  0.69489   0.2256     C
C      0.85417  0.69489   0.7744     C
C       0.8597  0.03552   0.3069     C
C       0.8597  0.03552   0.6931     C
C       0.8597  0.96448   0.3069     C
C       0.8597  0.96448   0.6931     C
C       0.8654   0.3124   0.1569     C
C       0.8654   0.3124   0.8431     C
C       0.8654   0.6876   0.1569     C
C       0.8654   0.6876   0.8431     C
H       0.8692   0.3108    0.324     H
H       0.8692   0.3108    0.676     H
H       0.8692   0.6892    0.324     H
H       0.8692   0.6892    0.676     H
C      0.87681   0.3149   0.2796     C
C      0.87681   0.3149   0.7204     C
C      0.87681   0.6851   0.2796     C
C      0.87681   0.6851   0.7204     C
C      0.89457  0.03578   0.3501     C
C      0.89457  0.03578   0.6499     C
C      0.89457  0.96422   0.3501     C
C      0.89457  0.96422   0.6499     C
C       0.9022   0.3312   0.1511     C
C       0.9022   0.3312   0.8489     C
C       0.9022   0.6688   0.1511     C
C       0.9022   0.6688   0.8489     C
H       0.9101   0.0578    0.353     H
H       0.9101   0.0578    0.647     H
H       0.9101   0.9422    0.353     H
H       0.9101   0.9422    0.647     H
H       0.9108   0.3373   0.1079     H
H       0.9108   0.3373   0.8921     H
H       0.9108   0.6627   0.1079     H
H       0.9108   0.6627   0.8921     H
C       0.9116      0.0   0.3686     C
C       0.9116      0.0   0.6314     C
C       0.9133   0.3318   0.2608     C
C       0.9133   0.3318   0.7392     C
C       0.9133   0.6682   0.2608     C
C       0.9133   0.6682   0.7392     C
C      0.92572  0.34107   0.2023     C
C      0.92572  0.34107   0.7977     C
C      0.92572  0.65893   0.2023     C
C      0.92572  0.65893   0.7977     C
H       0.9304   0.3369    0.296     H
H       0.9304   0.3369    0.704     H
H       0.9304   0.6631    0.296     H
H       0.9304   0.6631    0.704     H
H       0.9419   0.4047   0.1376     H
H       0.9419   0.4047   0.8624     H
H       0.9419   0.5953   0.1376     H
H       0.9419   0.5953   0.8624     H
C       0.9469      0.0   0.4094     C
C       0.9469      0.0   0.5906     C
O      0.95842  0.03299    0.434     O
O      0.95842  0.03299    0.566     O
O      0.95842  0.96701    0.434     O
O      0.95842  0.96701    0.566     O
Cu     0.96171      0.5      0.0    Cu
C      0.96409   0.3594   0.1903     C
C      0.96409   0.3594   0.8097     C
C      0.96409   0.6406   0.1903     C
C      0.96409   0.6406   0.8097     C
C      0.96535  0.39326    0.151     C
C      0.96535  0.39326    0.849     C
C      0.96535  0.60674    0.151     C
C      0.96535  0.60674    0.849     C
O      0.96688  0.45924   0.0677     O
O      0.96688  0.45924   0.9323     O
O      0.96688  0.54076   0.0677     O
O      0.96688  0.54076   0.9323     O
H        0.978    0.307    0.266     H
H        0.978    0.307    0.734     H
H        0.978    0.693    0.266     H
H        0.978    0.693    0.734     H
