data_I
_chemical_name_common  '/home/zhangsd/repos/MofS-CGCNN/ML/data/TSD/clean_cifs/ATUXUK_clean'
_cell_length_a 11.02520
_cell_length_b 12.60450
_cell_length_c 16.00800
_cell_angle_alpha 100.23700
_cell_angle_beta  106.07000
_cell_angle_gamma 95.72500
_space_group_name_H-M_alt      'P 1'


loop_
_space_group_symop_operation_xyz
  'x, y, z' 

loop_
_atom_site_label
_atom_site_fract_x
_atom_site_fract_y
_atom_site_fract_z
_atom_site_type_symbol
C       0.0206   0.9708   0.3403     C
C       0.0273   0.7643   0.1123     C
O        0.038   0.1225   0.4846     O
C       0.0419   0.8147    0.976     C
C       0.0574   0.0729   0.3092     C
O        0.058    0.492      0.0     O
Tb     0.05916   0.2404    0.628    Tb
C        0.061   0.2033   0.4495     C
H       0.0647   0.7412   0.1641     H
H       0.0653   0.9831   0.1924     H
C       0.0718    0.179   0.3569     C
C       0.0754   0.0541   0.2247     C
O       0.0788   0.2994   0.4919     O
C       0.0812   0.1618   0.0401     C
H       0.0877   0.8232   0.9361     H
O       0.0961    0.062   0.6708     O
C       0.0963   0.7781   0.0534     C
C       0.0978   0.2148   0.9065     C
C       0.1032   0.2659   0.3188     C
O       0.1059   0.9166   0.3707     O
C       0.1082   0.1413   0.1899     C
H       0.1121   0.3372   0.3502     H
C       0.1211   0.2475   0.2356     C
O       0.1219   0.6793   0.3293     O
O        0.127   0.2757   0.7813     O
O       0.1378   0.1155   0.1109     O
H       0.1415   0.3057   0.2109     H
O       0.1511   0.7444   0.4708     O
C       0.1522   0.1762   0.9834     C
C        0.177   0.2345   0.8462     C
C       0.1938   0.7068   0.4083     C
K       0.2183  0.97632  0.55479     K
C       0.2321   0.7569   0.0747     C
H       0.2352   0.1605   0.9958     H
K      0.26803  0.49064   0.9431     K
O        0.269   0.2238   0.6278     O
O       0.2781   0.7225   0.0128     O
O       0.2878   0.2111   0.8653     O
O       0.2993   0.7757   0.1548     O
H       0.3173    0.308   0.5078     H
C       0.3342   0.6984   0.4297     C
H       0.3495   0.6502   0.5463     H
H       0.3624   0.7453   0.3212     H
O       0.3869   0.5643    0.123     O
C       0.3871   0.2361   0.6576     C
C       0.3952   0.6672   0.5082     C
O       0.4035   0.4234   0.8296     O
C       0.4036   0.7266   0.3744     C
C       0.4049   0.3067   0.5239     C
O        0.412   0.3803      0.4     O
H       0.4396   0.1938   0.3067     H
C       0.4407   0.3567   0.3203     C
C       0.4463   0.2518   0.2787     C
O        0.447   0.2173   0.7309     O
H       0.4507   0.5133   0.3093     H
C       0.4532   0.4431   0.2802     C
C       0.4619   0.2351   0.1954     C
H       0.4646   0.1647    0.167     H
C       0.4654   0.2732   0.6012     C
C       0.4698   0.4256   0.1953     C
C       0.4738   0.3209   0.1524     C
C       0.4766   0.3381   0.4715     C
C        0.486   0.2977   0.0602     C
C       0.4867   0.5269   0.1593     C
O       0.4869   0.3756   0.0188     O
O        0.493   0.2028   0.0238     O
Tb     0.49752   0.7409  0.11725    Tb
Tb     0.50248   0.2591  0.88275    Tb
O        0.507   0.7972   0.9762     O
O       0.5131   0.6244   0.9812     O
C       0.5133   0.4731   0.8407     C
C        0.514   0.7023   0.9398     C
C       0.5234   0.6619   0.5285     C
C       0.5262   0.6791   0.8476     C
C       0.5302   0.5744   0.8047     C
C       0.5346   0.7268   0.3988     C
H       0.5354   0.8353    0.833     H
C       0.5381   0.7649   0.8046     C
C       0.5468   0.5569   0.7198     C
H       0.5493   0.4867   0.6907     H
O        0.553   0.7827   0.2691     O
C       0.5537   0.7482   0.7213     C
C       0.5593   0.6433   0.6797     C
H       0.5604   0.8062   0.6933     H
O        0.588   0.6197      0.6     O
C       0.5951   0.6933   0.4761     C
C       0.5964   0.2734   0.6256     C
O       0.5965   0.5766   0.1704     O
C       0.6048   0.3328   0.4918     C
C       0.6129   0.7639   0.3424     C
O       0.6131   0.4357    0.877     O
H       0.6376   0.2547   0.6788     H
H       0.6505   0.3498   0.4537     H
C       0.6658   0.3016   0.5703     C
H       0.6827    0.692   0.4922     H
O       0.7007   0.2243   0.8452     O
O       0.7122   0.7889   0.1347     O
O       0.7219   0.2775   0.9872     O
O        0.731   0.7762   0.3722     O
K      0.73197  0.50936   0.0569     K
H       0.7648   0.8395   0.0042     H
C       0.7679   0.2431   0.9253     C
K       0.7817  0.02368  0.44521     K
C       0.8062   0.2932   0.5917     C
C        0.823   0.7655   0.1538     C
C       0.8478   0.8238   0.0166     C
O       0.8489   0.2556   0.5292     O
H       0.8585   0.6943   0.7891     H
O       0.8622   0.8845   0.8891     O
O        0.873   0.7243   0.2187     O
O       0.8781   0.3207   0.6707     O
C       0.8789   0.7525   0.7644     C
H       0.8879   0.6628   0.6498     H
C       0.8918   0.8587   0.8101     C
O       0.8941   0.0834   0.6293     O
C       0.8968   0.7341   0.6812     C
C       0.9022   0.7852   0.0935     C
C       0.9037   0.2219   0.9466     C
O       0.9039    0.938   0.3292     O
H       0.9123   0.1768   0.0639     H
C       0.9188   0.8382   0.9599     C
O       0.9212   0.7006   0.5081     O
C       0.9246   0.9459   0.7753     C
C       0.9282    0.821   0.6431     C
H       0.9347   0.0169   0.8076     H
H       0.9353   0.2588   0.8359     H
C        0.939   0.7967   0.5505     C
Tb     0.94084   0.7596    0.372    Tb
O        0.942    0.508      0.0     O
C       0.9426   0.9271   0.6908     C
C       0.9581   0.1853    0.024     C
O        0.962   0.8775   0.5154     O
C       0.9727   0.2357   0.8877     C
C       0.9794   0.0292   0.6597     C
