data_I
_chemical_name_common  '/home/zhangsd/repos/MofS-CGCNN/ML/data/TSD/clean_cifs/ATUYAR_clean'
_cell_length_a 11.00300
_cell_length_b 12.48600
_cell_length_c 15.92500
_cell_angle_alpha 100.09100
_cell_angle_beta  106.02800
_cell_angle_gamma 95.76200
_space_group_name_H-M_alt      'P 1'


loop_
_space_group_symop_operation_xyz
  'x, y, z' 

loop_
_atom_site_label
_atom_site_fract_x
_atom_site_fract_y
_atom_site_fract_z
_atom_site_type_symbol
C       0.0218   0.9706   0.3407     C
C       0.0255   0.7643   0.1121     C
O       0.0378   0.1223   0.4846     O
C       0.0414   0.8159   0.9751     C
C       0.0567   0.0743   0.3098     C
Gd     0.05985   0.2412  0.62837    Gd
C       0.0608   0.2016   0.4488     C
H       0.0631   0.7412   0.1644     H
H       0.0686   0.9833   0.1924     H
C       0.0716   0.1795   0.3568     C
C       0.0772   0.0551   0.2241     C
O       0.0804   0.2997   0.4918     O
C       0.0815   0.1597   0.0406     C
H       0.0881   0.8251   0.9356     H
C       0.0933    0.777   0.0521     C
O       0.0956   0.0613   0.6717     O
C       0.0995   0.2136    0.907     C
C       0.1048   0.2663   0.3198     C
O       0.1063   0.9165   0.3716     O
C       0.1079    0.138   0.1897     C
H       0.1154   0.3383   0.3516     H
O        0.122   0.6788     0.33     O
C       0.1224   0.2473   0.2362     C
O       0.1297   0.2787   0.7826     O
O       0.1385   0.1138   0.1116     O
H       0.1433   0.3057   0.2111     H
O        0.151   0.7433    0.471     O
C       0.1529   0.1747   0.9835     C
C       0.1786   0.2345    0.847     C
C        0.195   0.7052   0.4089     C
K       0.2183   0.9758  0.55514     K
C       0.2299   0.7581    0.074     C
H       0.2361   0.1589    0.996     H
K       0.2688   0.4904  0.94218     K
O       0.2707   0.2232    0.627     O
O       0.2765   0.7231   0.0123     O
O       0.2881    0.209   0.8651     O
O        0.298   0.7766   0.1542     O
H       0.3191   0.3097   0.5092     H
C        0.335   0.6992   0.4308     C
H       0.3462   0.6428   0.5437     H
H       0.3627   0.7478   0.3226     H
O       0.3858   0.5642   0.1233     O
C        0.386   0.2341   0.6559     C
C       0.3934   0.6644   0.5075     C
C       0.4038   0.7277   0.3756     C
O       0.4051   0.4236   0.8297     O
C       0.4066   0.3073   0.5246     C
O       0.4112   0.3788   0.3994     O
H       0.4382   0.1914   0.3068     H
C       0.4412   0.3577    0.321     C
C       0.4455   0.2499   0.2787     C
O        0.447   0.2142   0.7298     O
H       0.4511   0.5152    0.309     H
C       0.4528    0.444   0.2804     C
C       0.4611   0.2331   0.1942     C
H        0.462   0.1622   0.1645     H
C       0.4662   0.2736   0.6008     C
C       0.4676   0.4232   0.1945     C
C       0.4754   0.3214   0.1534     C
C       0.4768   0.3377   0.4707     C
C       0.4856   0.5263   0.1596     C
O       0.4881   0.3754   0.0195     O
C       0.4889   0.2988   0.0615     C
O       0.4951   0.2029   0.0246     O
Gd     0.49636  0.74142  0.11713    Gd
Gd     0.50364  0.25858  0.88287    Gd
O       0.5049   0.7971   0.9754     O
C       0.5111   0.7012   0.9385     C
O       0.5119   0.6246   0.9805     O
C       0.5144   0.4737   0.8404     C
C       0.5232   0.6623   0.5293     C
C       0.5246   0.6786   0.8466     C
C       0.5324   0.5768   0.8055     C
C       0.5338   0.7264   0.3992     C
H        0.538   0.8378   0.8355     H
C       0.5389   0.7669   0.8058     C
C       0.5472    0.556   0.7196     C
H       0.5489   0.4848    0.691     H
O        0.553   0.7858   0.2702     O
C       0.5545   0.7501   0.7213     C
C       0.5588   0.6423    0.679     C
H       0.5618   0.8086   0.6932     H
O       0.5888   0.6212   0.6006     O
C       0.5934   0.6927   0.4754     C
O       0.5949   0.5764   0.1703     O
C       0.5962   0.2723   0.6244     C
C       0.6066   0.3356   0.4925     C
C        0.614   0.7659   0.3441     C
O       0.6142   0.4358   0.8767     O
H       0.6373   0.2522   0.6774     H
H       0.6538   0.3572   0.4563     H
C        0.665   0.3008   0.5692     C
H       0.6809   0.6903   0.4908     H
O        0.702   0.2234   0.8458     O
O       0.7119    0.791   0.1349     O
O       0.7235   0.2769   0.9877     O
O       0.7293   0.7768    0.373     O
K       0.7312   0.5096  0.05782     K
H       0.7639   0.8411    0.004     H
C       0.7701   0.2419    0.926     C
K       0.7817   0.0242  0.44486     K
C        0.805   0.2948   0.5911     C
C       0.8214   0.7655    0.153     C
C       0.8471   0.8253   0.0165     C
O        0.849   0.2567    0.529     O
H       0.8567   0.6943   0.7889     H
O       0.8615   0.8862   0.8884     O
O       0.8703   0.7213   0.2174     O
C       0.8776   0.7527   0.7638     C
O        0.878   0.3212     0.67     O
H       0.8846   0.6617   0.6484     H
C       0.8921    0.862   0.8103     C
O       0.8937   0.0835   0.6284     O
C       0.8952   0.7337   0.6802     C
C       0.9005   0.7864    0.093     C
O       0.9044   0.9387   0.3283     O
C       0.9067    0.223   0.9479     C
H       0.9119   0.1749   0.0644     H
C       0.9185   0.8403   0.9594     C
O       0.9196   0.7003   0.5082     O
C       0.9228   0.9449   0.7759     C
C       0.9284   0.8205   0.6432     C
H       0.9314   0.0167   0.8076     H
H       0.9369   0.2588   0.8356     H
C       0.9392   0.7984   0.5512     C
Gd     0.94015   0.7588  0.37163    Gd
C       0.9433   0.9257   0.6902     C
C       0.9586   0.1841   0.0249     C
O       0.9622   0.8777   0.5154     O
C       0.9745   0.2357   0.8879     C
C       0.9782   0.0294   0.6593     C
