data_I
_chemical_name_common  '/home/zhangsd/repos/MofS-CGCNN/ML/data/TSD/clean_cifs/AVEQID_clean'
_cell_length_a 12.49570
_cell_length_b 15.31630
_cell_length_c 24.25400
_cell_angle_alpha 90.00000
_cell_angle_beta  102.30400
_cell_angle_gamma 90.00000
_space_group_name_H-M_alt      'P 1'


loop_
_space_group_symop_operation_xyz
  'x, y, z' 

loop_
_atom_site_label
_atom_site_fract_x
_atom_site_fract_y
_atom_site_fract_z
_atom_site_type_symbol
C      0.00032  0.03996  0.51725     C
C      0.00032  0.46004  0.01725     C
C       0.0016   0.1924  0.58502     C
C       0.0016   0.3076  0.08502     C
N       0.0043  0.23393   0.1178     N
N       0.0043  0.26607   0.6178     N
H       0.0494   0.6977   0.3888     H
H       0.0494   0.8023   0.8888     H
H       0.0598   0.2242   0.1449     H
H       0.0598   0.2758   0.6449     H
C      0.08682  0.60032  0.99237     C
C      0.08682  0.89968  0.49237     C
C      0.08692  0.05937  0.56228     C
C      0.08692  0.44063  0.06228     C
C      0.08765  0.67413  0.95968     C
C      0.08765  0.82587  0.45968     C
C      0.09056  0.13272  0.59489     C
C      0.09056  0.36728  0.09489     C
H       0.1452   0.0204   0.5706     H
H       0.1452   0.4796   0.0706     H
H       0.1463     0.59    0.022     H
H       0.1463     0.91    0.522     H
C      0.18299  0.73629  0.97138     C
C      0.18299  0.76371  0.47138     C
H       0.1857   0.7432    0.554     H
H       0.1857   0.7568    0.054     H
C      0.18947  0.14869  0.64096     C
C      0.18947  0.35131  0.14096     C
H        0.192   0.0289   0.6755     H
H        0.192   0.4711   0.1755     H
C       0.2179  0.72622  0.52448     C
H       0.2179   0.7315   0.8938     H
H       0.2179   0.7685   0.3938     H
C       0.2179  0.77378  0.02448     C
H       0.2216   0.2295   0.1194     H
H       0.2216   0.2705   0.6194     H
C       0.2285  0.08222  0.67842     C
C       0.2285  0.41778  0.17842     C
C       0.2372  0.74115  0.42879     C
C       0.2372  0.75885  0.92879     C
C        0.246  0.22611  0.64511     C
C        0.246  0.27389  0.14511     C
C       0.3009  0.66338  0.53392     C
C       0.3009  0.83662  0.03392     C
O       0.3147  0.54711  0.25678     O
O       0.3147  0.95289  0.75678     O
O       0.3172  0.65324  0.63388     O
O       0.3172  0.84676  0.13388     O
C       0.3193  0.67875  0.43764     C
C       0.3193  0.82125  0.93764     C
C      0.32272  0.09475  0.72071     C
C      0.32272  0.40525  0.22071     C
C       0.3372  0.61977  0.59084     C
C       0.3372  0.88023  0.09084     C
C       0.3399  0.23921   0.6875     C
C       0.3399  0.26079   0.1875     C
Zn     0.34189  0.67874  0.26134    Zn
Zn     0.34189  0.82126  0.76134    Zn
C       0.3491  0.63875  0.49009     C
C       0.3491  0.86125  0.99009     C
O       0.3557  0.69544  0.34716     O
O       0.3557  0.80456  0.84716     O
C        0.366   0.0223  0.76012     C
C        0.366   0.4777  0.26012     C
O      0.37003  0.12233   0.1515     O
O      0.37003  0.37767   0.6515     O
C       0.3717   0.6513   0.3905     C
C       0.3717   0.8487   0.8905     C
C       0.3762  0.17345  0.72529     C
C       0.3762  0.32655  0.22529     C
O      0.38909  0.54908  0.58884     O
O      0.38909  0.95092  0.08884     O
H       0.4019    0.595   0.4957     H
H       0.4019    0.905   0.9957     H
C       0.4045  0.17772  0.18945     C
C       0.4045  0.32228  0.68945     C
O      0.42975  0.58237  0.39928     O
O      0.42975  0.91763  0.89928     O
H       0.4374   0.1823   0.7541     H
H       0.4374   0.3177   0.2541     H
O      0.45556  0.03859  0.79452     O
O      0.45556  0.46141  0.29452     O
Zn     0.47108  0.03079  0.14365    Zn
Zn     0.47108  0.46921  0.64365    Zn
O      0.48737  0.16775   0.2282     O
O      0.48737  0.33225   0.7282     O
O      0.51263  0.66775   0.2718     O
O      0.51263  0.83225   0.7718     O
Zn     0.52892  0.53079  0.35635    Zn
Zn     0.52892  0.96921  0.85635    Zn
O      0.54444  0.53859  0.70548     O
O      0.54444  0.96141  0.20548     O
H       0.5626   0.6823   0.7459     H
H       0.5626   0.8177   0.2459     H
O      0.57025  0.08237  0.10072     O
O      0.57025  0.41763  0.60072     O
C       0.5955  0.67772  0.31055     C
C       0.5955  0.82228  0.81055     C
H       0.5981    0.095   0.0043     H
H       0.5981    0.405   0.5043     H
O      0.61091  0.04908  0.91116     O
O      0.61091  0.45092  0.41116     O
C       0.6238  0.67345  0.77471     C
C       0.6238  0.82655  0.27471     C
C       0.6283   0.1513   0.1095     C
C       0.6283   0.3487   0.6095     C
O      0.62997  0.62233   0.3485     O
O      0.62997  0.87767   0.8485     O
C        0.634   0.5223  0.73988     C
C        0.634   0.9777  0.23988     C
O       0.6443  0.19544  0.15284     O
O       0.6443  0.30456  0.65284     O
C       0.6509  0.13875  0.00991     C
C       0.6509  0.36125  0.50991     C
Zn     0.65811  0.17874  0.23866    Zn
Zn     0.65811  0.32126  0.73866    Zn
C       0.6601  0.73921   0.8125     C
C       0.6601  0.76079   0.3125     C
C       0.6628  0.11977  0.90916     C
C       0.6628  0.38023  0.40916     C
C      0.67728  0.59475  0.77929     C
C      0.67728  0.90525  0.27929     C
C       0.6807  0.17875  0.06236     C
C       0.6807  0.32125  0.56236     C
O       0.6828  0.15324  0.86612     O
O       0.6828  0.34676  0.36612     O
O       0.6853  0.04711  0.24322     O
O       0.6853  0.45289  0.74322     O
C       0.6991  0.16338  0.96608     C
C       0.6991  0.33662  0.46608     C
C        0.754  0.72611  0.85489     C
C        0.754  0.77389  0.35489     C
C       0.7628  0.24115  0.07121     C
C       0.7628  0.25885  0.57121     C
C       0.7715  0.58222  0.82158     C
C       0.7715  0.91778  0.32158     C
H       0.7784   0.7295   0.3806     H
H       0.7784   0.7705   0.8806     H
C       0.7821  0.22622  0.97552     C
H       0.7821   0.2315   0.6062     H
H       0.7821   0.2685   0.1062     H
C       0.7821  0.27378  0.47552     C
H        0.808   0.5289   0.8245     H
H        0.808   0.9711   0.3245     H
C      0.81053  0.64869  0.85904     C
C      0.81053  0.85131  0.35904     C
H       0.8143   0.2432    0.946     H
H       0.8143   0.2568    0.446     H
C      0.81701  0.23629  0.52862     C
C      0.81701  0.26371  0.02862     C
H       0.8537     0.09    0.478     H
H       0.8537     0.41    0.978     H
H       0.8548   0.5204   0.9294     H
H       0.8548   0.9796   0.4294     H
C      0.90944  0.63272  0.90511     C
C      0.90944  0.86728  0.40511     C
C      0.91235  0.17413  0.54032     C
C      0.91235  0.32587  0.04032     C
C      0.91308  0.55937  0.93772     C
C      0.91308  0.94063  0.43772     C
C      0.91318  0.10032  0.50763     C
C      0.91318  0.39968  0.00763     C
H       0.9402   0.7242   0.3551     H
H       0.9402   0.7758   0.8551     H
H       0.9506   0.1977   0.1112     H
H       0.9506   0.3023   0.6112     H
N       0.9957  0.73393   0.3822     N
N       0.9957  0.76607   0.8822     N
C       0.9984   0.6924  0.91498     C
C       0.9984   0.8076  0.41498     C
C      0.99968  0.53996  0.98275     C
C      0.99968  0.96004  0.48275     C
