data_I
_chemical_name_common  '/home/zhangsd/repos/MofS-CGCNN/ML/data/TSD/clean_cifs/AWAREV_clean'
_cell_length_a 18.50590
_cell_length_b 18.50590
_cell_length_c  9.91680
_cell_angle_alpha 90.00000
_cell_angle_beta  90.00000
_cell_angle_gamma 120.00000
_space_group_name_H-M_alt      'P 1'


loop_
_space_group_symop_operation_xyz
  'x, y, z' 

loop_
_atom_site_label
_atom_site_fract_x
_atom_site_fract_y
_atom_site_fract_z
_atom_site_type_symbol
F          0.0  0.25444     0.25     F
Zn         0.0  0.37554     0.75    Zn
N          0.0  0.48353     0.75     N
N          0.0  0.51647     0.25     N
Zn         0.0  0.62446     0.25    Zn
F          0.0  0.74556     0.75     F
N      0.02572   0.4157  0.19329     N
N      0.02572  0.61001  0.69329     N
C      0.03918  0.49091  0.16418     C
C      0.03918  0.54826  0.66418     C
Zn      0.0422  0.33333  0.08333    Zn
Zn      0.0422  0.70887  0.58333    Zn
N      0.05665  0.30762  0.52663     N
N      0.05665  0.74904  0.02663     N
H      0.06943  0.20737  0.35647     H
H      0.06943  0.86207  0.85647     H
H      0.07167  0.52263  0.09203     H
H      0.07167  0.54903  0.59203     H
H      0.07393  0.23147  0.88727     H
H      0.07393  0.84247  0.38727     H
F      0.07889  0.41223  0.91667     F
F      0.07889  0.66667  0.41667     F
N      0.08237  0.35905  0.64004     N
N      0.08237  0.72332  0.14004     N
N      0.09637  0.54433  0.06813     N
N      0.09637  0.55203  0.56813     N
H      0.10187  0.50913  0.55393     H
H      0.10187  0.59273  0.05393     H
N      0.11463  0.23697  0.40147     N
N      0.11463  0.87767  0.90147     N
H      0.11763  0.26167  0.42537     H
H      0.11763  0.85597  0.92537     H
C       0.1184  0.29416  0.49752     C
C       0.1184  0.82425  0.99752     C
N      0.12233  0.23697  0.90147     N
N      0.12233  0.88537  0.40147     N
H      0.12597  0.52873  0.02313     H
H      0.12597  0.59723  0.52313     H
H      0.13793  0.20737  0.85647     H
H      0.13793  0.93057  0.35647     H
H      0.14403  0.26167  0.92537     H
H      0.14403  0.88237  0.42537     H
N       0.1502  0.33333  0.08333     N
N       0.1502  0.81686  0.58333     N
H      0.15753  0.23147  0.38727     H
H      0.15753  0.92607  0.88727     H
C      0.15758  0.37251  0.66915     C
C      0.15758  0.78507  0.16915     C
C      0.17575  0.29416  0.99752     C
C      0.17575   0.8816  0.49752     C
H       0.1758   0.4352   0.2794     H
H       0.1758   0.7406   0.7794     H
N      0.18314  0.33333  0.58333     N
N      0.18314   0.8498  0.08333     N
H       0.1893    0.405   0.7413     H
H       0.1893   0.7843   0.2413     H
H       0.1954   0.4593   0.8102     H
H       0.1954   0.7361   0.3102     H
H      0.20737  0.06943  0.14353     H
H      0.20737  0.13793  0.64353     H
N        0.211   0.4297   0.7652     N
N        0.211   0.7813   0.2652     N
C      0.21493  0.37251  0.16915     C
C      0.21493  0.84242  0.66915     C
H       0.2157    0.405   0.2413     H
H       0.2157   0.8107   0.7413     H
N       0.2187   0.4297   0.2652     N
N       0.2187    0.789   0.7652     N
H      0.23147  0.07393  0.61273     H
H      0.23147  0.15753  0.11273     H
N      0.23697  0.11463  0.09853     N
N      0.23697  0.12233  0.59853     N
N      0.25096  0.30762  0.02663     N
N      0.25096  0.94335  0.52663     N
F      0.25444      0.0     0.25     F
F      0.25444  0.25444     0.75     F
H       0.2594   0.4352   0.7794     H
H       0.2594   0.8242   0.2794     H
H      0.26167  0.11763  0.07463     H
H      0.26167  0.14403  0.57463     H
H       0.2639   0.4593   0.3102     H
H       0.2639   0.8046   0.8102     H
N      0.27668  0.35905  0.14004     N
N      0.27668  0.91763  0.64004     N
Zn     0.29113  0.33333  0.58333    Zn
Zn     0.29113   0.9578  0.08333    Zn
C      0.29416   0.1184  0.00248     C
C      0.29416  0.17575  0.50248     C
N      0.30762  0.05665  0.97337     N
N      0.30762  0.25096  0.47337     N
Zn     0.33333   0.0422  0.41667    Zn
N      0.33333   0.1502  0.41667     N
N      0.33333  0.18314  0.91667     N
Zn     0.33333  0.29113  0.91667    Zn
F      0.33333  0.41223  0.41667     F
F      0.33333  0.92111  0.91667     F
N      0.35905  0.08237  0.85996     N
N      0.35905  0.27668  0.35996     N
C      0.37251  0.15758  0.83085     C
C      0.37251  0.21493  0.33085     C
Zn     0.37554      0.0     0.75    Zn
Zn     0.37554  0.37554     0.25    Zn
N      0.38999   0.4157  0.69329     N
N      0.38999  0.97428  0.19329     N
H      0.40277  0.52873  0.52313     H
H      0.40277  0.87403  0.02313     H
H        0.405   0.1893   0.7587     H
H        0.405   0.2157   0.2587     H
H      0.40727  0.50913  0.05393     H
H      0.40727  0.89813  0.55393     H
F      0.41223  0.07889  0.58333     F
F      0.41223  0.33333  0.08333     F
N       0.4157  0.02572  0.30671     N
N       0.4157  0.38999  0.80671     N
N       0.4297    0.211   0.7348     N
N       0.4297   0.2187   0.2348     N
H       0.4352   0.1758   0.2206     H
H       0.4352   0.2594   0.7206     H
N      0.44797  0.54433  0.56813     N
N      0.44797  0.90363  0.06813     N
H      0.45097  0.52263  0.59203     H
H      0.45097  0.92833  0.09203     H
C      0.45174  0.49091  0.66418     C
C      0.45174  0.96082  0.16418     C
N      0.45567  0.55203  0.06813     N
N      0.45567  0.90363  0.56813     N
H       0.4593   0.1954   0.6898     H
H       0.4593   0.2639   0.1898     H
H      0.47127  0.59723  0.02313     H
H      0.47127  0.87403  0.52313     H
H      0.47737  0.54903  0.09203     H
H      0.47737  0.92833  0.59203     H
N      0.48353      0.0     0.75     N
N      0.48353  0.48353     0.25     N
H      0.49087  0.59273  0.55393     H
H      0.49087  0.89813  0.05393     H
C      0.49091  0.03918  0.33582     C
C      0.49091  0.45174  0.83582     C
C      0.50909  0.54826  0.16418     C
C      0.50909  0.96082  0.66418     C
H      0.50913  0.10187  0.94607     H
H      0.50913  0.40727  0.44607     H
N      0.51647      0.0     0.25     N
N      0.51647  0.51647     0.75     N
H      0.52263  0.07167  0.40797     H
H      0.52263  0.45097  0.90797     H
H      0.52873  0.12597  0.47687     H
H      0.52873  0.40277  0.97687     H
H       0.5407   0.7361   0.8102     H
H       0.5407   0.8046   0.3102     H
N      0.54433  0.09637  0.43187     N
N      0.54433  0.44797  0.93187     N
C      0.54826  0.03918  0.83582     C
C      0.54826  0.50909  0.33582     C
H      0.54903  0.07167  0.90797     H
H      0.54903  0.47737  0.40797     H
N      0.55203  0.09637  0.93187     N
N      0.55203  0.45567  0.43187     N
H       0.5648   0.7406   0.2794     H
H       0.5648   0.8242   0.7794     H
N       0.5703   0.7813   0.7652     N
N       0.5703    0.789   0.2652     N
N       0.5843  0.61001  0.19329     N
N       0.5843  0.97428  0.69329     N
F      0.58777  0.66667  0.91667     F
F      0.58777  0.92111  0.41667     F
H      0.59273  0.10187  0.44607     H
H      0.59273  0.49087  0.94607     H
H        0.595   0.7843   0.7413     H
H        0.595   0.8107   0.2413     H
H      0.59723  0.12597  0.97687     H
H      0.59723  0.47127  0.47687     H
N      0.61001  0.02572  0.80671     N
N      0.61001   0.5843  0.30671     N
Zn     0.62446      0.0     0.25    Zn
Zn     0.62446  0.62446     0.75    Zn
C      0.62749  0.78507  0.66915     C
C      0.62749  0.84242  0.16915     C
N      0.64095  0.72332  0.64004     N
N      0.64095  0.91763  0.14004     N
F      0.66667  0.07889  0.08333     F
F      0.66667  0.58777  0.58333     F
Zn     0.66667  0.70887  0.08333    Zn
N      0.66667  0.81686  0.08333     N
N      0.66667   0.8498  0.58333     N
Zn     0.66667   0.9578  0.58333    Zn
N      0.69238  0.74904  0.52663     N
N      0.69238  0.94335  0.02663     N
C      0.70584  0.82425  0.49752     C
C      0.70584   0.8816  0.99752     C
Zn     0.70887   0.0422  0.91667    Zn
Zn     0.70887  0.66667  0.41667    Zn
N      0.72332  0.08237  0.35996     N
N      0.72332  0.64095  0.85996     N
H       0.7361   0.1954   0.1898     H
H       0.7361   0.5407   0.6898     H
H      0.73833  0.85597  0.42537     H
H      0.73833  0.88237  0.92537     H
H       0.7406   0.1758   0.7206     H
H       0.7406   0.5648   0.2206     H
F      0.74556      0.0     0.75     F
F      0.74556  0.74556     0.25     F
N      0.74904  0.05665  0.47337     N
N      0.74904  0.69238  0.97337     N
N      0.76303  0.87767  0.40147     N
N      0.76303  0.88537  0.90147     N
H      0.76853  0.84247  0.88727     H
H      0.76853  0.92607  0.38727     H
N       0.7813    0.211   0.2348     N
N       0.7813   0.5703   0.7348     N
H       0.7843   0.1893   0.2587     H
H       0.7843    0.595   0.7587     H
C      0.78507  0.15758  0.33085     C
C      0.78507  0.62749  0.83085     C
N        0.789   0.2187   0.7348     N
N        0.789   0.5703   0.2348     N
H      0.79263  0.86207  0.35647     H
H      0.79263  0.93057  0.85647     H
H       0.8046   0.2639   0.6898     H
H       0.8046   0.5407   0.1898     H
H       0.8107   0.2157   0.7587     H
H       0.8107    0.595   0.2587     H
N      0.81686   0.1502  0.91667     N
N      0.81686  0.66667  0.41667     N
H       0.8242   0.2594   0.2206     H
H       0.8242   0.5648   0.7206     H
C      0.82425   0.1184  0.50248     C
C      0.82425  0.70584  0.00248     C
C      0.84242  0.21493  0.83085     C
C      0.84242  0.62749  0.33085     C
H      0.84247  0.07393  0.11273     H
H      0.84247  0.76853  0.61273     H
N       0.8498  0.18314  0.41667     N
N       0.8498  0.66667  0.91667     N
H      0.85597  0.11763  0.57463     H
H      0.85597  0.73833  0.07463     H
H      0.86207  0.06943  0.64353     H
H      0.86207  0.79263  0.14353     H
H      0.87403  0.40277  0.47687     H
H      0.87403  0.47127  0.97687     H
N      0.87767  0.11463  0.59853     N
N      0.87767  0.76303  0.09853     N
C       0.8816  0.17575  0.00248     C
C       0.8816  0.70584  0.50248     C
H      0.88237  0.14403  0.07463     H
H      0.88237  0.73833  0.57463     H
N      0.88537  0.12233  0.09853     N
N      0.88537  0.76303  0.59853     N
H      0.89813  0.40727  0.94607     H
H      0.89813  0.49087  0.44607     H
N      0.90363  0.44797  0.43187     N
N      0.90363  0.45567  0.93187     N
N      0.91763  0.27668  0.85996     N
N      0.91763  0.64095  0.35996     N
F      0.92111  0.33333  0.58333     F
F      0.92111  0.58777  0.08333     F
H      0.92607  0.15753  0.61273     H
H      0.92607  0.76853  0.11273     H
H      0.92833  0.45097  0.40797     H
H      0.92833  0.47737  0.90797     H
H      0.93057  0.13793  0.14353     H
H      0.93057  0.79263  0.64353     H
N      0.94335  0.25096  0.97337     N
N      0.94335  0.69238  0.47337     N
Zn      0.9578  0.29113  0.41667    Zn
Zn      0.9578  0.66667  0.91667    Zn
C      0.96082  0.45174  0.33582     C
C      0.96082  0.50909  0.83582     C
N      0.97428  0.38999  0.30671     N
N      0.97428   0.5843  0.80671     N
