data_I
_chemical_name_common  '/home/zhangsd/repos/MofS-CGCNN/ML/data/TSD/clean_cifs/AWEJIW_clean'
_cell_length_a  7.14220
_cell_length_b 21.21100
_cell_length_c 22.18100
_cell_angle_alpha 62.41200
_cell_angle_beta  81.39200
_cell_angle_gamma 89.53800
_space_group_name_H-M_alt      'P 1'


loop_
_space_group_symop_operation_xyz
  'x, y, z' 

loop_
_atom_site_label
_atom_site_fract_x
_atom_site_fract_y
_atom_site_fract_z
_atom_site_type_symbol
H        0.001   0.1945   0.2843     H
H       0.0015    0.327    0.805     H
O       0.0039   0.2125   0.5227     O
C       0.0073   0.9064   0.8238     C
H       0.0125   0.4608   0.4121     H
C       0.0139   0.1941   0.9031     C
C        0.025   0.1586   0.5175     C
H       0.0273   0.0191   0.5522     H
C       0.0381   0.3584   0.5802     C
C        0.039   0.1061   0.2294     C
O        0.053   0.1337   0.9488     O
O       0.0672   0.7456   0.6399     O
C       0.0722   0.4098   0.5994     C
H       0.0856   0.6596   0.4134     H
C       0.0877   0.5666    0.366     C
C       0.0957   0.9692   0.4386     C
C       0.1034   0.8386    0.697     C
H       0.1064   0.0911   0.0889     H
C       0.1064   0.4948   0.3801     C
C       0.1146    0.889   0.7189     C
C       0.1272   0.3156   0.8071     C
C       0.1311   0.8998   0.4514     C
H       0.1331   0.9156   0.8254     H
C       0.1361   0.0951   0.1265     C
O       0.1364   0.3579   0.3853     O
O       0.1537   0.7973   0.1047     O
H       0.1622   0.2978   0.5397     H
Cd     0.16505   0.6905  0.56925    Cd
C       0.1688   0.2454   0.8551     C
O       0.1691   0.1544   0.4798     O
C       0.1861   0.3334   0.5514     C
H       0.2128   0.6661    0.305     H
H       0.2216   0.0659   0.4059     H
C       0.2227    0.781    0.625     C
C       0.2262   0.6183   0.3172     C
C       0.2286   0.1188   0.2319     C
H       0.2399   0.4116   0.7357     H
C       0.2433   0.8351   0.6476     C
C       0.2447   0.0202   0.4123     C
C       0.2568   0.4716    0.349     C
Cd     0.25874  0.90729  0.01583    Cd
C       0.2597   0.4396   0.5855     C
H       0.2616   0.1283    0.266     H
C       0.2683   0.9379   0.6899     C
C        0.269   0.3656   0.7645     C
C       0.2771   0.3984   0.3679     C
H       0.2784   0.9718   0.7051     H
H       0.2841   0.4759   0.5962     H
O       0.3064   0.6365   0.5067     O
C       0.3106   0.8833   0.4332     C
C       0.3209   0.1025   0.1318     C
H       0.3323   0.8376   0.4393     H
Cd     0.33641   0.2534  0.43035    Cd
O       0.3552   0.7716   0.5885     O
O       0.3579   0.8813   0.9242     O
C       0.3612   0.2282   0.8546     C
H        0.366   0.7304   0.1902     H
C       0.3702   0.1167   0.1801     C
C        0.372   0.3617   0.5397     C
C       0.3862    0.598   0.2865     C
H       0.3912   0.1826   0.8842     H
C       0.3934   0.8872   0.6187     C
C       0.3995   0.5255   0.3031     C
C       0.4064   0.4149   0.5562     C
C       0.4103   0.9392   0.6386     C
H       0.4199    0.076   0.6054     H
C       0.4324    0.005   0.3946     C
O       0.4328   0.0808   0.0338     O
O       0.4387   0.3737   0.3706     O
C       0.4587   0.9357   0.4059     C
C       0.4619    0.348   0.7636     C
H       0.4703   0.5656   0.4525     H
C       0.4714   0.6672   0.4902     C
C       0.4736   0.1024   0.0764     C
H        0.486   0.8869   0.5846     H
O       0.4923   0.2823   0.4982     O
C       0.4923   0.7195   0.1909     C
H       0.4934   0.4875   0.7168     H
H       0.4977   0.1253   0.1802     H
H       0.5023   0.8747   0.8198     H
H       0.5066   0.5125   0.2832     H
C       0.5077   0.2805   0.8091     C
O       0.5077   0.7177   0.5018     O
H        0.514   0.1131   0.4154     H
C       0.5264   0.8976   0.9236     C
C       0.5286   0.3328   0.5098     C
H       0.5297   0.4344   0.5475     H
C       0.5381    0.652   0.2364     C
C       0.5413   0.0643   0.5941     C
O       0.5613   0.6263   0.6294     O
O       0.5672   0.9192   0.9662     O
C       0.5676    0.995   0.6054     C
H       0.5801    0.924   0.3946     H
C       0.5897   0.0608   0.3614     C
C       0.5936   0.5851   0.4438     C
C       0.6005   0.4745   0.6969     C
C       0.6066   0.1128   0.3813     C
H       0.6088   0.8174   0.1158     H
C       0.6138    0.402   0.7135     C
C        0.628   0.6383   0.4603     C
C       0.6298   0.8833   0.8199     C
H        0.634   0.2696   0.8098     H
C       0.6388   0.7718   0.1454     C
O       0.6421   0.1187   0.0758     O
O       0.6448   0.2284   0.4115     O
Cd     0.66359   0.7466  0.56965    Cd
H       0.6677   0.1624   0.5607     H
C       0.6791   0.8975   0.8682     C
C       0.6894   0.1167   0.5668     C
O       0.6936   0.3635   0.4933     O
H       0.7159   0.5241   0.4038     H
H       0.7216   0.0282   0.2949     H
C       0.7229   0.6016   0.6321     C
C        0.731   0.6344   0.2355     C
C       0.7317   0.0621   0.3101     C
H       0.7384   0.8717    0.734     H
C       0.7403   0.5604   0.4145     C
Cd     0.74126  0.09271  0.98417    Cd
C       0.7432   0.5284    0.651     C
C       0.7553   0.9798   0.5877     C
C       0.7567   0.1649   0.3524     C
H       0.7601   0.5884   0.2643     H
C       0.7714   0.8812   0.7681     C
C       0.7738   0.3817   0.6828     C
C       0.7773    0.219    0.375     C
H       0.7784   0.9341   0.5941     H
H       0.7872   0.3339    0.695     H
C       0.8139   0.6666   0.4486     C
O       0.8309   0.8456   0.5202     O
C       0.8312   0.7546   0.1449     C
Cd     0.83495   0.3095  0.43075    Cd
H       0.8378   0.7022   0.4603     H
O       0.8463   0.2027   0.8953     O
O       0.8636   0.6421   0.6147     O
C       0.8639   0.9049   0.8735     C
H       0.8669   0.0844   0.1746     H
C       0.8689   0.1002   0.5486     C
C       0.8728   0.6844   0.1929     C
C       0.8854    0.111   0.2811     C
C       0.8936   0.5052   0.6199     C
H       0.8936   0.9089   0.9111     H
C       0.8966   0.1614    0.303     C
C       0.9043   0.0308   0.5614     C
C       0.9123   0.4334    0.634     C
H       0.9144   0.3404   0.5866     H
C       0.9278   0.5902   0.4006     C
O       0.9328   0.2544   0.3601     O
O        0.947   0.8663   0.0512     O
C        0.961   0.8939   0.7706     C
C       0.9619   0.6416   0.4198     C
H       0.9727   0.9809   0.4478     H
C        0.975   0.8414   0.4825     C
C       0.9861   0.8059   0.0969     C
H       0.9875   0.5392   0.5879     H
C       0.9927   0.0936   0.1762     C
O       0.9961   0.7875   0.4773     O
H       0.9985    0.673    0.195     H
H        0.999   0.8055   0.7157     H
