data_I
_chemical_name_common  '/home/zhangsd/repos/MofS-CGCNN/ML/data/TSD/clean_cifs/AXUDII04_clean'
_cell_length_a 11.46600
_cell_length_b 11.46600
_cell_length_c 11.46600
_cell_angle_alpha 90.00000
_cell_angle_beta  90.00000
_cell_angle_gamma 90.00000
_space_group_name_H-M_alt      'P 1'


loop_
_space_group_symop_operation_xyz
  'x, y, z' 

loop_
_atom_site_label
_atom_site_fract_x
_atom_site_fract_y
_atom_site_fract_z
_atom_site_type_symbol
Co         0.0      0.0      0.0    Co
C          0.0      0.0   0.1637     C
N          0.0      0.0   0.2567     N
K          0.0      0.0      0.5     K
N          0.0      0.0   0.7433     N
C          0.0      0.0   0.8363     C
C          0.0   0.1637      0.0     C
N          0.0   0.2433      0.5     N
N          0.0   0.2567      0.0     N
C          0.0   0.3363      0.5     C
K          0.0      0.5      0.0     K
N          0.0      0.5   0.2433     N
C          0.0      0.5   0.3363     C
Co         0.0      0.5      0.5    Co
C          0.0      0.5   0.6637     C
N          0.0      0.5   0.7567     N
C          0.0   0.6637      0.5     C
N          0.0   0.7433      0.0     N
N          0.0   0.7567      0.5     N
C          0.0   0.8363      0.0     C
C       0.1637      0.0      0.0     C
C       0.1637      0.5      0.5     C
N       0.2433      0.0      0.5     N
N       0.2433      0.5      0.0     N
N       0.2567      0.0      0.0     N
N       0.2567      0.5      0.5     N
C       0.3363      0.0      0.5     C
C       0.3363      0.5      0.0     C
K          0.5      0.0      0.0     K
N          0.5      0.0   0.2433     N
C          0.5      0.0   0.3363     C
Co         0.5      0.0      0.5    Co
C          0.5      0.0   0.6637     C
N          0.5      0.0   0.7567     N
C          0.5   0.1637      0.5     C
N          0.5   0.2433      0.0     N
N          0.5   0.2567      0.5     N
C          0.5   0.3363      0.0     C
Co         0.5      0.5      0.0    Co
C          0.5      0.5   0.1637     C
N          0.5      0.5   0.2567     N
K          0.5      0.5      0.5     K
N          0.5      0.5   0.7433     N
C          0.5      0.5   0.8363     C
C          0.5   0.6637      0.0     C
N          0.5   0.7433      0.5     N
N          0.5   0.7567      0.0     N
C          0.5   0.8363      0.5     C
C       0.6637      0.0      0.5     C
C       0.6637      0.5      0.0     C
N       0.7433      0.0      0.0     N
N       0.7433      0.5      0.5     N
N       0.7567      0.0      0.5     N
N       0.7567      0.5      0.0     N
C       0.8363      0.0      0.0     C
C       0.8363      0.5      0.5     C
