data_I
_chemical_name_common  '/home/zhangsd/repos/MofS-CGCNN/ML/data/TSD/clean_cifs/AZAWAB_clean'
_cell_length_a 12.63250
_cell_length_b 17.47260
_cell_length_c 27.96670
_cell_angle_alpha 91.27500
_cell_angle_beta  92.43300
_cell_angle_gamma 106.10000
_space_group_name_H-M_alt      'P 1'


loop_
_space_group_symop_operation_xyz
  'x, y, z' 

loop_
_atom_site_label
_atom_site_fract_x
_atom_site_fract_y
_atom_site_fract_z
_atom_site_type_symbol
H       0.0014   0.5852   0.3345     H
O       0.0071   0.9019   0.3962     O
H       0.0074    0.414   0.4197     H
C       0.0113   0.2371   0.3819     C
H       0.0131   0.1351   0.0368     H
O       0.0197   0.8928   0.6513     O
H       0.0204   0.7752   0.4347     H
H       0.0209   0.9945   0.9065     H
C       0.0254   0.2363   0.0767     C
C       0.0276   0.6979   0.6111     C
C       0.0282   0.8366   0.9459     C
C       0.0283   0.3606   0.1236     C
O       0.0284    0.602    0.855     O
C       0.0286   0.9991   0.8341     C
Cu     0.03172  0.51414  0.14937    Cu
C       0.0321   0.7209   0.8982     C
C       0.0355   0.3695   0.4149     C
H       0.0364   0.3439   0.5262     H
O       0.0375   0.4415   0.7498     O
H       0.0436   0.7576    0.114     H
C       0.0471   0.5362   0.2514     C
H       0.0487   0.0138    0.173     H
O       0.0488   0.0112   0.2612     O
C       0.0527   0.0089   0.7465     C
C       0.0562   0.2493   0.5625     C
C       0.0615    0.563   0.3393     C
C        0.062   0.8374   0.6445     C
C       0.0698   0.0021    0.881     C
H        0.076   0.8802   0.0751     H
H       0.0792   0.5841   0.4114     H
O       0.0857   0.6311   0.1434     O
C       0.0898     0.32   0.5392     C
O       0.0913   0.5133   0.2158     O
C       0.0917   0.1349    0.608     C
H       0.0985   0.6987   0.6243     H
C       0.1015   0.0154   0.7974     C
C       0.1024   0.5325   0.3005     C
H        0.103   0.2569   0.0749     H
Cu     0.10433  0.00279  0.64565    Cu
C       0.1069   0.7757   0.0957     C
C        0.107   0.5617   0.3851     C
C       0.1136   0.2379   0.4012     C
H       0.1194    0.449   0.8023     H
O       0.1244    0.029   0.7136     O
C       0.1253   0.8483   0.0715     C
O       0.1278   0.3852   0.1167     O
C       0.1315   0.2136   0.5819     C
O       0.1372   0.4613   0.8317     O
C       0.1392   0.3712   0.4338     C
H       0.1407   0.1928    0.397     H
C       0.1407   0.8685   0.9437     C
C       0.1434   0.7521   0.8968     C
H       0.1574   0.1779   0.9299     H
O       0.1582   0.8367   0.6565     O
O       0.1667   0.1141   0.6309     O
C       0.1672   0.6523   0.1168     C
H       0.1676   0.4795   0.6145     H
H        0.175   0.5098   0.8327     H
C       0.1775   0.3059   0.4271     C
C       0.1816   0.7313   0.0925     C
C       0.1829   0.0163   0.8909     C
H       0.1852   0.7229   0.8807     H
C       0.1894   0.5002   0.3073     C
C       0.1931   0.5276   0.3926     C
H       0.1934    0.705   0.4792     H
C       0.1965   0.8255   0.9182     C
H       0.1985   0.0708   0.1123     H
C       0.2006   0.3564   0.5347     C
C       0.2009   0.9462   0.9676     C
H        0.205   0.2962   0.8896     H
C       0.2056   0.4442   0.4636     C
H        0.206   0.4605   0.6942     H
C       0.2105   0.0294   0.8062     C
C       0.2123   0.8732   0.0432     C
H       0.2194     0.48   0.2808     H
C       0.2229   0.0175   0.9422     C
H       0.2251   0.6654   0.5721     H
C       0.2323   0.2016   0.9233     C
C       0.2326   0.4976   0.3535     C
C       0.2327   0.5194   0.4433     C
C       0.2337     0.95   0.0164     C
O       0.2343   0.6155   0.1092     O
C       0.2366   0.4356   0.5117     C
H       0.2371   0.8297   0.4461     H
C       0.2409   0.4812   0.6248     C
C       0.2411   0.2483   0.5765     C
H       0.2455   0.0777   0.1952     H
H       0.2484   0.3066   0.4403     H
H       0.2486   0.2172   0.0383     H
C       0.2513   0.0295   0.8552     C
C       0.2546   0.7203   0.4595     C
H       0.2597   0.0389   0.7808     H
C       0.2601   0.0541   0.1237     C
C       0.2608   0.2719   0.8992     C
C       0.2632   0.4699   0.6722     C
C       0.2703   0.7564   0.0634     C
H       0.2737   0.8468   0.9153     H
C       0.2764   0.3192   0.5523     C
C        0.281   0.7946   0.4401     C
C       0.2838   0.0902   0.9646     C
C       0.2853   0.8269   0.0391     C
C       0.2875    0.587   0.4714     C
C       0.2886   0.0211   0.0393     C
C       0.2887   0.0588   0.1733     C
H       0.2917   0.4743   0.3582     H
C       0.2933   0.5025   0.5391     C
H        0.294   0.2239   0.5894     H
H       0.2952   0.7874    0.612     H
C       0.3025   0.6896   0.5735     C
C       0.3122   0.1653   0.9378     C
Cu     0.31574  0.00141  0.33359    Cu
C       0.3162   0.0917   0.0138     C
C       0.3162    0.668   0.4505     C
O       0.3168   0.4433   0.7664     O
C       0.3194   0.5785   0.5196     C
Cu     0.31941    0.511  0.82472    Cu
C       0.3204   0.0258   0.0922     C
H       0.3207   0.7254   0.0601     H
C        0.322   0.4949   0.5914     C
C       0.3232   0.2255   0.0492     C
O        0.327   0.9359   0.3889     O
H       0.3282   0.0392   0.8621     H
O       0.3312   0.4261   0.8662     O
O       0.3313   0.0481   0.2701     O
H       0.3383    0.332   0.0842     H
C       0.3441   0.7612   0.5984     C
H       0.3464   0.8438   0.0194     H
H       0.3528   0.3419    0.548     H
O       0.3539   0.5933   0.8771     O
C       0.3673   0.3071   0.8887     C
C       0.3693    0.652   0.5505     C
C       0.3697   0.4724   0.6876     C
C       0.3714   0.8189   0.4117     C
C       0.3762   0.1695   0.0386     C
C        0.377   0.0365   0.1897     C
C       0.3771   0.2945    0.076     C
H        0.381   0.7346   0.9139     H
O       0.3939   0.0997   0.3665     O
C       0.3962   0.4656   0.7403     C
C        0.397   0.8977   0.3884     C
H       0.3971   0.2214   0.4138     H
C       0.3982   0.3853   0.8633     C
C       0.4044   0.6912   0.4213     C
C       0.4045   0.0366   0.2439     C
C       0.4105   0.0039   0.1093     C
C       0.4192   0.1996   0.9274     C
Cu     0.42609  0.50035  0.18391    Cu
C       0.4284   0.4968   0.6072     C
C       0.4326   0.7666   0.4033     C
O       0.4379   0.9062   0.6479     O
C       0.4399   0.0103   0.1587     C
H       0.4457    0.655   0.4136     H
C       0.4474   0.2696   0.9024     C
C       0.4529   0.4863   0.6551     C
Cu     0.45355  0.00642  0.68281    Cu
H       0.4536   0.9841   0.0876     H
C       0.4551   0.7946   0.6037     C
C       0.4562   0.6185   0.8773     C
C       0.4576   0.7455    0.922     C
H       0.4713   0.3394   0.4588     H
H       0.4738   0.5114   0.3343     H
H       0.4748   0.1754   0.9374     H
C       0.4749   0.2434   0.4174     C
H       0.4757   0.8543   0.9534     H
H       0.4782   0.7079   0.1054     H
C       0.4805    0.686    0.556     C
O        0.484   0.4077   0.1485     O
H       0.4851   0.5055    0.585     H
C       0.4862   0.3084   0.0905     C
O       0.4862    0.401   0.8425     O
C       0.4865   0.1843   0.0534     C
O       0.4905   0.9198   0.3689     O
O       0.4925   0.0246   0.2554     O
H       0.4957   0.7828   0.3847     H
H       0.4964   0.0037   0.8297     H
C       0.4967    0.126   0.3695     C
O       0.4975   0.4836   0.7524     O
O       0.5025   0.5164   0.2476     O
C       0.5033    0.874   0.6305     C
H       0.5036   0.9963   0.1703     H
H       0.5043   0.2172   0.6153     H
O       0.5075   0.9754   0.7446     O
O       0.5095   0.0802   0.6311     O
C       0.5135   0.8157   0.9466     C
O       0.5138    0.599   0.1575     O
C       0.5138   0.6916   0.9095     C
H       0.5149   0.4945    0.415     H
O        0.516   0.5923   0.8515     O
C       0.5195    0.314    0.444     C
H       0.5218   0.2921   0.8946     H
H       0.5243   0.1457   0.0466     H
C       0.5251   0.7566   0.5826     C
H       0.5252   0.8246   0.0626     H
H       0.5262   0.4886   0.6657     H
H       0.5287   0.6606   0.5412     H
C       0.5424   0.2545    0.078     C
C       0.5438   0.3815   0.1227     C
C       0.5449   0.2054   0.3963     C
H       0.5464   0.0159   0.9124     H
Cu     0.54645  0.99358  0.31719    Cu
C       0.5471   0.5137   0.3449     C
C       0.5526   0.7304   0.0976     C
H       0.5543    0.345   0.5864     H
C       0.5601   0.9897   0.8413     C
O       0.5621   0.0938   0.3521     O
C       0.5674   0.2334   0.5967     C
C       0.5716   0.5032   0.3928     C
Cu     0.57391  0.49965  0.81609    Cu
C       0.5808   0.8004   0.0726     C
C       0.5895   0.9961   0.8907     C
C       0.5955   0.9634   0.7561     C
C       0.5956   0.3088   0.5787     C
C       0.6018   0.6147   0.1367     C
H       0.6029   0.7786   0.5862     H
C        0.603   0.1023   0.6116     C
C       0.6038   0.5344   0.2597     C
O       0.6061   0.9003   0.6335     O
H        0.619   0.2654   0.0861     H
C       0.6229   0.7055    0.924     C
C        0.623   0.9635   0.8103     C
C       0.6238   0.8305   0.9614     C
C       0.6286   0.1811   0.5883     C
C       0.6303   0.5276   0.3124     C
C       0.6307    0.348   0.4495     C
C       0.6327   0.6929   0.1113     C
O       0.6461   0.4067   0.1229     O
H       0.6472   0.6581    0.452     H
H       0.6536   0.1562   0.9806     H
C       0.6559   0.2388   0.4016     C
H       0.6617    0.668   0.9158     H
O       0.6687   0.9519   0.7299     O
O       0.6688   0.5739   0.1338     O
H       0.6718   0.9608   0.1379     H
O        0.673   0.0641   0.6111     O
C       0.6768   0.7745   0.9508     C
C        0.678   0.5051   0.4086     C
H       0.6793   0.2746   0.9399     H
C       0.6796   0.9742   0.9078     C
Cu     0.68059    0.489  0.17528    Cu
C       0.6806   0.4215   0.4804     C
O       0.6832   0.5567   0.2336     O
C       0.6838    0.332   0.5495     C
C       0.6838   0.9083   0.9862     C
Cu     0.68426  0.99859  0.66641    Cu
C       0.6878   0.8347   0.0622     C
C       0.6975   0.3104   0.4265     C
H       0.7048   0.2126    0.388     H
H        0.706   0.7761   0.4106     H
C       0.7067   0.4975   0.4609     C
H       0.7083   0.5257   0.6418     H
C       0.7113   0.9412   0.8267     C
C       0.7114   0.9789   0.9607     C
C       0.7125    0.413   0.5286     C
C       0.7147   0.1731   0.9609     C
C       0.7162   0.9098   0.0354     C
C        0.719   0.2054   0.5599     C
C       0.7236   0.6808   0.4477     C
H       0.7263   0.1532   0.0847     H
C       0.7297   0.2436   0.9366     C
C       0.7368   0.5301   0.3278     C
C       0.7392   0.7281   0.1008     C
C       0.7399   0.9459   0.8763     C
H       0.7403   0.9611   0.2192     H
C       0.7454   0.2797   0.5405     C
C       0.7487   0.9705   0.1448     C
H       0.7514   0.7828   0.9617     H
H       0.7516   0.6934   0.5597     H
H       0.7545   0.9223   0.8048     H
C       0.7589   0.7517   0.4235     C
C       0.7591   0.5188   0.3752     C
H       0.7629   0.1703   0.5539     H
C       0.7634   0.5644   0.4883     C
O       0.7657   0.3845   0.8908     O
C       0.7663     0.05   0.9836     C
C       0.7673   0.4806   0.5567     C
C       0.7674   0.5024   0.6465     C
C       0.7677   0.7984   0.0767     C
H       0.7749   0.3346   0.4279     H
C       0.7771   0.9825   0.0578     C
H       0.7806     0.52   0.7192     H
C       0.7877   0.1268   0.9568     C
C       0.7895   0.9706   0.1938     C
H        0.794   0.5395   0.3058     H
C       0.7944   0.5558   0.5364     C
H        0.795   0.7038   0.1104     H
C       0.7991   0.0538   0.0324     C
C       0.7994   0.6436   0.4653     C
H       0.8015   0.9292   0.8877     H
C       0.8035   0.1745   0.0818     C
H       0.8066    0.295   0.5208     H
C       0.8069   0.4724   0.6074     C
C       0.8106   0.4998   0.6927     C
H       0.8148   0.2771   0.1193     H
C       0.8171   0.9837   0.1091     C
C       0.8184   0.2687   0.9075     C
C       0.8225   0.6941   0.5729     C
H        0.825   0.4902   0.1673     H
H       0.8324   0.5205   0.3855     H
C       0.8328   0.3477   0.8832     C
O       0.8333   0.8859   0.3691     O
O       0.8418   0.1633   0.3435     O
H       0.8426   0.8221   0.0701     H
C       0.8566   0.2479   0.1032     C
C       0.8593   0.1315   0.0563     C
H       0.8593   0.8072    0.603     H
C       0.8608   0.6288   0.5662     C
O       0.8628   0.5387   0.1683     O
C       0.8685   0.7864   0.4181     C
O       0.8722   0.6148   0.8833     O
C       0.8747   0.1517   0.9285     C
O       0.8756    0.971   0.2864     O
H       0.8806    0.551   0.1977     H
C       0.8864   0.7621   0.5988     C
C        0.893   0.4383   0.6149     C
C       0.8931   0.2243   0.9043     C
Cu     0.89567  0.99721  0.35435    Cu
H        0.897   0.7431   0.9251     H
C       0.8976   0.4675   0.6995     C
C       0.8985   0.9846   0.2026     C
H       0.9015   0.3013   0.3757     H
C       0.9083   0.8651    0.392     C
O       0.9087   0.4867   0.7842     O
C       0.9102     0.68   0.4608     C
O       0.9143   0.3689   0.8566     O
H       0.9208   0.4159   0.5886     H
H        0.924   0.1198   0.9249     H
C       0.9302   0.9979    0.119     C
C        0.938   0.1626   0.3555     C
C       0.9385    0.437   0.6607     C
C       0.9438   0.7507   0.4375     C
C       0.9473   0.9911   0.2535     C
O       0.9512   0.9888   0.7388     O
H       0.9513   0.9862    0.827     H
C       0.9529   0.4638   0.7486     C
H       0.9564   0.2424    0.886     H
O       0.9625   0.5585   0.2502     O
H       0.9636   0.6561   0.4738     H
C       0.9645   0.6305   0.5851     C
C       0.9679   0.2791   0.1018     C
Cu     0.96828  0.48586  0.85063    Cu
C       0.9714   0.0009   0.1659     C
O       0.9716    0.398    0.145     O
C       0.9717   0.6394   0.8764     C
C       0.9718   0.1634   0.0541     C
C       0.9724   0.3021   0.3889     C
C       0.9746   0.7637   0.9233     C
H       0.9791   0.0055   0.0935     H
H       0.9796   0.2248   0.5653     H
O       0.9803   0.1072   0.3487     O
H       0.9869   0.8649   0.9632     H
C       0.9887   0.7629   0.6181     C
H       0.9926    0.586   0.5803     H
O       0.9929   0.0981   0.6038     O
H       0.9986   0.4148   0.6655     H
