data_I
_chemical_name_common  '/home/zhangsd/repos/MofS-CGCNN/ML/data/TSD/clean_cifs/BAFCAP_clean'
_cell_length_a 12.04320
_cell_length_b 15.93220
_cell_length_c 16.64200
_cell_angle_alpha 76.77000
_cell_angle_beta  70.17200
_cell_angle_gamma 85.48100
_space_group_name_H-M_alt      'P 1'


loop_
_space_group_symop_operation_xyz
  'x, y, z' 

loop_
_atom_site_label
_atom_site_fract_x
_atom_site_fract_y
_atom_site_fract_z
_atom_site_type_symbol
H       0.0068   0.7287   0.0651     H
C       0.0108    0.619   0.7416     C
H       0.0149   0.3541    0.539     H
H       0.0231   0.6601   0.7719     H
C       0.0293   0.8643   0.8468     C
C        0.035   0.8623   0.2205     C
H       0.0376   0.5632   0.7645     H
O       0.0495   0.8154   0.9194     O
O       0.0497   0.7999    0.168     O
H         0.05   0.9232   0.8398     H
H       0.0527   0.1389   0.1466     H
H       0.0542   0.6363   0.6804     H
H       0.0578   0.9181   0.1814     H
H       0.0582   0.7228   0.3238     H
C       0.0639   0.6262   0.4565     C
H       0.0663   0.5981   0.5135     H
C       0.0704   0.6193   0.0112     C
C       0.0712   0.7152   0.2027     C
C       0.0718   0.6402   0.9178     C
C       0.0739   0.6851   0.2861     C
H       0.0765   0.8432   0.7962     H
C       0.0802   0.6952   0.0564     C
C        0.082   0.1287    0.717     C
H         0.09   0.8483   0.2527     H
C       0.0936   0.6607   0.1441     C
O       0.0956     0.08   0.6701     O
C       0.0994   0.6003   0.3149     C
O       0.1008    0.564   0.3972     O
H       0.1034    0.434   0.3504     H
H       0.1168   0.6745   0.4333     H
C       0.1203   0.3854   0.2454     C
C       0.1209    0.575   0.1758     C
C       0.1245   0.5431   0.2569     C
H       0.1378   0.5375   0.1378     H
H       0.1463   0.3286   0.2682     H
C        0.152   0.4493   0.2886     C
O       0.1617   0.1783   0.7138     O
H       0.1634   0.4003   0.1832     H
C       0.1646   0.8109   0.9227     C
C        0.181    0.754   0.9918     C
H       0.1881   0.1803   0.4088     H
H       0.2222   0.2343   0.1725     H
O       0.2258    0.299   0.3825     O
H       0.2357   0.9041   0.8173     H
C       0.2502   0.8643    0.863     C
C       0.2594   0.2118   0.3977     C
H       0.2607   0.6892   0.6904     H
H       0.2654   0.2377   0.0717     H
H       0.2697   0.1506   0.1374     H
C       0.2786    0.212   0.1258     C
C       0.2788   0.4328   0.2864     C
C       0.2899   0.7517   0.0008     C
H       0.3028   0.7135   0.0481     H
H       0.3119   0.2038   0.3411     H
O       0.3133   0.1981   0.5163     O
C       0.3157   0.1596   0.4626     C
C       0.3162   0.3561   0.3299     C
H       0.3206   0.9118   0.2014     H
Zn     0.32193  0.15925  0.63776    Zn
C       0.3434   0.6867   0.6831     C
C       0.3439   0.4911   0.9101     C
H       0.3459   0.6969   0.3546     H
H       0.3472   0.5439   0.2018     H
O       0.3547   0.0772   0.4602     O
O       0.3595   0.0589   0.7504     O
C       0.3633   0.8569   0.8733     C
H       0.3635   0.7333   0.7033     H
H       0.3662    0.996     0.13     H
H       0.3669   0.4528   0.7973     H
C       0.3673   0.4931   0.2343     C
O       0.3688    0.609    0.731     O
C       0.3831    0.805   0.9411     C
C       0.3876   0.9391   0.1545     C
H       0.3884   0.6914   0.6224     H
H       0.3954   0.6287    0.418     H
C       0.4033   0.2332   0.1191     C
C       0.4111   0.0136   0.6979     C
H       0.4113   0.2951   0.1091     H
O        0.413   0.7918   0.4304     O
O       0.4133   0.2497   0.6475     O
H       0.4163   0.2074    0.174     H
C       0.4177   0.6744   0.3658     C
O       0.4191   0.0364   0.6206     O
C       0.4199   0.4559   0.8301     C
H       0.4244    0.796   0.2398     H
O       0.4246   0.8901   0.0892     O
H       0.4274   0.8878    0.716     H
H       0.4335   0.3503   0.9781     H
C        0.434   0.3387   0.3274     C
H       0.4507   0.9426   0.1765     H
H       0.4526   0.8279   0.4364     H
O       0.4527   0.9132   0.8173     O
C       0.4537   0.7648   0.1961     C
H       0.4538   0.0646   0.3062     H
H       0.4553   0.2875   0.3586     H
C       0.4604   0.8038   0.1113     C
C       0.4629    0.934    0.728     C
C       0.4634   0.3204   0.9333     C
C       0.4667   0.3655   0.8495     C
H       0.4724   0.1401   0.0555     H
C       0.4773   0.7467   0.3835     C
C       0.4839   0.5978   0.7243     C
O       0.4857     0.64   0.2973     O
C       0.4867   0.4787     0.23     C
C       0.4893   0.6812   0.2173     C
C       0.4945   0.2004   0.0462     C
C       0.4988   0.2386    0.956     C
Zn         0.5      0.0      0.5    Zn
C       0.5012   0.7614    0.044     C
C       0.5055   0.7996   0.9538     C
C       0.5107   0.3188   0.7827     C
C       0.5133   0.5213     0.77     C
O       0.5143     0.36   0.7027     O
C       0.5161   0.4022   0.2757     C
C       0.5227   0.2533   0.6165     C
H       0.5276   0.8599   0.9445     H
C       0.5333   0.6345   0.1505     C
C       0.5366   0.6796   0.0667     C
C       0.5371    0.066    0.272     C
C       0.5396   0.1962   0.8887     C
H       0.5447   0.7125   0.6414     H
H       0.5462   0.9354   0.6938     H
C       0.5463   0.2352   0.8039     C
O       0.5473   0.0868   0.1827     O
H       0.5474   0.1721   0.5636     H
H       0.5493   0.0574   0.8235     H
C        0.566   0.6613   0.6726     C
H       0.5665   0.6497   0.0219     H
H       0.5726   0.1122    0.284     H
O       0.5754   0.1099   0.9108     O
H       0.5756    0.204   0.7602     H
C       0.5801   0.5441   0.1699     C
O       0.5809   0.9636   0.3794     O
C       0.5823   0.3256   0.6342     C
H       0.5837   0.7926    0.826     H
O       0.5867   0.7503   0.3525     O
O        0.587   0.2082   0.5696     O
H       0.5887   0.7049   0.8909     H
C       0.5889   0.9864   0.3021     C
C       0.5967   0.7668   0.8809     C
H       0.6046   0.3713    0.582     H
H       0.6116   0.3086   0.3776     H
C       0.6124   0.0609   0.8455     C
C       0.6169    0.195   0.0589     C
O       0.6312    0.391    0.269     O
C       0.6327   0.5069   0.7657     C
H       0.6331   0.5472   0.2027     H
H       0.6338    0.004     0.87     H
H       0.6365   0.2667   0.2967     H
C       0.6367   0.1431   0.1267     C
O       0.6405   0.9411   0.2496     O
O       0.6453   0.9228   0.5398     O
H       0.6528   0.4561   0.7982     H
H       0.6541   0.3031   0.6454     H
C       0.6561   0.5089   0.0899     C
C       0.6566   0.3133   0.3169     C
Zn     0.67807  0.84075  0.36224    Zn
H       0.6794   0.0882   0.7986     H
C       0.6838   0.6439   0.6701     C
C       0.6843   0.8404   0.5374     C
O       0.6867   0.8019   0.4837     O
H       0.6881   0.7962   0.6589     H
H       0.6972   0.2865   0.9519     H
C       0.7101   0.2483   0.9992     C
C       0.7212   0.5672   0.7136     C
C       0.7214    0.788   0.8742     C
H       0.7303   0.8494   0.8626     H
H       0.7346   0.7623   0.9283     H
H       0.7393   0.3108   0.3096     H
C       0.7406   0.7882   0.6023     C
C       0.7498   0.1357    0.137     C
H       0.7643   0.0959   0.1827     H
O       0.7742    0.701   0.6175     O
H       0.7778   0.7657   0.8275     H
H       0.8119   0.8197   0.5912     H
C        0.819    0.246   0.0082     C
C       0.8354   0.1891   0.0773     C
H       0.8366   0.5997   0.8168     H
O       0.8383   0.8217   0.2862     O
C        0.848   0.5507   0.7114     C
H       0.8537   0.6714   0.7318     H
H       0.8622   0.4625   0.8622     H
C       0.8755   0.4569   0.7431     C
C       0.8791    0.425   0.8242     C
C       0.8797   0.6146   0.7546     C
H       0.8832   0.3255   0.5667     H
H       0.8966    0.566   0.6496     H
O       0.8992    0.436   0.6028     O
C       0.9006   0.3997   0.6851     C
O       0.9044     0.92   0.3299     O
C       0.9064   0.3393   0.8559     C
H         0.91   0.1517   0.7473     H
C        0.918   0.8713    0.283     C
C       0.9198   0.3048   0.9436     C
H       0.9235   0.1568   0.2038     H
C       0.9261   0.3149   0.7139     C
C       0.9282   0.3598   0.0822     C
C       0.9288   0.2848   0.7973     C
C       0.9296   0.3807   0.9888     C
H       0.9337   0.4019   0.4865     H
C       0.9361   0.3738   0.5435     C
H       0.9418   0.2772   0.6762     H
H       0.9422   0.0819   0.8186     H
H       0.9458   0.3637   0.3196     H
H       0.9473   0.8611   0.8534     H
H         0.95   0.0768   0.1602     H
O       0.9503   0.2001    0.832     O
O       0.9505   0.1846   0.0806     O
H       0.9624   0.4368   0.2355     H
C        0.965   0.1377   0.7795     C
C       0.9707   0.1357   0.1532     C
H       0.9769   0.3399   0.2281     H
H       0.9851   0.6459    0.461     H
C       0.9892    0.381   0.2584     C
H       0.9932   0.2713   0.9349     H
