data_I
_chemical_name_common  '/home/zhangsd/repos/MofS-CGCNN/ML/data/TSD/clean_cifs/BAKGIF_manual'
_cell_length_a  7.54230
_cell_length_b 12.53870
_cell_length_c 13.68870
_cell_angle_alpha 90.00000
_cell_angle_beta  105.99100
_cell_angle_gamma 90.00000
_space_group_name_H-M_alt      'P 1'


loop_
_space_group_symop_operation_xyz
  'x, y, z' 

loop_
_atom_site_label
_atom_site_fract_x
_atom_site_fract_y
_atom_site_fract_z
_atom_site_type_symbol
Ni         0.0      0.5      0.5    Ni
C      0.02267   0.0549  0.36254     C
C      0.02267   0.9451  0.36254     C
N      0.05374  0.28547  0.40128     N
N      0.05374  0.71453  0.40128     N
H       0.0637    0.265   0.6066     H
H       0.0637    0.735   0.6066     H
H        0.068    0.088    0.638     H
H        0.068    0.912    0.638     H
N      0.12812  0.38054  0.43204     N
N      0.12812  0.61946  0.43204     N
C      0.18296   0.1121  0.36592     C
C      0.18296   0.8879  0.36592     C
C      0.19229   0.2267  0.38458     C
C      0.19229   0.7733  0.38458     C
N      0.21524      0.5  0.72508     N
H       0.2185   0.4193   0.9088     H
N      0.22654      0.5  0.62948     N
N      0.30392  0.38054  0.43204     N
N      0.30392  0.61946  0.43204     N
H       0.3097   0.4193   0.0912     H
C       0.3318   0.4588   0.9464     C
C      0.33987   0.0549  0.36254     C
C      0.33987   0.9451  0.36254     C
N      0.34754  0.28547  0.40128     N
N      0.34754  0.71453  0.40128     N
C       0.3854   0.4588   0.0536     C
C      0.39128      0.5  0.78256     C
N      0.40294      0.5  0.62948     N
H         0.43    0.088    0.362     H
H         0.43    0.912    0.362     H
C       0.4473      0.5   0.8946     C
H       0.4571    0.265   0.3934     H
H       0.4571    0.735   0.3934     H
N      0.49016      0.5  0.27492     N
Ni         0.5      0.5      0.5    Ni
N      0.50984      0.5  0.72508     N
H       0.5429    0.265   0.6066     H
H       0.5429    0.735   0.6066     H
C       0.5527      0.5   0.1054     C
H         0.57    0.088    0.638     H
H         0.57    0.912    0.638     H
N      0.59706      0.5  0.37052     N
C      0.60872      0.5  0.21744     C
C       0.6146   0.5412   0.9464     C
N      0.65246  0.28547  0.59872     N
N      0.65246  0.71453  0.59872     N
C      0.66013   0.0549  0.63746     C
C      0.66013   0.9451  0.63746     C
C       0.6682   0.5412   0.0536     C
H       0.6903   0.5807   0.9088     H
N      0.69608  0.38054  0.56796     N
N      0.69608  0.61946  0.56796     N
N      0.77346      0.5  0.37052     N
H       0.7815   0.5807   0.0912     H
N      0.78476      0.5  0.27492     N
C      0.80771   0.2267  0.61542     C
C      0.80771   0.7733  0.61542     C
C      0.81704   0.1121  0.63408     C
C      0.81704   0.8879  0.63408     C
N      0.87188  0.38054  0.56796     N
N      0.87188  0.61946  0.56796     N
H        0.932    0.088    0.362     H
H        0.932    0.912    0.362     H
H       0.9363    0.265   0.3934     H
H       0.9363    0.735   0.3934     H
N      0.94626  0.28547  0.59872     N
N      0.94626  0.71453  0.59872     N
C      0.97733   0.0549  0.63746     C
C      0.97733   0.9451  0.63746     C
