data_I
_chemical_name_common  '/home/zhangsd/repos/MofS-CGCNN/ML/data/TSD/clean_cifs/BAKLIK_clean'
_cell_length_a 11.99400
_cell_length_b 16.35090
_cell_length_c 16.35090
_cell_angle_alpha 65.77500
_cell_angle_beta  75.84700
_cell_angle_gamma 104.15300
_space_group_name_H-M_alt      'P 1'


loop_
_space_group_symop_operation_xyz
  'x, y, z' 

loop_
_atom_site_label
_atom_site_fract_x
_atom_site_fract_y
_atom_site_fract_z
_atom_site_type_symbol
Mn         0.0      0.5      0.5    Mn
C        0.004    0.607    0.912     C
H       0.0041    0.928   0.4604     H
H       0.0069   0.4358    0.114     H
H       0.0081   0.1693   0.3218     H
C       0.0263   0.7102   0.8322     C
H        0.032   0.2394    0.494     H
H       0.0414   0.4627   0.8092     H
H        0.046    0.755   0.8569     H
H       0.0507   0.1441   0.2396     H
O      0.05292   0.4191  0.33124     O
H       0.0682   0.4145   0.0327     H
C       0.0733   0.1895   0.2616     C
H       0.0761   0.6116    0.928     H
H       0.0804   0.3748   0.2528     H
C        0.084    0.088    0.519     C
H       0.0852   0.7168   0.3316     H
O       0.0931   0.3412   0.6892     O
H       0.0934   0.3837   0.8559     H
C        0.094   0.2916   0.1846     C
H       0.0971   0.1431   0.6119     H
H       0.1009   0.0327   0.5528     H
H       0.1153   0.8866   0.2392     H
C       0.1162   0.4511   0.8105     C
C       0.1183   0.2581   0.4851     C
H       0.1189   0.7058   0.7114     H
N       0.1206  0.49672  0.58222     N
H       0.1209    0.114   0.4502     H
N       0.1293   0.3699   0.2083     N
N      0.13016  0.65726  0.44168     N
C        0.132    0.731   0.3653     C
C       0.1377   0.4288   0.6577     C
H       0.1387   0.3029    0.508     H
C       0.1398   0.7432   0.7419     C
C       0.1415   0.1678   0.5424     C
O       0.1419  0.50464  0.38774     O
C        0.144   0.4798   0.3266     C
H       0.1494   0.1908   0.2719     H
H       0.1612   0.4911   0.8307     H
H       0.1642   0.8109   0.6971     H
H       0.1697   0.2886   0.4172     H
C        0.186    0.583   0.5704     C
C       0.1951   0.6749   0.4928     C
C       0.1976   0.4762   0.7084     C
C       0.1989   0.8278   0.3325     C
H       0.1991    0.723    0.012     H
C          0.2      0.9    0.237     C
C       0.2046   0.3423   0.0865     C
H       0.2074   0.7334   0.7606     H
H       0.2111    0.012    0.265     H
H       0.2141   0.7983   0.0486     H
O       0.2177   0.3108   0.0304     O
H       0.2287   0.8742   0.8866     H
N       0.2406   0.5782   0.6301     N
C       0.2436   0.4296   0.1534     C
H       0.2467   0.8927   0.1838     H
O       0.2481   0.0304   0.6588     O
C       0.2558   0.7812   0.0039     C
C       0.2597   0.0039   0.2149     C
C       0.2611   0.8437   0.3886     C
C       0.2626   0.7698   0.4692     C
H       0.2627   0.0486   0.1531     H
C       0.2682   0.5308    0.239     C
C       0.2786   0.1846   0.5238     C
H       0.2903   0.2396   0.6163     H
H        0.291   0.3881    0.755     H
C       0.2911   0.0865   0.5712     C
H       0.2944   0.6276   0.6252     H
N      0.29718  0.41778  0.07894     N
C          0.3    0.863      0.9     C
H       0.3046   0.9077    0.371     H
C       0.3121   0.5072   0.1677     C
C       0.3161   0.4576   0.7102     C
H       0.3244    0.629   0.2787     H
H       0.3264   0.7702   0.0166     H
H       0.3299   0.3218   0.5089     H
H       0.3332   0.2528   0.3724     H
C       0.3349   0.2616   0.5489     C
C       0.3358   0.8064   0.5202     C
N       0.3376   0.2083   0.4218     N
H        0.343   0.0166   0.2132     H
H       0.3463   0.4472   0.5855     H
C       0.3503   0.6114   0.2323     C
H       0.3533    0.492   0.8109     H
H        0.354   0.9235   0.8927     H
H       0.3545   0.2392   0.8742     H
O      0.36274  0.89238  0.49536     O
O      0.36618  0.75034   0.5809     O
H       0.3684   0.9516   0.7168     H
C       0.3711   0.8397   0.8278     C
N      0.37612  0.07894  0.50328     N
O      0.38416  0.33124  0.24966     O
C       0.3966   0.5149   0.7432     C
H       0.3969   0.7213   0.9077     H
C        0.397   0.1534    0.417     C
C        0.397    0.481    0.607     C
C        0.401   0.9037    0.731     C
H       0.4131   0.5828   0.7058     H
H       0.4158   0.1531   0.7983     H
H       0.4168   0.3316   0.9516     H
C       0.4174   0.7677   0.8437     C
H       0.4213   0.2719   0.5373     H
N      0.42816  0.55832  0.09894     N
H       0.4289   0.5498   0.5642     H
H       0.4305   0.1838   0.9235     H
C        0.437    0.237    0.863     C
H       0.4438   0.7868   0.2298     H
H       0.4645   0.4604   0.6116     H
C       0.4686   0.6675   0.1603     C
O      0.47036  0.61226  0.89238     O
C       0.4706   0.3266   0.1936     C
N       0.4729  0.90106  0.65726     N
H        0.474    0.506   0.7334     H
C       0.4746   0.2149   0.7812     C
H       0.4761    0.265    0.723     H
C       0.4798   0.1677   0.3251     C
C       0.4928    0.761   0.7698     C
C       0.4973   0.3653   0.9037     C
Mn         0.5      0.0      0.5    Mn
Mn         0.5      0.5     -0.0    Mn
C       0.5027   0.6347   0.0963     C
C       0.5072    0.239   0.2302     C
C       0.5202   0.8323   0.6749     C
H       0.5239    0.735    0.277     H
C       0.5254   0.7851   0.2188     C
H        0.526    0.494   0.2666     H
N       0.5271  0.09894  0.34274     N
C       0.5294   0.6734   0.8064     C
O      0.52964  0.38774  0.10762     O
C       0.5314   0.3325   0.8397     C
H       0.5355   0.5396   0.3884     H
H       0.5562   0.2132   0.7702     H
C        0.563    0.763    0.137     C
H       0.5695   0.8162   0.0765     H
H       0.5711   0.4502   0.4358     H
N      0.57184  0.44168  0.90106     N
H       0.5787   0.7281   0.4627     H
C       0.5826   0.2323   0.1563     C
H       0.5832   0.6684   0.0484     H
H       0.5842   0.8469   0.2017     H
H       0.5869   0.4172   0.2942     H
C        0.599   0.0963    0.269     C
C        0.603    0.519    0.393     C
C        0.603   0.8466    0.583     C
H       0.6031   0.2787   0.0923     H
C       0.6034   0.4851   0.2568     C
O      0.61584  0.66876  0.75034     O
N      0.62388  0.92106  0.49672     N
C       0.6289   0.1603   0.1722     C
H       0.6316   0.0484   0.2832     H
O      0.63382  0.24966   0.4191     O
O      0.63726  0.10762  0.50464     O
H       0.6455   0.7608   0.1258     H
H        0.646   0.0765   0.1073     H
H       0.6467    0.508   0.1891     H
C       0.6497   0.3886   0.7677     C
H       0.6537   0.5528   0.4145     H
H        0.657   0.9834   0.7868     H
N       0.6624   0.7917   0.5782     N
C       0.6642   0.1936   0.4798     C
C       0.6651   0.7384   0.4511     C
H       0.6668   0.7472   0.6276     H
H       0.6701   0.6782   0.4911     H
H       0.6736   0.2298   0.9834     H
H       0.6756    0.371   0.7213     H
C       0.6839   0.5424   0.2898     C
C       0.6879   0.4928   0.8323     C
H       0.6954   0.0923    0.629     H
C          0.7    0.137      0.1     C
N      0.70282  0.58222  0.92106     N
H       0.7056   0.3724   0.3748     H
C       0.7089   0.9135   0.4288     C
H        0.709   0.6119    0.245     H
H       0.7097   0.7604   0.3837     H
C       0.7214   0.8154   0.4762     C
C       0.7318   0.4692    0.761     C
H       0.7373   0.9514   0.8469     H
C       0.7374   0.2302   0.5308     C
C       0.7389   0.1563   0.6114     C
C       0.7403   0.9961   0.7851     C
C       0.7442   0.2188   0.9961     C
O       0.7519   0.9696   0.3412     O
H       0.7533   0.1073   0.8162     H
C       0.7564   0.5704   0.8466     C
N       0.7594   0.4218   0.3699     N
H       0.7713   0.1258   0.1134     H
O       0.7823   0.6892   0.9696     O
H       0.7859   0.2017   0.9514     H
H       0.7889    0.988    0.735     H
H       0.7926   0.2666   0.2394     H
C       0.7954   0.6577   0.9135     C
C          0.8      0.1    0.763     C
H       0.8009    0.277    0.988     H
C       0.8011   0.1722   0.6675     C
C       0.8024   0.5238   0.2916     C
C       0.8049   0.3251   0.5072     C
C        0.814    0.417   0.4296     C
H       0.8303   0.7114   0.5828     H
H       0.8358   0.1891   0.3029     H
H       0.8388   0.5089   0.1693     H
H       0.8506   0.8092   0.7281     H
C        0.856   0.5202   0.6734     C
O       0.8581  0.49536  0.61226     O
C       0.8585   0.8322   0.4576     C
C       0.8602   0.2568   0.2581     C
H       0.8613   0.6971    0.492     H
C       0.8623   0.5712   0.3423     C
C        0.868    0.269   0.6347     C
N      0.86984  0.34274  0.55832     N
N       0.8707   0.6301   0.7917     N
H       0.8791    0.886   0.5498     H
N       0.8794  0.50328  0.41778     N
H       0.8811   0.2942   0.2886     H
C       0.8817   0.7419   0.5149     C
C       0.8838   0.5489   0.1895     C
H       0.8847   0.1134   0.7608     H
H       0.8991   0.9673   0.4472     H
H       0.9029   0.8569   0.3881     H
C        0.906   0.7084   0.8154     C
H       0.9066   0.6163   0.1441     H
O       0.9069   0.6588   0.3108     O
H       0.9148   0.2832   0.6684     H
C        0.916    0.912    0.481     C
H       0.9196   0.6252   0.7472     H
H       0.9239   0.3884    0.072     H
C       0.9267   0.8105   0.7384     C
H       0.9318   0.5855   0.9673     H
O      0.94708   0.5809  0.66876     O
H       0.9493   0.8559   0.7604     H
H        0.954    0.245   0.1431     H
H       0.9586   0.5373   0.1908     H
H        0.968   0.7606    0.506     H
C       0.9737   0.2898   0.1678     C
H       0.9919   0.8307   0.6782     H
H       0.9931   0.5642    0.886     H
H       0.9959    0.072   0.5396     H
C        0.996    0.393    0.088     C
