data_I
_chemical_name_common  '/home/zhangsd/repos/MofS-CGCNN/ML/data/TSD/clean_cifs/BASTEW_clean'
_cell_length_a  8.59550
_cell_length_b 25.36300
_cell_length_c 17.82200
_cell_angle_alpha 90.00000
_cell_angle_beta  90.00000
_cell_angle_gamma 90.00000
_space_group_name_H-M_alt      'P 1'


loop_
_space_group_symop_operation_xyz
  'x, y, z' 

loop_
_atom_site_label
_atom_site_fract_x
_atom_site_fract_y
_atom_site_fract_z
_atom_site_type_symbol
C       0.0097  0.51842   0.1275     C
C       0.0097  0.98158   0.6275     C
H       0.0331   0.0458   0.5091     H
H       0.0331   0.4542   0.0091     H
Ag       0.039  0.72657  0.45054    Ag
Ag       0.039  0.77343  0.95054    Ag
O       0.0484  0.58167  0.69215     O
O       0.0484  0.91833  0.19215     O
O       0.0497   0.1637   0.2644     O
O       0.0497   0.3363   0.7644     O
C       0.0505  0.04822   0.1445     C
C       0.0505  0.45178   0.6445     C
C       0.0545  0.56333   0.0086     C
C       0.0545  0.93667   0.5086     C
H       0.0555    0.207   0.4004     H
H       0.0555    0.293   0.9004     H
O       0.0591   0.5271  0.39018     O
O       0.0591   0.9729  0.89018     O
H        0.071   0.5967   0.8491     H
H        0.071   0.9033   0.3491     H
O       0.0755  0.02046  0.65909     O
O       0.0755  0.47954  0.15909     O
O       0.0895  0.03169  0.21002     O
O       0.0895  0.46831  0.71002     O
N        0.096  0.20934   0.5102     N
N        0.096  0.29066   0.0102     N
H       0.1016   0.6396   0.5807     H
H       0.1016   0.8604   0.0807     H
C       0.1055  0.55667   0.0818     C
C       0.1055  0.94333   0.5818     C
C       0.1059  0.19151   0.4409     C
C       0.1059  0.30849   0.9409     C
H       0.1191   0.0694   0.0034     H
H       0.1191   0.4306   0.5034     H
N        0.126  0.61014   0.8878     N
N        0.126  0.88986   0.3878     N
O       0.1344  0.02526  0.37358     O
O       0.1344  0.47474  0.87358     O
C       0.1361  0.09423   0.1116     C
C       0.1361  0.40577   0.6116     C
C       0.1388  0.59724   0.9625     C
C       0.1388  0.90276   0.4625     C
C       0.1595   0.1373   0.2421     C
C       0.1595   0.3627   0.7421     C
C       0.1606   0.0952   0.0346     C
C       0.1606   0.4048   0.5346     C
Sm     0.16304  0.02387  0.78363    Sm
Sm     0.16304  0.47613  0.28363    Sm
H       0.1835   0.2028   0.6606     H
H       0.1835   0.2972   0.1606     H
N       0.1853  0.66048    0.433     N
N       0.1853  0.83952    0.933     N
C       0.1861  0.62039   0.5629     C
C       0.1861  0.87961   0.0629     C
C       0.1881  0.17549   0.5532     C
C       0.1881  0.32451   0.0532     C
C       0.1935  0.57474   0.6852     C
C       0.1935  0.92526   0.1852     C
C       0.1939  0.13495    0.159     C
C       0.1939  0.36505    0.659     C
N        0.196  0.14865   0.4351     N
N        0.196  0.35135   0.9351     N
H        0.219   0.1325   0.3916     H
H        0.219   0.3675   0.8916     H
C       0.2198  0.17576   0.6299     C
C       0.2198  0.32424   0.1299     C
O       0.2203  0.56137  0.23875     O
O       0.2203  0.93863  0.73875     O
C       0.2326  0.64751   0.8731     C
C       0.2326  0.85249   0.3731     C
C       0.2394  0.62765   0.4906     C
C       0.2394  0.87235   0.9906     C
C       0.2397  0.58409   0.1086     C
C       0.2397  0.91591   0.6086     C
O       0.2463  0.11296   0.7857     O
O       0.2463  0.38704   0.2857     O
H        0.247   0.6625    0.826     H
H        0.247   0.8375    0.326     H
C       0.2499  0.13657   0.5059     C
C       0.2499  0.36343   0.0059     C
C       0.2501  0.13657   0.0059     C
C       0.2501  0.36343   0.5059     C
H        0.253   0.6625    0.326     H
H        0.253   0.8375    0.826     H
O       0.2537  0.11296   0.2857     O
O       0.2537  0.38704   0.7857     O
C       0.2603  0.58409   0.6086     C
C       0.2603  0.91591   0.1086     C
C       0.2606  0.62765   0.9906     C
C       0.2606  0.87235   0.4906     C
C       0.2674  0.64751   0.3731     C
C       0.2674  0.85249   0.8731     C
O       0.2797  0.56137  0.73875     O
O       0.2797  0.93863  0.23875     O
C       0.2802  0.17576   0.1299     C
C       0.2802  0.32424   0.6299     C
H        0.281   0.1325   0.8916     H
H        0.281   0.3675   0.3916     H
N        0.304  0.14865   0.9351     N
N        0.304  0.35135   0.4351     N
C       0.3061  0.13495    0.659     C
C       0.3061  0.36505    0.159     C
C       0.3065  0.57474   0.1852     C
C       0.3065  0.92526   0.6852     C
C       0.3119  0.17549   0.0532     C
C       0.3119  0.32451   0.5532     C
C       0.3139  0.62039   0.0629     C
C       0.3139  0.87961   0.5629     C
N       0.3147  0.66048    0.933     N
N       0.3147  0.83952    0.433     N
H       0.3165   0.2028   0.1606     H
H       0.3165   0.2972   0.6606     H
Sm     0.33696  0.02387  0.28363    Sm
Sm     0.33696  0.47613  0.78363    Sm
C       0.3394   0.0952   0.5346     C
C       0.3394   0.4048   0.0346     C
C       0.3405   0.1373   0.7421     C
C       0.3405   0.3627   0.2421     C
C       0.3612  0.59724   0.4625     C
C       0.3612  0.90276   0.9625     C
C       0.3639  0.09423   0.6116     C
C       0.3639  0.40577   0.1116     C
O       0.3656  0.02526  0.87358     O
O       0.3656  0.47474  0.37358     O
N        0.374  0.61014   0.3878     N
N        0.374  0.88986   0.8878     N
H       0.3809   0.0694   0.5034     H
H       0.3809   0.4306   0.0034     H
C       0.3941  0.19151   0.9409     C
C       0.3941  0.30849   0.4409     C
C       0.3945  0.55667   0.5818     C
C       0.3945  0.94333   0.0818     C
H       0.3984   0.6396   0.0807     H
H       0.3984   0.8604   0.5807     H
N        0.404  0.20934   0.0102     N
N        0.404  0.29066   0.5102     N
O       0.4105  0.03169  0.71002     O
O       0.4105  0.46831  0.21002     O
O       0.4245  0.02046  0.15909     O
O       0.4245  0.47954  0.65909     O
H        0.429   0.5967   0.3491     H
H        0.429   0.9033   0.8491     H
O       0.4409   0.5271  0.89018     O
O       0.4409   0.9729  0.39018     O
H       0.4445    0.207   0.9004     H
H       0.4445    0.293   0.4004     H
C       0.4455  0.56333   0.5086     C
C       0.4455  0.93667   0.0086     C
C       0.4495  0.04822   0.6445     C
C       0.4495  0.45178   0.1445     C
O       0.4503   0.1637   0.7644     O
O       0.4503   0.3363   0.2644     O
O       0.4516  0.58167  0.19215     O
O       0.4516  0.91833  0.69215     O
Ag       0.461  0.72657  0.95054    Ag
Ag       0.461  0.77343  0.45054    Ag
H       0.4669   0.0458   0.0091     H
H       0.4669   0.4542   0.5091     H
C       0.4903  0.51842   0.6275     C
C       0.4903  0.98158   0.1275     C
C       0.5097  0.01842   0.8725     C
C       0.5097  0.48158   0.3725     C
H       0.5331   0.5458   0.4909     H
H       0.5331   0.9542   0.9909     H
Ag       0.539  0.22657  0.54946    Ag
Ag       0.539  0.27343  0.04946    Ag
O       0.5484  0.08167  0.30785     O
O       0.5484  0.41833  0.80785     O
O       0.5497   0.6637   0.7356     O
O       0.5497   0.8363   0.2356     O
C       0.5505  0.54822   0.8555     C
C       0.5505  0.95178   0.3555     C
C       0.5545  0.06333   0.9914     C
C       0.5545  0.43667   0.4914     C
H       0.5555    0.707   0.5996     H
H       0.5555    0.793   0.0996     H
O       0.5591   0.0271  0.60982     O
O       0.5591   0.4729  0.10982     O
H        0.571   0.0967   0.1509     H
H        0.571   0.4033   0.6509     H
O       0.5755  0.52046  0.34091     O
O       0.5755  0.97954  0.84091     O
O       0.5895  0.53169  0.78998     O
O       0.5895  0.96831  0.28998     O
N        0.596  0.70934   0.4898     N
N        0.596  0.79066   0.9898     N
H       0.6016   0.1396   0.4193     H
H       0.6016   0.3604   0.9193     H
C       0.6055  0.05667   0.9182     C
C       0.6055  0.44333   0.4182     C
C       0.6059  0.69151   0.5591     C
C       0.6059  0.80849   0.0591     C
H       0.6191   0.5694   0.9966     H
H       0.6191   0.9306   0.4966     H
N        0.626  0.11014   0.1122     N
N        0.626  0.38986   0.6122     N
O       0.6344  0.52526  0.62642     O
O       0.6344  0.97474  0.12642     O
C       0.6361  0.59423   0.8884     C
C       0.6361  0.90577   0.3884     C
C       0.6388  0.09724   0.0375     C
C       0.6388  0.40276   0.5375     C
C       0.6595   0.6373   0.7579     C
C       0.6595   0.8627   0.2579     C
C       0.6606   0.5952   0.9654     C
C       0.6606   0.9048   0.4654     C
Sm     0.66304  0.52387  0.21637    Sm
Sm     0.66304  0.97613  0.71637    Sm
H       0.6835   0.7028   0.3394     H
H       0.6835   0.7972   0.8394     H
N       0.6853  0.16048    0.567     N
N       0.6853  0.33952    0.067     N
C       0.6861  0.12039   0.4371     C
C       0.6861  0.37961   0.9371     C
C       0.6881  0.67549   0.4468     C
C       0.6881  0.82451   0.9468     C
C       0.6935  0.07474   0.3148     C
C       0.6935  0.42526   0.8148     C
C       0.6939  0.63495    0.841     C
C       0.6939  0.86505    0.341     C
N        0.696  0.64865   0.5649     N
N        0.696  0.85135   0.0649     N
H        0.719   0.6325   0.6084     H
H        0.719   0.8675   0.1084     H
C       0.7198  0.67576   0.3701     C
C       0.7198  0.82424   0.8701     C
O       0.7203  0.06137  0.76125     O
O       0.7203  0.43863  0.26125     O
C       0.7326  0.14751   0.1269     C
C       0.7326  0.35249   0.6269     C
C       0.7394  0.12765   0.5094     C
C       0.7394  0.37235   0.0094     C
C       0.7397  0.08409   0.8914     C
C       0.7397  0.41591   0.3914     C
O       0.7463  0.61296   0.2143     O
O       0.7463  0.88704   0.7143     O
H        0.747   0.1625    0.174     H
H        0.747   0.3375    0.674     H
C       0.7499  0.63657   0.4941     C
C       0.7499  0.86343   0.9941     C
C       0.7501  0.63657   0.9941     C
C       0.7501  0.86343   0.4941     C
H        0.753   0.1625    0.674     H
H        0.753   0.3375    0.174     H
O       0.7537  0.61296   0.7143     O
O       0.7537  0.88704   0.2143     O
C       0.7603  0.08409   0.3914     C
C       0.7603  0.41591   0.8914     C
C       0.7606  0.12765   0.0094     C
C       0.7606  0.37235   0.5094     C
C       0.7674  0.14751   0.6269     C
C       0.7674  0.35249   0.1269     C
O       0.7797  0.06137  0.26125     O
O       0.7797  0.43863  0.76125     O
C       0.7802  0.67576   0.8701     C
C       0.7802  0.82424   0.3701     C
H        0.781   0.6325   0.1084     H
H        0.781   0.8675   0.6084     H
N        0.804  0.64865   0.0649     N
N        0.804  0.85135   0.5649     N
C       0.8061  0.63495    0.341     C
C       0.8061  0.86505    0.841     C
C       0.8065  0.07474   0.8148     C
C       0.8065  0.42526   0.3148     C
C       0.8119  0.67549   0.9468     C
C       0.8119  0.82451   0.4468     C
C       0.8139  0.12039   0.9371     C
C       0.8139  0.37961   0.4371     C
N       0.8147  0.16048    0.067     N
N       0.8147  0.33952    0.567     N
H       0.8165   0.7028   0.8394     H
H       0.8165   0.7972   0.3394     H
Sm     0.83696  0.52387  0.71637    Sm
Sm     0.83696  0.97613  0.21637    Sm
C       0.8394   0.5952   0.4654     C
C       0.8394   0.9048   0.9654     C
C       0.8405   0.6373   0.2579     C
C       0.8405   0.8627   0.7579     C
C       0.8612  0.09724   0.5375     C
C       0.8612  0.40276   0.0375     C
C       0.8639  0.59423   0.3884     C
C       0.8639  0.90577   0.8884     C
O       0.8656  0.52526  0.12642     O
O       0.8656  0.97474  0.62642     O
N        0.874  0.11014   0.6122     N
N        0.874  0.38986   0.1122     N
H       0.8809   0.5694   0.4966     H
H       0.8809   0.9306   0.9966     H
C       0.8941  0.69151   0.0591     C
C       0.8941  0.80849   0.5591     C
C       0.8945  0.05667   0.4182     C
C       0.8945  0.44333   0.9182     C
H       0.8984   0.1396   0.9193     H
H       0.8984   0.3604   0.4193     H
N        0.904  0.70934   0.9898     N
N        0.904  0.79066   0.4898     N
O       0.9105  0.53169  0.28998     O
O       0.9105  0.96831  0.78998     O
O       0.9245  0.52046  0.84091     O
O       0.9245  0.97954  0.34091     O
H        0.929   0.0967   0.6509     H
H        0.929   0.4033   0.1509     H
O       0.9409   0.0271  0.10982     O
O       0.9409   0.4729  0.60982     O
H       0.9445    0.707   0.0996     H
H       0.9445    0.793   0.5996     H
C       0.9455  0.06333   0.4914     C
C       0.9455  0.43667   0.9914     C
C       0.9495  0.54822   0.3555     C
C       0.9495  0.95178   0.8555     C
O       0.9503   0.6637   0.2356     O
O       0.9503   0.8363   0.7356     O
O       0.9516  0.08167  0.80785     O
O       0.9516  0.41833  0.30785     O
Ag       0.961  0.22657  0.04946    Ag
Ag       0.961  0.27343  0.54946    Ag
H       0.9669   0.5458   0.9909     H
H       0.9669   0.9542   0.4909     H
C       0.9903  0.01842   0.3725     C
C       0.9903  0.48158   0.8725     C
