data_I
_chemical_name_common  '/home/zhangsd/repos/MofS-CGCNN/ML/data/TSD/clean_cifs/BAXFIR02_clean'
_cell_length_a  8.03060
_cell_length_b 19.40800
_cell_length_c  8.88620
_cell_angle_alpha 90.00000
_cell_angle_beta  92.81600
_cell_angle_gamma 90.00000
_space_group_name_H-M_alt      'P 1'


loop_
_space_group_symop_operation_xyz
  'x, y, z' 

loop_
_atom_site_label
_atom_site_fract_x
_atom_site_fract_y
_atom_site_fract_z
_atom_site_type_symbol
Fe         0.0      0.0      0.0    Fe
N       0.0018   0.5001   0.9306     N
H        0.019   0.8672   0.2021     H
H       0.0339   0.1433   0.1646     H
H       0.0351   0.6463   0.6669     H
H       0.0491   0.3377    0.623     H
C       0.0783   0.8654   0.8588     C
N       0.0792   0.0049   0.3317     N
C       0.0927   0.1232   0.8214     C
H       0.1063   0.5022   0.3529     H
N       0.1362   0.9199    0.916     N
C       0.1435   0.6302   0.6603     C
N        0.146   0.0709   0.8956     N
N       0.1545   0.0036   0.1928     N
N       0.1556   0.5025   0.1318     N
C       0.1568    0.355   0.6187     C
N       0.1746   0.7566   0.7761     N
H       0.1799   0.0036   0.5369     H
N       0.1835   0.5748   0.5955     N
C       0.1862   0.5027   0.2806     C
N       0.1933   0.2255   0.7224     N
N       0.1944   0.4137   0.5698     N
C       0.1948   0.0037   0.4337     C
N       0.2038   0.8217   0.8367     N
N       0.2205   0.1619   0.7823     N
N       0.2795   0.6619   0.7177     N
N       0.2962   0.3217   0.6633     N
C       0.3052   0.5037   0.0663     C
N       0.3056   0.9137   0.9302     N
N       0.3067   0.7255   0.7776     N
C       0.3138   0.0027   0.2194     C
N       0.3165   0.0748   0.9045     N
H       0.3201   0.5036   0.9631     H
N       0.3254   0.2566   0.7239     N
C       0.3432    0.855   0.8813     C
N       0.3444   0.0025   0.3682     N
N       0.3455   0.5036   0.3072     N
N        0.354   0.5709   0.6044     N
C       0.3565   0.1302   0.8397     C
N       0.3638   0.4199    0.584     N
H       0.3937   0.0022   0.1471     H
C       0.4073   0.6232   0.6786     C
N       0.4208   0.5049   0.1683     N
C       0.4217   0.3654   0.6412     C
H       0.4509   0.8377    0.877     H
H       0.4649   0.1463   0.8331     H
H       0.4661   0.6433   0.3354     H
H        0.481   0.3672   0.2979     H
N       0.4982   0.0001   0.5694     N
Fe         0.5      0.5      0.5    Fe
N       0.5018   0.9999   0.4306     N
H        0.519   0.6328   0.7021     H
H       0.5339   0.3567   0.6646     H
H       0.5351   0.8537   0.1669     H
H       0.5491   0.1623    0.123     H
C       0.5783   0.6346   0.3588     C
N       0.5792   0.4951   0.8317     N
C       0.5927   0.3768   0.3214     C
H       0.6063   0.9978   0.8529     H
N       0.6362   0.5801    0.416     N
C       0.6435   0.8698   0.1603     C
N        0.646   0.4291   0.3956     N
N       0.6545   0.4964   0.6928     N
N       0.6556   0.9975   0.6318     N
C       0.6568    0.145   0.1187     C
N       0.6746   0.7434   0.2761     N
H       0.6799   0.4964   0.0369     H
N       0.6835   0.9252   0.0955     N
C       0.6862   0.9973   0.7806     C
N       0.6933   0.2745   0.2224     N
N       0.6944   0.0863   0.0698     N
C       0.6948   0.4963   0.9337     C
N       0.7038   0.6783   0.3367     N
N       0.7205   0.3381   0.2823     N
N       0.7795   0.8381   0.2177     N
N       0.7962   0.1783   0.1633     N
C       0.8052   0.9963   0.5663     C
N       0.8056   0.5863   0.4302     N
N       0.8067   0.7745   0.2776     N
C       0.8138   0.4973   0.7194     C
N       0.8165   0.4252   0.4045     N
H       0.8201   0.9964   0.4631     H
N       0.8254   0.2434   0.2239     N
C       0.8432    0.645   0.3813     C
N       0.8444   0.4975   0.8682     N
N       0.8455   0.9964   0.8072     N
N        0.854   0.9291   0.1044     N
C       0.8565   0.3698   0.3397     C
N       0.8638   0.0801    0.084     N
H       0.8937   0.4978   0.6471     H
C       0.9073   0.8768   0.1786     C
N       0.9208   0.9951   0.6683     N
C       0.9217   0.1346   0.1412     C
H       0.9509   0.6623    0.377     H
H       0.9649   0.3537   0.3331     H
H       0.9661   0.8567   0.8354     H
H        0.981   0.1328   0.7979     H
N       0.9982   0.4999   0.0694     N
