data_I
_chemical_name_common  '/home/zhangsd/repos/MofS-CGCNN/ML/data/TSD/clean_cifs/BAXFUD_clean'
_cell_length_a  8.14460
_cell_length_b 20.26030
_cell_length_c  8.85150
_cell_angle_alpha 90.00000
_cell_angle_beta  90.06100
_cell_angle_gamma 90.00000
_space_group_name_H-M_alt      'P 1'


loop_
_space_group_symop_operation_xyz
  'x, y, z' 

loop_
_atom_site_label
_atom_site_fract_x
_atom_site_fract_y
_atom_site_fract_z
_atom_site_type_symbol
Fe         0.0      0.0      0.0    Fe
H        0.003    0.132    0.795     H
N       0.0037  0.49883   0.0698     N
H        0.026    0.852    0.834     H
H        0.031   0.3532    0.327     H
H        0.061   0.6604     0.35     H
N       0.0853  0.99584    0.664     N
C       0.0866   0.1369   0.1457     C
C       0.0967   0.8748   0.1836     C
H        0.103   0.4993    0.645     H
C       0.1417   0.3657   0.3373     C
N        0.143   0.0813   0.0955     N
N        0.149  0.92655   0.1143     N
N        0.151   0.4988    0.869     N
C       0.1526   0.6458   0.3676     C
N       0.1625  0.99635   0.8042     N
N       0.1783  0.24339   0.2255     N
C       0.1805  0.49851   0.7185     C
N       0.1809  0.42159   0.3981     N
H        0.182    0.997    0.467     H
N        0.188    0.586   0.4123     N
N        0.192  0.77076   0.2761     N
C       0.1996    0.998   0.5632     C
N        0.209   0.1786    0.169     N
N       0.2232  0.83554   0.2164     N
N       0.2768  0.33554   0.2836     N
N        0.291   0.6786    0.331     N
C       0.3004    0.498   0.9368     C
N        0.308  0.27076   0.2239     N
N        0.312    0.086   0.0877     N
H        0.318    0.497    0.033     H
N       0.3191  0.92159   0.1019     N
C       0.3195  0.99851   0.7815     C
N       0.3217  0.74339   0.2745     N
N       0.3375  0.49635   0.6958     N
C       0.3474   0.1458   0.1324     C
N        0.349   0.9988    0.631     N
N        0.351  0.42655   0.3857     N
N        0.357   0.5813   0.4045     N
C       0.3583   0.8657   0.1627     C
H        0.397   0.9993    0.855     H
C       0.4033   0.3748   0.3164     C
C       0.4134   0.6369   0.3543     C
N       0.4147  0.49584    0.836     N
H        0.439   0.1604     0.15     H
H        0.469   0.8532    0.173     H
H        0.474    0.352    0.666     H
N       0.4963  0.99883   0.4302     N
H        0.497    0.632    0.705     H
Fe         0.5      0.5      0.5    Fe
H        0.503    0.368    0.295     H
N       0.5037  0.00117   0.5698     N
H        0.526    0.648    0.334     H
H        0.531   0.1468    0.827     H
H        0.561   0.8396     0.85     H
N       0.5853  0.50416    0.164     N
C       0.5866   0.3631   0.6457     C
C       0.5967   0.6252   0.6836     C
H        0.603   0.0007    0.145     H
C       0.6417   0.1343   0.8373     C
N        0.643   0.4187   0.5955     N
N        0.649  0.57345   0.6143     N
N        0.651   0.0012    0.369     N
C       0.6526   0.8542   0.8676     C
N       0.6625  0.50365   0.3042     N
N       0.6783  0.25661   0.7255     N
C       0.6805  0.00149   0.2185     C
N       0.6809  0.07841   0.8981     N
H        0.682    0.503    0.967     H
N        0.688    0.914   0.9123     N
N        0.692  0.72924   0.7761     N
C       0.6996    0.502   0.0632     C
N        0.709   0.3214    0.669     N
N       0.7232  0.66446   0.7164     N
N       0.7768  0.16446   0.7836     N
N        0.791   0.8214    0.831     N
C       0.8004    0.002   0.4368     C
N        0.808  0.22924   0.7239     N
N        0.812    0.414   0.5877     N
H        0.818    0.003    0.533     H
N       0.8191  0.57841   0.6019     N
C       0.8195  0.50149   0.2815     C
N       0.8217  0.75661   0.7745     N
N       0.8375  0.00365   0.1958     N
C       0.8474   0.3542   0.6324     C
N        0.849   0.5012    0.131     N
N        0.851  0.07345   0.8857     N
N        0.857   0.9187   0.9045     N
C       0.8583   0.6343   0.6627     C
H        0.897   0.5007    0.355     H
C       0.9033   0.1252   0.8164     C
C       0.9134   0.8631   0.8543     C
N       0.9147  0.00416    0.336     N
H        0.939   0.3396     0.65     H
H        0.969   0.6468    0.673     H
H        0.974    0.148    0.166     H
N       0.9963  0.50117   0.9302     N
H        0.997    0.868    0.205     H
