data_I
_chemical_name_common  '/home/zhangsd/repos/MofS-CGCNN/ML/data/TSD/clean_cifs/BAZFUF01_clean'
_cell_length_a 27.41800
_cell_length_b 27.41800
_cell_length_c 27.41800
_cell_angle_alpha 90.00000
_cell_angle_beta  90.00000
_cell_angle_gamma 90.00000
_space_group_name_H-M_alt      'P 1'


loop_
_space_group_symop_operation_xyz
  'x, y, z' 

loop_
_atom_site_label
_atom_site_fract_x
_atom_site_fract_y
_atom_site_fract_z
_atom_site_type_symbol
Cu         0.0  0.20178      0.5    Cu
Cu         0.0  0.29822      0.5    Cu
Cu         0.0  0.70178      0.5    Cu
Cu         0.0  0.79822      0.5    Cu
O      0.04953  0.20932   0.4502     O
O      0.04953  0.20932   0.5498     O
O      0.04953  0.79068   0.4502     O
O      0.04953  0.79068   0.5498     O
O       0.0498  0.29068  0.45047     O
O       0.0498  0.29068  0.54953     O
O       0.0498  0.70932  0.45047     O
O       0.0498  0.70932  0.54953     O
C      0.06525     0.25  0.43475     C
C      0.06525     0.25  0.56525     C
C      0.06525     0.75  0.43475     C
C      0.06525     0.75  0.56525     C
C       0.1035     0.25   0.3965     C
C       0.1035     0.25   0.6035     C
C       0.1035     0.75   0.3965     C
C       0.1035     0.75   0.6035     C
H        0.109   0.3224   0.3894     H
H        0.109   0.3224   0.6106     H
H        0.109   0.6776   0.3894     H
H        0.109   0.6776   0.6106     H
H       0.1106   0.1776    0.391     H
H       0.1106   0.1776    0.609     H
H       0.1106   0.8224    0.391     H
H       0.1106   0.8224    0.609     H
C       0.1216    0.293    0.378     C
C       0.1216    0.293    0.622     C
C       0.1216    0.707    0.378     C
C       0.1216    0.707    0.622     C
C        0.122    0.207   0.3784     C
C        0.122    0.207   0.6216     C
C        0.122    0.793   0.3784     C
C        0.122    0.793   0.6216     C
C       0.1564   0.2062   0.3427     C
C       0.1564   0.2062   0.6573     C
C       0.1564   0.7938   0.3427     C
C       0.1564   0.7938   0.6573     C
C       0.1573   0.2938   0.3436     C
C       0.1573   0.2938   0.6564     C
C       0.1573   0.7062   0.3436     C
C       0.1573   0.7062   0.6564     C
H       0.1674   0.1766   0.3303     H
H       0.1674   0.1766   0.6697     H
H       0.1674   0.8234   0.3303     H
H       0.1674   0.8234   0.6697     H
H       0.1697   0.3234   0.3326     H
H       0.1697   0.3234   0.6674     H
H       0.1697   0.6766   0.3326     H
H       0.1697   0.6766   0.6674     H
C       0.1754     0.25   0.3246     C
C       0.1754     0.25   0.6754     C
C       0.1754     0.75   0.3246     C
C       0.1754     0.75   0.6754     C
H       0.1766   0.3303   0.1674     H
H       0.1766   0.3303   0.8326     H
H       0.1766   0.6697   0.1674     H
H       0.1766   0.6697   0.8326     H
H       0.1776    0.391   0.1106     H
H       0.1776    0.391   0.8894     H
H       0.1776    0.609   0.1106     H
H       0.1776    0.609   0.8894     H
H       0.1899   0.3101     0.25     H
H       0.1899   0.3101     0.75     H
H       0.1899   0.6899     0.25     H
H       0.1899   0.6899     0.75     H
Cu     0.20178      0.5      0.0    Cu
C       0.2062   0.3427   0.1564     C
C       0.2062   0.3427   0.8436     C
C       0.2062   0.6573   0.1564     C
C       0.2062   0.6573   0.8436     C
C        0.207   0.3784    0.122     C
C        0.207   0.3784    0.878     C
C        0.207   0.6216    0.122     C
C        0.207   0.6216    0.878     C
O      0.20932   0.4502  0.04953     O
O      0.20932   0.4502  0.95047     O
O      0.20932   0.5498  0.04953     O
O      0.20932   0.5498  0.95047     O
C       0.2139   0.2861     0.25     C
C       0.2139   0.2861     0.75     C
C       0.2139   0.7139     0.25     C
C       0.2139   0.7139     0.75     C
C      0.21518     0.25  0.28482     C
C      0.21518     0.25  0.71518     C
C      0.21518     0.75  0.28482     C
C      0.21518     0.75  0.71518     C
H         0.25   0.1899   0.3101     H
H         0.25   0.1899   0.6899     H
C         0.25   0.2139   0.2861     C
C         0.25   0.2139   0.7139     C
C         0.25  0.28482  0.21518     C
C         0.25  0.28482  0.78482     C
C         0.25   0.3246   0.1754     C
C         0.25   0.3246   0.8246     C
C         0.25   0.3965   0.1035     C
C         0.25   0.3965   0.8965     C
C         0.25  0.43475  0.06525     C
C         0.25  0.43475  0.93475     C
C         0.25  0.56525  0.06525     C
C         0.25  0.56525  0.93475     C
C         0.25   0.6035   0.1035     C
C         0.25   0.6035   0.8965     C
C         0.25   0.6754   0.1754     C
C         0.25   0.6754   0.8246     C
C         0.25  0.71518  0.21518     C
C         0.25  0.71518  0.78482     C
C         0.25   0.7861   0.2861     C
C         0.25   0.7861   0.7139     C
H         0.25   0.8101   0.3101     H
H         0.25   0.8101   0.6899     H
C      0.28482  0.21518     0.25     C
C      0.28482  0.21518     0.75     C
C      0.28482  0.78482     0.25     C
C      0.28482  0.78482     0.75     C
C       0.2861     0.25   0.2139     C
C       0.2861     0.25   0.7861     C
C       0.2861     0.75   0.2139     C
C       0.2861     0.75   0.7861     C
O      0.29068  0.45047   0.0498     O
O      0.29068  0.45047   0.9502     O
O      0.29068  0.54953   0.0498     O
O      0.29068  0.54953   0.9502     O
C        0.293    0.378   0.1216     C
C        0.293    0.378   0.8784     C
C        0.293    0.622   0.1216     C
C        0.293    0.622   0.8784     C
C       0.2938   0.3436   0.1573     C
C       0.2938   0.3436   0.8427     C
C       0.2938   0.6564   0.1573     C
C       0.2938   0.6564   0.8427     C
Cu     0.29822      0.5      0.0    Cu
H       0.3101     0.25   0.1899     H
H       0.3101     0.25   0.8101     H
H       0.3101     0.75   0.1899     H
H       0.3101     0.75   0.8101     H
H       0.3224   0.3894    0.109     H
H       0.3224   0.3894    0.891     H
H       0.3224   0.6106    0.109     H
H       0.3224   0.6106    0.891     H
H       0.3234   0.3326   0.1697     H
H       0.3234   0.3326   0.8303     H
H       0.3234   0.6674   0.1697     H
H       0.3234   0.6674   0.8303     H
C       0.3246   0.1754     0.25     C
C       0.3246   0.1754     0.75     C
C       0.3246   0.8246     0.25     C
C       0.3246   0.8246     0.75     C
H       0.3303   0.1674   0.1766     H
H       0.3303   0.1674   0.8234     H
H       0.3303   0.8326   0.1766     H
H       0.3303   0.8326   0.8234     H
H       0.3326   0.1697   0.3234     H
H       0.3326   0.1697   0.6766     H
H       0.3326   0.8303   0.3234     H
H       0.3326   0.8303   0.6766     H
C       0.3427   0.1564   0.2062     C
C       0.3427   0.1564   0.7938     C
C       0.3427   0.8436   0.2062     C
C       0.3427   0.8436   0.7938     C
C       0.3436   0.1573   0.2938     C
C       0.3436   0.1573   0.7062     C
C       0.3436   0.8427   0.2938     C
C       0.3436   0.8427   0.7062     C
C        0.378   0.1216    0.293     C
C        0.378   0.1216    0.707     C
C        0.378   0.8784    0.293     C
C        0.378   0.8784    0.707     C
C       0.3784    0.122    0.207     C
C       0.3784    0.122    0.793     C
C       0.3784    0.878    0.207     C
C       0.3784    0.878    0.793     C
H       0.3894    0.109   0.3224     H
H       0.3894    0.109   0.6776     H
H       0.3894    0.891   0.3224     H
H       0.3894    0.891   0.6776     H
H        0.391   0.1106   0.1776     H
H        0.391   0.1106   0.8224     H
H        0.391   0.8894   0.1776     H
H        0.391   0.8894   0.8224     H
C       0.3965   0.1035     0.25     C
C       0.3965   0.1035     0.75     C
C       0.3965   0.8965     0.25     C
C       0.3965   0.8965     0.75     C
C      0.43475  0.06525     0.25     C
C      0.43475  0.06525     0.75     C
C      0.43475  0.93475     0.25     C
C      0.43475  0.93475     0.75     C
O       0.4502  0.04953  0.20932     O
O       0.4502  0.04953  0.79068     O
O       0.4502  0.95047  0.20932     O
O       0.4502  0.95047  0.79068     O
O      0.45047   0.0498  0.29068     O
O      0.45047   0.0498  0.70932     O
O      0.45047   0.9502  0.29068     O
O      0.45047   0.9502  0.70932     O
Cu         0.5      0.0  0.20178    Cu
Cu         0.5      0.0  0.29822    Cu
Cu         0.5      0.0  0.70178    Cu
Cu         0.5      0.0  0.79822    Cu
O      0.54953   0.0498  0.29068     O
O      0.54953   0.0498  0.70932     O
O      0.54953   0.9502  0.29068     O
O      0.54953   0.9502  0.70932     O
O       0.5498  0.04953  0.20932     O
O       0.5498  0.04953  0.79068     O
O       0.5498  0.95047  0.20932     O
O       0.5498  0.95047  0.79068     O
C      0.56525  0.06525     0.25     C
C      0.56525  0.06525     0.75     C
C      0.56525  0.93475     0.25     C
C      0.56525  0.93475     0.75     C
C       0.6035   0.1035     0.25     C
C       0.6035   0.1035     0.75     C
C       0.6035   0.8965     0.25     C
C       0.6035   0.8965     0.75     C
H        0.609   0.1106   0.1776     H
H        0.609   0.1106   0.8224     H
H        0.609   0.8894   0.1776     H
H        0.609   0.8894   0.8224     H
H       0.6106    0.109   0.3224     H
H       0.6106    0.109   0.6776     H
H       0.6106    0.891   0.3224     H
H       0.6106    0.891   0.6776     H
C       0.6216    0.122    0.207     C
C       0.6216    0.122    0.793     C
C       0.6216    0.878    0.207     C
C       0.6216    0.878    0.793     C
C        0.622   0.1216    0.293     C
C        0.622   0.1216    0.707     C
C        0.622   0.8784    0.293     C
C        0.622   0.8784    0.707     C
C       0.6564   0.1573   0.2938     C
C       0.6564   0.1573   0.7062     C
C       0.6564   0.8427   0.2938     C
C       0.6564   0.8427   0.7062     C
C       0.6573   0.1564   0.2062     C
C       0.6573   0.1564   0.7938     C
C       0.6573   0.8436   0.2062     C
C       0.6573   0.8436   0.7938     C
H       0.6674   0.1697   0.3234     H
H       0.6674   0.1697   0.6766     H
H       0.6674   0.8303   0.3234     H
H       0.6674   0.8303   0.6766     H
H       0.6697   0.1674   0.1766     H
H       0.6697   0.1674   0.8234     H
H       0.6697   0.8326   0.1766     H
H       0.6697   0.8326   0.8234     H
C       0.6754   0.1754     0.25     C
C       0.6754   0.1754     0.75     C
C       0.6754   0.8246     0.25     C
C       0.6754   0.8246     0.75     C
H       0.6766   0.3326   0.1697     H
H       0.6766   0.3326   0.8303     H
H       0.6766   0.6674   0.1697     H
H       0.6766   0.6674   0.8303     H
H       0.6776   0.3894    0.109     H
H       0.6776   0.3894    0.891     H
H       0.6776   0.6106    0.109     H
H       0.6776   0.6106    0.891     H
H       0.6899     0.25   0.1899     H
H       0.6899     0.25   0.8101     H
H       0.6899     0.75   0.1899     H
H       0.6899     0.75   0.8101     H
Cu     0.70178      0.5      0.0    Cu
C       0.7062   0.3436   0.1573     C
C       0.7062   0.3436   0.8427     C
C       0.7062   0.6564   0.1573     C
C       0.7062   0.6564   0.8427     C
C        0.707    0.378   0.1216     C
C        0.707    0.378   0.8784     C
C        0.707    0.622   0.1216     C
C        0.707    0.622   0.8784     C
O      0.70932  0.45047   0.0498     O
O      0.70932  0.45047   0.9502     O
O      0.70932  0.54953   0.0498     O
O      0.70932  0.54953   0.9502     O
C       0.7139     0.25   0.2139     C
C       0.7139     0.25   0.7861     C
C       0.7139     0.75   0.2139     C
C       0.7139     0.75   0.7861     C
C      0.71518  0.21518     0.25     C
C      0.71518  0.21518     0.75     C
C      0.71518  0.78482     0.25     C
C      0.71518  0.78482     0.75     C
H         0.75   0.1899   0.3101     H
H         0.75   0.1899   0.6899     H
C         0.75   0.2139   0.2861     C
C         0.75   0.2139   0.7139     C
C         0.75  0.28482  0.21518     C
C         0.75  0.28482  0.78482     C
C         0.75   0.3246   0.1754     C
C         0.75   0.3246   0.8246     C
C         0.75   0.3965   0.1035     C
C         0.75   0.3965   0.8965     C
C         0.75  0.43475  0.06525     C
C         0.75  0.43475  0.93475     C
C         0.75  0.56525  0.06525     C
C         0.75  0.56525  0.93475     C
C         0.75   0.6035   0.1035     C
C         0.75   0.6035   0.8965     C
C         0.75   0.6754   0.1754     C
C         0.75   0.6754   0.8246     C
C         0.75  0.71518  0.21518     C
C         0.75  0.71518  0.78482     C
C         0.75   0.7861   0.2861     C
C         0.75   0.7861   0.7139     C
H         0.75   0.8101   0.3101     H
H         0.75   0.8101   0.6899     H
C      0.78482     0.25  0.28482     C
C      0.78482     0.25  0.71518     C
C      0.78482     0.75  0.28482     C
C      0.78482     0.75  0.71518     C
C       0.7861   0.2861     0.25     C
C       0.7861   0.2861     0.75     C
C       0.7861   0.7139     0.25     C
C       0.7861   0.7139     0.75     C
O      0.79068   0.4502  0.04953     O
O      0.79068   0.4502  0.95047     O
O      0.79068   0.5498  0.04953     O
O      0.79068   0.5498  0.95047     O
C        0.793   0.3784    0.122     C
C        0.793   0.3784    0.878     C
C        0.793   0.6216    0.122     C
C        0.793   0.6216    0.878     C
C       0.7938   0.3427   0.1564     C
C       0.7938   0.3427   0.8436     C
C       0.7938   0.6573   0.1564     C
C       0.7938   0.6573   0.8436     C
Cu     0.79822      0.5      0.0    Cu
H       0.8101   0.3101     0.25     H
H       0.8101   0.3101     0.75     H
H       0.8101   0.6899     0.25     H
H       0.8101   0.6899     0.75     H
H       0.8224    0.391   0.1106     H
H       0.8224    0.391   0.8894     H
H       0.8224    0.609   0.1106     H
H       0.8224    0.609   0.8894     H
H       0.8234   0.3303   0.1674     H
H       0.8234   0.3303   0.8326     H
H       0.8234   0.6697   0.1674     H
H       0.8234   0.6697   0.8326     H
C       0.8246     0.25   0.3246     C
C       0.8246     0.25   0.6754     C
C       0.8246     0.75   0.3246     C
C       0.8246     0.75   0.6754     C
H       0.8303   0.3234   0.3326     H
H       0.8303   0.3234   0.6674     H
H       0.8303   0.6766   0.3326     H
H       0.8303   0.6766   0.6674     H
H       0.8326   0.1766   0.3303     H
H       0.8326   0.1766   0.6697     H
H       0.8326   0.8234   0.3303     H
H       0.8326   0.8234   0.6697     H
C       0.8427   0.2938   0.3436     C
C       0.8427   0.2938   0.6564     C
C       0.8427   0.7062   0.3436     C
C       0.8427   0.7062   0.6564     C
C       0.8436   0.2062   0.3427     C
C       0.8436   0.2062   0.6573     C
C       0.8436   0.7938   0.3427     C
C       0.8436   0.7938   0.6573     C
C        0.878    0.207   0.3784     C
C        0.878    0.207   0.6216     C
C        0.878    0.793   0.3784     C
C        0.878    0.793   0.6216     C
C       0.8784    0.293    0.378     C
C       0.8784    0.293    0.622     C
C       0.8784    0.707    0.378     C
C       0.8784    0.707    0.622     C
H       0.8894   0.1776    0.391     H
H       0.8894   0.1776    0.609     H
H       0.8894   0.8224    0.391     H
H       0.8894   0.8224    0.609     H
H        0.891   0.3224   0.3894     H
H        0.891   0.3224   0.6106     H
H        0.891   0.6776   0.3894     H
H        0.891   0.6776   0.6106     H
C       0.8965     0.25   0.3965     C
C       0.8965     0.25   0.6035     C
C       0.8965     0.75   0.3965     C
C       0.8965     0.75   0.6035     C
C      0.93475     0.25  0.43475     C
C      0.93475     0.25  0.56525     C
C      0.93475     0.75  0.43475     C
C      0.93475     0.75  0.56525     C
O       0.9502  0.29068  0.45047     O
O       0.9502  0.29068  0.54953     O
O       0.9502  0.70932  0.45047     O
O       0.9502  0.70932  0.54953     O
O      0.95047  0.20932   0.4502     O
O      0.95047  0.20932   0.5498     O
O      0.95047  0.79068   0.4502     O
O      0.95047  0.79068   0.5498     O
