data_I
_chemical_name_common  '/home/zhangsd/repos/MofS-CGCNN/ML/data/TSD/clean_cifs/BEKSAM_clean'
_cell_length_a 14.37530
_cell_length_b 11.94100
_cell_length_c 10.17600
_cell_angle_alpha 90.00000
_cell_angle_beta  91.10200
_cell_angle_gamma 90.00000
_space_group_name_H-M_alt      'P 1'


loop_
_space_group_symop_operation_xyz
  'x, y, z' 

loop_
_atom_site_label
_atom_site_fract_x
_atom_site_fract_y
_atom_site_fract_z
_atom_site_type_symbol
O       0.0362   0.8685   0.8083     O
O        0.039   0.1388    0.827     O
O       0.0403   0.6341   0.3084     O
O        0.041    0.359    0.325     O
Ga     0.08628  0.63219   0.6602    Ga
Ga     0.08756    0.375  0.67343    Ga
Ga     0.08898   0.8618  0.15434    Ga
Ga     0.09057  0.13365  0.16925    Ga
O       0.1021   0.7291   0.5163     O
O        0.105     0.77    0.011     O
O       0.1051   0.2347   0.0314     O
O       0.1076   0.2694   0.5365     O
P       0.1235  0.81177  0.87072     P
P      0.12352  0.69281  0.37549     P
P      0.12417  0.19768  0.88879     P
P      0.12517  0.30083  0.39212     P
O        0.131   0.5005   0.5928     O
O       0.1324   0.9991   0.1087     O
O       0.1436    0.189   0.3196     O
O       0.1442   0.3037   0.8124     O
O       0.1443      0.8   0.2985     O
O       0.1486   0.7084   0.7901     O
O       0.2034   0.8942   0.8707     O
O        0.207   0.6147   0.3705     O
O       0.2072   0.1195   0.8843     O
O       0.2093   0.3767   0.3826     O
Ga     0.24892  0.50074  0.49654    Ga
Ga     0.25108  0.00074  0.00346    Ga
O       0.2907   0.8767   0.1174     O
O       0.2928   0.6195   0.6157     O
O        0.293   0.1147   0.1295     O
O       0.2966   0.3942   0.6293     O
O       0.3514   0.2084   0.7099     O
O       0.3557      0.3   0.2015     O
O       0.3558   0.8037   0.6876     O
O       0.3564    0.689   0.1804     O
O       0.3676   0.4991   0.3913     O
O        0.369   0.0005   0.9072     O
P      0.37483  0.80083  0.10788     P
P      0.37583  0.69768  0.61121     P
P      0.37648  0.19281  0.12451     P
P       0.3765  0.31177  0.62928     P
O       0.3924   0.7694   0.9635     O
O       0.3949   0.7347   0.4686     O
O        0.395     0.27    0.489     O
O       0.3979   0.2291   0.9837     O
Ga     0.40943  0.63365  0.33075    Ga
Ga     0.41102   0.3618  0.34566    Ga
Ga     0.41244    0.875  0.82657    Ga
Ga     0.41372  0.13219   0.8398    Ga
O        0.459    0.859    0.175     O
O       0.4597   0.1341   0.1916     O
O        0.461   0.6388    0.673     O
O       0.4638   0.3685   0.6917     O
O       0.5362   0.6315   0.3083     O
O        0.539   0.3612    0.327     O
O       0.5403   0.8659   0.8084     O
O        0.541    0.141    0.825     O
Ga     0.58628  0.86781   0.1602    Ga
Ga     0.58756    0.125  0.17343    Ga
Ga     0.58898   0.6382  0.65434    Ga
Ga     0.59057  0.36635  0.66925    Ga
O       0.6021   0.7709   0.0163     O
O        0.605     0.73    0.511     O
O       0.6051   0.2653   0.5314     O
O       0.6076   0.2306   0.0365     O
P       0.6235  0.68823  0.37072     P
P      0.62352  0.80719  0.87549     P
P      0.62417  0.30232  0.38879     P
P      0.62517  0.19917  0.89212     P
O        0.631   0.9995   0.0928     O
O       0.6324   0.5009   0.6087     O
O       0.6436    0.311   0.8196     O
O       0.6442   0.1963   0.3124     O
O       0.6443      0.7   0.7985     O
O       0.6486   0.7916   0.2901     O
O       0.7034   0.6058   0.3707     O
O        0.707   0.8853   0.8705     O
O       0.7072   0.3805   0.3843     O
O       0.7093   0.1233   0.8826     O
Ga     0.74892  0.99926  0.99654    Ga
Ga     0.75108  0.49926  0.50346    Ga
O       0.7907   0.6233   0.6174     O
O       0.7928   0.8805   0.1157     O
O        0.793   0.3853   0.6295     O
O       0.7966   0.1058   0.1293     O
O       0.8514   0.2916   0.2099     O
O       0.8557      0.2   0.7015     O
O       0.8558   0.6963   0.1876     O
O       0.8564    0.811   0.6804     O
O       0.8676   0.0009   0.8913     O
O        0.869   0.4995   0.4072     O
P      0.87483  0.69917  0.60788     P
P      0.87583  0.80232  0.11121     P
P      0.87648  0.30719  0.62451     P
P       0.8765  0.18823  0.12928     P
O       0.8924   0.7306   0.4635     O
O       0.8949   0.7653   0.9686     O
O        0.895     0.23    0.989     O
O       0.8979   0.2709   0.4837     O
Ga     0.90943  0.86635  0.83075    Ga
Ga     0.91102   0.1382  0.84566    Ga
Ga     0.91244    0.625  0.32657    Ga
Ga     0.91372  0.36781   0.3398    Ga
O        0.959    0.641    0.675     O
O       0.9597   0.3659   0.6916     O
O        0.961   0.8612    0.173     O
O       0.9638   0.1315   0.1917     O
