data_I
_chemical_name_common  '/home/zhangsd/repos/MofS-CGCNN/ML/data/TSD/clean_cifs/BEPBAB_clean'
_cell_length_a  9.49300
_cell_length_b 11.24200
_cell_length_c 11.27000
_cell_angle_alpha 82.89000
_cell_angle_beta  83.80000
_cell_angle_gamma 77.68000
_space_group_name_H-M_alt      'P 1'


loop_
_space_group_symop_operation_xyz
  'x, y, z' 

loop_
_atom_site_label
_atom_site_fract_x
_atom_site_fract_y
_atom_site_fract_z
_atom_site_type_symbol
C       0.0006   0.0248   0.6176     C
H       0.0008   0.0418   0.6962     H
C       0.0069   0.0894   0.4039     C
C       0.0081   0.1188   0.5229     C
N         0.01   0.2956   0.7592     N
H       0.0113   0.1496   0.3399     H
C       0.0133    0.271   0.6626     C
C       0.0162   0.2395   0.5443     C
H       0.0172   0.4578   0.1821     H
C       0.0224   0.3329   0.4503     C
Ca     0.02541  0.66994  0.02221    Ca
N       0.0258   0.4057   0.3698     N
O       0.0664   0.4549  0.11444     O
H       0.1514   0.4158   0.1271     H
N       0.2015   0.6727   0.8389     N
N       0.2359   0.3707   0.8982     N
H       0.2626   0.6289   0.5716     H
H       0.2926   0.6042   0.3723     H
N       0.3003   0.6008   0.1031     N
H       0.3011   0.3334    0.644     H
C       0.3102   0.6734   0.7814     C
H       0.3313   0.3067   0.4459     H
C       0.3474   0.3771   0.8507     C
N       0.3499   0.2839   0.1797     N
C       0.3501   0.6363   0.5285     C
C       0.3681   0.6215   0.4089     C
C       0.3885   0.3408   0.6007     C
C       0.4003   0.6058   0.1515     C
C       0.4063   0.3254   0.4821     C
C       0.4427    0.677   0.7121     C
C       0.4436   0.3008   0.2265     C
C       0.4621   0.6626    0.588     C
C       0.4813   0.3835   0.7856     C
C       0.4988    0.632   0.3396     C
C       0.5012    0.368   0.6604     C
C       0.5187   0.6165   0.2144     C
C       0.5379   0.3374    0.412     C
C       0.5564   0.6992   0.7735     C
C       0.5573    0.323   0.2879     C
C       0.5937   0.6746   0.5179     C
C       0.5997   0.3942   0.8485     C
C       0.6115   0.6592   0.3993     C
C       0.6319   0.3785   0.5911     C
C       0.6499   0.3637   0.4715     C
N       0.6501   0.7161   0.8203     N
C       0.6526   0.6229   0.1493     C
H       0.6687   0.6933   0.5541     H
C       0.6898   0.3266   0.2186     C
H       0.6989   0.6666    0.356     H
N       0.6997   0.3992   0.8969     N
H       0.7074   0.3958   0.6277     H
H       0.7374   0.3711   0.4284     H
N       0.7641   0.6293   0.1018     N
N       0.7985   0.3273   0.1611     N
H       0.8486   0.5842   0.8729     H
O       0.9336   0.5451  0.88556     O
N       0.9742   0.5943   0.6302     N
Ca     0.97459  0.33006  0.97779    Ca
C       0.9776   0.6671   0.5497     C
H       0.9828   0.5422   0.8179     H
C       0.9838   0.7605   0.4557     C
C       0.9867    0.729   0.3374     C
H       0.9887   0.8504   0.6601     H
N         0.99   0.7044   0.2408     N
C       0.9919   0.8812   0.4771     C
C       0.9931   0.9106   0.5961     C
H       0.9992   0.9582   0.3038     H
C       0.9994   0.9752   0.3824     C
