data_I
_chemical_name_common  '/home/zhangsd/repos/MofS-CGCNN/ML/data/TSD/clean_cifs/BERFIP_clean'
_cell_length_a  7.97700
_cell_length_b  9.28210
_cell_length_c 15.85190
_cell_angle_alpha 85.38680
_cell_angle_beta  79.21200
_cell_angle_gamma 64.55160
_space_group_name_H-M_alt      'P 1'


loop_
_space_group_symop_operation_xyz
  'x, y, z' 

loop_
_atom_site_label
_atom_site_fract_x
_atom_site_fract_y
_atom_site_fract_z
_atom_site_type_symbol
N       0.0228   0.7384   0.6723     N
C       0.0237   0.8756   0.0562     C
H        0.039   0.7912   0.0945     H
Zn     0.06447  0.87106     0.75    Zn
C       0.0886   0.0368   0.5581     C
N       0.0904   0.3418   0.4237     N
N        0.098   0.5546   0.5741     N
C       0.1007   0.8756   0.4438     C
C       0.1016   0.0908   0.0012     C
C       0.1254   0.9632   0.0581     C
C       0.1309   0.2338   0.3633     C
C       0.1584   0.6072   0.6312     C
H       0.1595   0.5592    0.858     H
C       0.1687   0.0846   0.6242     C
H       0.1698   0.7912   0.4055     H
O       0.1747   0.0164   0.6967     O
O       0.1797   0.3056   0.9482     O
O       0.1911   0.9836   0.1967     O
C       0.1924   0.9092   0.5012     C
C       0.2092     0.19   0.9986     C
O         0.21   0.2014   0.6092     O
C       0.2344   0.6072   0.8688     C
N       0.2388   0.7384   0.8277     N
Zn     0.25056  0.35124  0.50431    Zn
C       0.2533   0.9154   0.1242     C
H       0.2813   0.5592    0.642     H
N       0.3014     0.11   0.3402     N
H       0.3169    0.045   0.3006     H
O       0.3283   0.1558   0.0472     O
N       0.3474   0.5546   0.9259     N
H       0.3619    0.955   0.8006     H
C       0.3647   0.7662   0.8633     C
H        0.394   0.0964   0.3652     H
Zn      0.3982  0.35124  0.99569    Zn
C       0.3992     0.81   0.4986     C
O       0.4114   0.7986   0.1092     O
N       0.4114     0.89   0.8402     N
N       0.4322   0.6582   0.9237     N
O       0.4841   0.8442   0.5472     O
O       0.4853   0.6944   0.4482     O
H       0.4904   0.9036   0.8652     H
H       0.5096   0.0964   0.1348     H
O       0.5147   0.3056   0.5518     O
O       0.5159   0.1558   0.4528     O
N       0.5678   0.3418   0.0763     N
N       0.5886     0.11   0.1598     N
O       0.5886   0.2014   0.8908     O
C       0.6008     0.19   0.5014     C
Zn      0.6018  0.64876  0.00431    Zn
H        0.606   0.9036   0.6348     H
C       0.6353   0.2338   0.1367     C
H       0.6381    0.045   0.1994     H
N       0.6526   0.4454   0.0741     N
O       0.6717   0.8442   0.9528     O
H       0.6831    0.955   0.6994     H
N       0.6986     0.89   0.6598     N
H       0.7187   0.4408    0.358     H
C       0.7467   0.0846   0.8758     C
Zn     0.74944  0.64876  0.49569    Zn
N       0.7612   0.2616   0.1723     N
C       0.7656   0.3928   0.1312     C
O         0.79   0.7986   0.3908     O
C       0.7908     0.81   0.0014     C
C       0.8076   0.0908   0.4988     C
O       0.8089   0.0164   0.8033     O
O       0.8203   0.6944   0.0518     O
O       0.8253   0.9836   0.3033     O
H       0.8302   0.2088   0.5945     H
C       0.8313   0.9154   0.3758     C
H       0.8405   0.4408    0.142     H
C       0.8416   0.3928   0.3688     C
C       0.8691   0.7662   0.6367     C
C       0.8746   0.0368   0.9419     C
C       0.8984   0.9092   0.9988     C
C       0.8993   0.1244   0.5562     C
N        0.902   0.4454   0.4259     N
N       0.9096   0.6582   0.5763     N
C       0.9114   0.9632   0.4419     C
Zn     0.93553  0.12894     0.25    Zn
H        0.961   0.2088   0.9055     H
C       0.9763   0.1244   0.9438     C
N       0.9772   0.2616   0.3277     N
