data_I
_chemical_name_common  '/home/zhangsd/repos/MofS-CGCNN/ML/data/TSD/clean_cifs/BERGAI_clean'
_cell_length_a 12.70000
_cell_length_b 12.70000
_cell_length_c 25.36400
_cell_angle_alpha 90.00000
_cell_angle_beta  90.00000
_cell_angle_gamma 90.00000
_space_group_name_H-M_alt      'P 1'


loop_
_space_group_symop_operation_xyz
  'x, y, z' 

loop_
_atom_site_label
_atom_site_fract_x
_atom_site_fract_y
_atom_site_fract_z
_atom_site_type_symbol
N       0.0016   0.0974   0.9486     N
N       0.0016   0.4026   0.5514     N
C       0.0046   0.1904  0.91755     C
C       0.0046   0.3096  0.58245     C
O       0.0125   0.5881   0.1671     O
O       0.0125   0.9119   0.3329     O
N        0.022   0.7233  0.04945     N
N        0.022   0.7767  0.45055     N
N       0.0268   0.6262  0.50079     N
N       0.0268   0.8738  0.99921     N
N       0.0299   0.1959   0.8698     N
N       0.0299   0.3041   0.6302     N
H       0.0323    0.244   0.6457     H
H       0.0323    0.256   0.8543     H
Zn     0.03855  0.56926  0.06247    Zn
Zn     0.03855  0.93074  0.43753    Zn
C       0.0414    0.737  0.50199     C
C       0.0414    0.763  0.99801     C
H       0.0449   0.1395   0.8526     H
H       0.0449   0.3605   0.6474     H
O       0.0505   0.6464   0.6162     O
O       0.0505   0.8536   0.8838     O
H       0.0603   0.7233   0.9687     H
H       0.0603   0.7767   0.5313     H
H       0.0683   0.6836   0.8344     H
H       0.0683   0.8164   0.6656     H
C       0.0689   0.6075   0.6612     C
C       0.0689   0.8925   0.8388     C
Zn     0.06926  0.53855  0.56247    Zn
Zn     0.06926  0.96145  0.93753    Zn
C       0.0693    0.711   0.8004     C
C       0.0693    0.789   0.6996     C
C       0.0694    0.682   0.7073     C
C       0.0694    0.818   0.7927     C
C       0.0709   0.6437   0.7572     C
C       0.0709   0.8563   0.7428     C
H       0.0713    0.573   0.2626     H
H       0.0713    0.927   0.2374     H
H        0.073   0.5713   0.7626     H
H        0.073   0.9287   0.7374     H
O       0.0881   0.5125   0.6671     O
O       0.0881   0.9875   0.8329     O
N       0.0974   0.0016   0.5514     N
N       0.0974   0.4984   0.9486     N
C       0.1075   0.5689   0.1612     C
C       0.1075   0.9311   0.3388     C
N       0.1262   0.5268  0.00079     N
N       0.1262   0.9732  0.49921     N
H       0.1395   0.0449   0.6474     H
H       0.1395   0.4551   0.8526     H
C       0.1437   0.5709   0.2572     C
C       0.1437   0.9291   0.2428     C
O       0.1464   0.5505   0.1162     O
O       0.1464   0.9495   0.3838     O
C        0.182   0.5694   0.2073     C
C        0.182   0.9306   0.2927     C
H       0.1836   0.5683   0.3344     H
H       0.1836   0.9317   0.1656     H
C       0.1904   0.0046  0.58245     C
C       0.1904   0.4954  0.91755     C
N       0.1959   0.0299   0.6302     N
N       0.1959   0.4701   0.8698     N
C        0.211   0.5693   0.3004     C
C        0.211   0.9307   0.1996     C
N       0.2233    0.522  0.54945     N
H       0.2233   0.5603   0.4687     H
H       0.2233   0.9397   0.0313     H
N       0.2233    0.978  0.95055     N
C        0.237   0.5414  0.00199     C
C        0.237   0.9586  0.49801     C
H        0.244   0.0323   0.8543     H
H        0.244   0.4677   0.6457     H
H        0.256   0.0323   0.6457     H
H        0.256   0.4677   0.8543     H
C        0.263   0.5414  0.49801     C
C        0.263   0.9586  0.00199     C
N       0.2767    0.522  0.95055     N
H       0.2767   0.5603   0.0313     H
H       0.2767   0.9397   0.4687     H
N       0.2767    0.978  0.54945     N
C        0.289   0.5693   0.1996     C
C        0.289   0.9307   0.3004     C
N       0.3041   0.0299   0.8698     N
N       0.3041   0.4701   0.6302     N
C       0.3096   0.0046  0.91755     C
C       0.3096   0.4954  0.58245     C
H       0.3164   0.5683   0.1656     H
H       0.3164   0.9317   0.3344     H
C        0.318   0.5694   0.2927     C
C        0.318   0.9306   0.2073     C
O       0.3536   0.5505   0.3838     O
O       0.3536   0.9495   0.1162     O
C       0.3563   0.5709   0.2428     C
C       0.3563   0.9291   0.2572     C
H       0.3605   0.0449   0.8526     H
H       0.3605   0.4551   0.6474     H
N       0.3738   0.5268  0.49921     N
N       0.3738   0.9732  0.00079     N
C       0.3925   0.5689   0.3388     C
C       0.3925   0.9311   0.1612     C
N       0.4026   0.0016   0.9486     N
N       0.4026   0.4984   0.5514     N
O       0.4119   0.5125   0.8329     O
O       0.4119   0.9875   0.6671     O
H        0.427   0.5713   0.7374     H
H        0.427   0.9287   0.7626     H
H       0.4287    0.573   0.2374     H
H       0.4287    0.927   0.2626     H
C       0.4291   0.6437   0.7428     C
C       0.4291   0.8563   0.7572     C
C       0.4306    0.682   0.7927     C
C       0.4306    0.818   0.7073     C
C       0.4307    0.711   0.6996     C
C       0.4307    0.789   0.8004     C
Zn     0.43074  0.53855  0.93753    Zn
Zn     0.43074  0.96145  0.56247    Zn
C       0.4311   0.6075   0.8388     C
C       0.4311   0.8925   0.6612     C
H       0.4317   0.6836   0.6656     H
H       0.4317   0.8164   0.8344     H
H       0.4397   0.7233   0.5313     H
H       0.4397   0.7767   0.9687     H
O       0.4495   0.6464   0.8838     O
O       0.4495   0.8536   0.6162     O
H       0.4551   0.1395   0.6474     H
H       0.4551   0.3605   0.8526     H
C       0.4586    0.737  0.99801     C
C       0.4586    0.763  0.50199     C
Zn     0.46145  0.56926  0.43753    Zn
Zn     0.46145  0.93074  0.06247    Zn
H       0.4677    0.244   0.8543     H
H       0.4677    0.256   0.6457     H
N       0.4701   0.1959   0.6302     N
N       0.4701   0.3041   0.8698     N
N       0.4732   0.6262  0.99921     N
N       0.4732   0.8738  0.50079     N
N        0.478   0.7233  0.45055     N
N        0.478   0.7767  0.04945     N
O       0.4875   0.5881   0.3329     O
O       0.4875   0.9119   0.1671     O
C       0.4954   0.1904  0.58245     C
C       0.4954   0.3096  0.91755     C
N       0.4984   0.0974   0.5514     N
N       0.4984   0.4026   0.9486     N
N       0.5016   0.5974   0.0514     N
N       0.5016   0.9026   0.4486     N
C       0.5046   0.6904  0.08245     C
C       0.5046   0.8096  0.41755     C
O       0.5125   0.0881   0.8329     O
O       0.5125   0.4119   0.6671     O
N        0.522   0.2233  0.95055     N
N        0.522   0.2767  0.54945     N
N       0.5268   0.1262  0.49921     N
N       0.5268   0.3738  0.00079     N
N       0.5299   0.6959   0.1302     N
N       0.5299   0.8041   0.3698     N
H       0.5323    0.744   0.3543     H
H       0.5323    0.756   0.1457     H
Zn     0.53855  0.06926  0.93753    Zn
Zn     0.53855  0.43074  0.56247    Zn
C       0.5414    0.237  0.49801     C
C       0.5414    0.263  0.00199     C
H       0.5449   0.6395   0.1474     H
H       0.5449   0.8605   0.3526     H
O       0.5505   0.1464   0.3838     O
O       0.5505   0.3536   0.1162     O
H       0.5603   0.2233   0.0313     H
H       0.5603   0.2767   0.4687     H
H       0.5683   0.1836   0.1656     H
H       0.5683   0.3164   0.3344     H
C       0.5689   0.1075   0.3388     C
C       0.5689   0.3925   0.1612     C
Zn     0.56926  0.03855  0.43753    Zn
Zn     0.56926  0.46145  0.06247    Zn
C       0.5693    0.211   0.1996     C
C       0.5693    0.289   0.3004     C
C       0.5694    0.182   0.2927     C
C       0.5694    0.318   0.2073     C
C       0.5709   0.1437   0.2428     C
C       0.5709   0.3563   0.2572     C
H       0.5713    0.073   0.7374     H
H       0.5713    0.427   0.7626     H
H        0.573   0.0713   0.2374     H
H        0.573   0.4287   0.2626     H
O       0.5881   0.0125   0.3329     O
O       0.5881   0.4875   0.1671     O
N       0.5974   0.5016   0.4486     N
N       0.5974   0.9984   0.0514     N
C       0.6075   0.0689   0.8388     C
C       0.6075   0.4311   0.6612     C
N       0.6262   0.0268  0.99921     N
N       0.6262   0.4732  0.50079     N
H       0.6395   0.5449   0.3526     H
H       0.6395   0.9551   0.1474     H
C       0.6437   0.0709   0.7428     C
C       0.6437   0.4291   0.7572     C
O       0.6464   0.0505   0.8838     O
O       0.6464   0.4495   0.6162     O
C        0.682   0.0694   0.7927     C
C        0.682   0.4306   0.7073     C
H       0.6836   0.0683   0.6656     H
H       0.6836   0.4317   0.8344     H
C       0.6904   0.5046  0.41755     C
C       0.6904   0.9954  0.08245     C
N       0.6959   0.5299   0.3698     N
N       0.6959   0.9701   0.1302     N
C        0.711   0.0693   0.6996     C
C        0.711   0.4307   0.8004     C
N       0.7233    0.022  0.45055     N
H       0.7233   0.0603   0.5313     H
H       0.7233   0.4397   0.9687     H
N       0.7233    0.478  0.04945     N
C        0.737   0.0414  0.99801     C
C        0.737   0.4586  0.50199     C
H        0.744   0.5323   0.1457     H
H        0.744   0.9677   0.3543     H
H        0.756   0.5323   0.3543     H
H        0.756   0.9677   0.1457     H
C        0.763   0.0414  0.50199     C
C        0.763   0.4586  0.99801     C
N       0.7767    0.022  0.04945     N
H       0.7767   0.0603   0.9687     H
H       0.7767   0.4397   0.5313     H
N       0.7767    0.478  0.45055     N
C        0.789   0.0693   0.8004     C
C        0.789   0.4307   0.6996     C
N       0.8041   0.5299   0.1302     N
N       0.8041   0.9701   0.3698     N
C       0.8096   0.5046  0.08245     C
C       0.8096   0.9954  0.41755     C
H       0.8164   0.0683   0.8344     H
H       0.8164   0.4317   0.6656     H
C        0.818   0.0694   0.7073     C
C        0.818   0.4306   0.7927     C
O       0.8536   0.0505   0.6162     O
O       0.8536   0.4495   0.8838     O
C       0.8563   0.0709   0.7572     C
C       0.8563   0.4291   0.7428     C
H       0.8605   0.5449   0.1474     H
H       0.8605   0.9551   0.3526     H
N       0.8738   0.0268  0.50079     N
N       0.8738   0.4732  0.99921     N
C       0.8925   0.0689   0.6612     C
C       0.8925   0.4311   0.8388     C
N       0.9026   0.5016   0.0514     N
N       0.9026   0.9984   0.4486     N
O       0.9119   0.0125   0.1671     O
O       0.9119   0.4875   0.3329     O
H        0.927   0.0713   0.2626     H
H        0.927   0.4287   0.2374     H
H       0.9287    0.073   0.7626     H
H       0.9287    0.427   0.7374     H
C       0.9291   0.1437   0.2572     C
C       0.9291   0.3563   0.2428     C
C       0.9306    0.182   0.2073     C
C       0.9306    0.318   0.2927     C
C       0.9307    0.211   0.3004     C
C       0.9307    0.289   0.1996     C
Zn     0.93074  0.03855  0.06247    Zn
Zn     0.93074  0.46145  0.43753    Zn
C       0.9311   0.1075   0.1612     C
C       0.9311   0.3925   0.3388     C
H       0.9317   0.1836   0.3344     H
H       0.9317   0.3164   0.1656     H
H       0.9397   0.2233   0.4687     H
H       0.9397   0.2767   0.0313     H
O       0.9495   0.1464   0.1162     O
O       0.9495   0.3536   0.3838     O
H       0.9551   0.6395   0.3526     H
H       0.9551   0.8605   0.1474     H
C       0.9586    0.237  0.00199     C
C       0.9586    0.263  0.49801     C
Zn     0.96145  0.06926  0.56247    Zn
Zn     0.96145  0.43074  0.93753    Zn
H       0.9677    0.744   0.1457     H
H       0.9677    0.756   0.3543     H
N       0.9701   0.6959   0.3698     N
N       0.9701   0.8041   0.1302     N
N       0.9732   0.1262  0.00079     N
N       0.9732   0.3738  0.49921     N
N        0.978   0.2233  0.54945     N
N        0.978   0.2767  0.95055     N
O       0.9875   0.0881   0.6671     O
O       0.9875   0.4119   0.8329     O
C       0.9954   0.6904  0.41755     C
C       0.9954   0.8096  0.08245     C
N       0.9984   0.5974   0.4486     N
N       0.9984   0.9026   0.0514     N
