data_I
_chemical_name_common  '/home/zhangsd/repos/MofS-CGCNN/ML/data/TSD/clean_cifs/BETDIP_clean'
_cell_length_a 13.09030
_cell_length_b 13.95330
_cell_length_c 15.98040
_cell_angle_alpha 96.90800
_cell_angle_beta  114.17800
_cell_angle_gamma 90.00000
_space_group_name_H-M_alt      'P 1'


loop_
_space_group_symop_operation_xyz
  'x, y, z' 

loop_
_atom_site_label
_atom_site_fract_x
_atom_site_fract_y
_atom_site_fract_z
_atom_site_type_symbol
N      0.00164   0.3527  0.19108     N
C       0.0168   0.2632   0.3198     C
H       0.0291   0.9576     0.89     H
C       0.0347   0.1724   0.4514     C
H       0.0379   0.5948   0.9694     H
H       0.0481   0.7745   0.7178     H
O      0.05347   0.8745  0.59994     O
O      0.05679   0.0001  0.75218     O
C       0.0568   0.3326   0.2832     C
H       0.0685   0.9052   0.0306     H
C       0.0742   0.2502   0.4128     C
O      0.08062   0.9675  0.45824     O
O      0.09585   0.1611   0.5343     O
C       0.0997   0.9362   0.9234     C
C       0.1062   0.6526   0.8468     C
Tb     0.11217  0.04105  0.62892    Tb
C       0.1157   0.5947    0.992     C
C       0.1237   0.9053    0.008     C
H       0.1294   0.9287   0.3124     H
H       0.1391   0.5424     0.11     H
C       0.1525   0.9732   0.7976     C
C       0.1539   0.3852   0.3378     C
H        0.163    0.691    0.834     H
C       0.1677   0.6249   0.9418     C
C       0.1687   0.3082    0.469     C
C       0.1763   0.5638   0.0766     C
C       0.1788    0.935   0.4926     C
C       0.1788   0.9356   0.8888     C
H        0.183   0.4287   0.3124     H
C       0.1839   0.8852   0.3378     C
N      0.18944   0.8527  0.19108     N
H       0.2043   0.3027   0.5318     H
C       0.2106   0.3749   0.4314     C
C       0.2208   0.8749   0.4314     C
C       0.2259   0.8751   0.0582     C
C       0.2264   0.8326   0.2832     C
O      0.23039   0.9757  0.77018     O
O      0.23951   0.9544  0.57742     O
C       0.2594   0.8474   0.1532     C
C       0.2798   0.9014   0.9364     C
C       0.2823   0.6277    0.976     C
C         0.29   0.5644   0.1112     C
C       0.3003   0.8082    0.469     C
C        0.303   0.7632   0.3198     C
O      0.30461   0.4999  0.24782     O
C       0.3063   0.8723    0.024     C
C       0.3138    0.435   0.4926     C
H       0.3192   0.6485    0.942     H
H       0.3275   0.8027   0.5318     H
H        0.329    0.809    0.166     H
H       0.3303   0.7255   0.2822     H
H       0.3324    0.897    0.911     H
O      0.33791   0.4544  0.57742     O
C       0.3386   0.7502   0.4128     C
C       0.3434   0.5986   0.0636     C
C       0.3549   0.5268   0.2024     C
H       0.3772   0.8515    0.058     H
O      0.37762   0.4675  0.45824     O
C       0.4167   0.6724   0.4514     C
H       0.4214    0.603    0.089     H
O      0.43845   0.6611   0.5343     O
O      0.45353   0.6255  0.40006     O
O      0.46021   0.5243  0.22982     O
Tb     0.48325  0.45895  0.37108    Tb
Tb     0.51675  0.54105  0.62892    Tb
O      0.53979   0.4757  0.77018     O
O      0.54647   0.3745  0.59994     O
O      0.56155   0.3389   0.4657     O
H       0.5786    0.397    0.911     H
C       0.5833   0.3276   0.5486     C
O      0.62238   0.5325  0.54176     O
H       0.6228   0.1485    0.942     H
C       0.6451   0.4732   0.7976     C
C       0.6566   0.4014   0.9364     C
C       0.6614   0.2498   0.5872     C
O      0.66209   0.5456  0.42258     O
H       0.6676    0.103    0.089     H
H       0.6697   0.2745   0.7178     H
H        0.671    0.191    0.834     H
H       0.6725   0.1973   0.4682     H
H       0.6808   0.3515    0.058     H
C       0.6862    0.565   0.5074     C
C       0.6937   0.1277    0.976     C
O      0.69539   0.5001  0.75218     O
C        0.697   0.2368   0.6802     C
C       0.6997   0.1918    0.531     C
C         0.71   0.4356   0.8888     C
C       0.7177   0.3723    0.024     C
C       0.7202   0.0986   0.0636     C
C       0.7406   0.1526   0.8468     C
O      0.76049   0.0456  0.42258     O
O      0.76961   0.0243  0.22982     O
C       0.7736   0.1674   0.7168     C
C       0.7741   0.1249   0.9418     C
C       0.7792   0.1251   0.5686     C
C       0.7894   0.6251   0.5686     C
H       0.7957   0.6973   0.4682     H
N      0.81056   0.1473  0.80892     N
C       0.8161   0.1148   0.6622     C
H        0.817   0.5713   0.6876     H
C       0.8212   0.0644   0.1112     C
C       0.8212    0.065   0.5074     C
C       0.8237   0.4362   0.9234     C
C       0.8313   0.6918    0.531     C
C       0.8323   0.3751   0.0582     C
H        0.837    0.309    0.166     H
C       0.8461   0.6148   0.6622     C
C       0.8475   0.0268   0.2024     C
H       0.8609   0.4576     0.89     H
H       0.8706   0.0713   0.6876     H
C       0.8763   0.0947    0.992     C
C       0.8843   0.4053    0.008     C
Tb     0.88783  0.95895  0.37108    Tb
C       0.8938   0.3474   0.1532     C
C       0.9003   0.0638   0.0766     C
O      0.90415   0.8389   0.4657     O
O      0.91938   0.0325  0.54176     O
C       0.9258   0.7498   0.5872     C
H       0.9315   0.0948   0.9694     H
C       0.9432   0.6674   0.7168     C
O      0.94321   0.9999  0.24782     O
O      0.94653   0.1255  0.40006     O
H       0.9519   0.2255   0.2822     H
H       0.9621   0.4052   0.0306     H
C       0.9653   0.8276   0.5486     C
H       0.9709   0.0424     0.11     H
C       0.9832   0.7368   0.6802     C
N      0.99836   0.6473  0.80892     N
