data_I
_chemical_name_common  '/home/zhangsd/repos/MofS-CGCNN/ML/data/TSD/clean_cifs/BEXPAX_clean'
_cell_length_a  8.52400
_cell_length_b 17.21390
_cell_length_c 17.21390
_cell_angle_alpha 120.00000
_cell_angle_beta  90.00000
_cell_angle_gamma 90.00000
_space_group_name_H-M_alt      'P 1'


loop_
_space_group_symop_operation_xyz
  'x, y, z' 

loop_
_atom_site_label
_atom_site_fract_x
_atom_site_fract_y
_atom_site_fract_z
_atom_site_type_symbol
Ni         0.0  0.52534      0.0    Ni
H      0.00387   0.2991   0.7655     H
C      0.01693   0.4314  0.10707     C
C      0.02497    0.294  0.95208     C
C      0.03047  0.27782  0.80392     C
O      0.09317  0.64884  0.07749     O
O      0.10423  0.47723  0.07668     O
C      0.11017   0.2141   0.9181     C
C      0.11817  0.19918  0.77184     C
H      0.11927   0.8075    0.114     H
H      0.13597   0.1921   0.9561     H
O      0.13737  0.18497  0.62765     O
C      0.15707  0.16683   0.8289     C
C      0.16437   0.6759  0.14948     C
C      0.16897  0.14948   0.6759     C
C      0.17627   0.8289  0.16683     C
O      0.19597  0.62765  0.18497     O
H      0.19737   0.9561   0.1921     H
H      0.21407    0.114   0.8075     H
C      0.21517  0.77184  0.19918     C
C      0.22317   0.9181   0.2141     C
O       0.2291  0.07668  0.47723     O
O      0.24017  0.07749  0.64884     O
C      0.30287  0.80392  0.27782     C
C      0.30837  0.95208    0.294     C
C       0.3164  0.10707   0.4314     C
H      0.32947   0.7655   0.2991     H
Ni     0.33333      0.0  0.52534    Ni
H       0.3372   0.2345   0.5336     H
C      0.35027  0.89293  0.32433     C
C       0.3583  0.04792  0.34192     C
C       0.3638  0.19608   0.4739     C
O       0.4265  0.92251  0.57135     O
O      0.43757  0.92332  0.40055     O
C       0.4435   0.0819    0.296     C
C       0.4515  0.22816  0.42734     C
H       0.4526    0.886   0.6935     H
H       0.4693   0.0439    0.236     H
O       0.4707  0.37235  0.55732     O
C       0.4904   0.1711  0.33793     C
C       0.4977  0.85052  0.52642     C
C       0.5023   0.3241  0.47358     C
C       0.5096  0.83317  0.66207     C
O       0.5293  0.81503  0.44268     O
H       0.5307   0.8079    0.764     H
H       0.5474   0.1925   0.3065     H
C       0.5485  0.80082  0.57266     C
C       0.5565   0.7859    0.704     C
O      0.56243  0.52277  0.59945     O
O       0.5735  0.35116  0.42865     O
C       0.6362  0.72218   0.5261     C
C       0.6417    0.706  0.65808     C
C      0.64973   0.5686  0.67567     C
H       0.6628   0.7009   0.4664     H
Ni     0.66667  0.47466  0.47466    Ni
H      0.67053   0.4664   0.7009     H
C       0.6836  0.67567   0.5686     C
C      0.69163  0.65808    0.706     C
C      0.69713   0.5261  0.72218     C
O      0.75983  0.42865  0.35116     O
O       0.7709  0.59945  0.52277     O
C      0.77683    0.704   0.7859     C
C      0.78483  0.57266  0.80082     C
H      0.78593   0.3065   0.1925     H
H      0.80263    0.764   0.8079     H
O      0.80403  0.44268  0.81503     O
C      0.82373  0.66207  0.83317     C
C      0.83103  0.47358   0.3241     C
C      0.83563  0.52642  0.85052     C
C      0.84293  0.33793   0.1711     C
O      0.86263  0.55732  0.37235     O
H      0.86403    0.236   0.0439     H
H      0.88073   0.6935    0.886     H
C      0.88183  0.42734  0.22816     C
C      0.88983    0.296   0.0819     C
O      0.89577  0.40055  0.92332     O
O      0.90683  0.57135  0.92251     O
C      0.96953   0.4739  0.19608     C
C      0.97503  0.34192  0.04792     C
C      0.98307  0.32433  0.89293     C
H      0.99613   0.5336   0.2345     H
