data_I
_chemical_name_common  '/home/zhangsd/repos/MofS-CGCNN/ML/data/TSD/clean_cifs/BEXRUT_clean'
_cell_length_a 12.23150
_cell_length_b 12.44280
_cell_length_c 17.74830
_cell_angle_alpha 90.00000
_cell_angle_beta  90.00000
_cell_angle_gamma 112.51000
_space_group_name_H-M_alt      'P 1'


loop_
_space_group_symop_operation_xyz
  'x, y, z' 

loop_
_atom_site_label
_atom_site_fract_x
_atom_site_fract_y
_atom_site_fract_z
_atom_site_type_symbol
Ni         0.0      0.5      0.5    Ni
O       0.0016   0.2316  0.32799     O
H       0.0103   0.6847   0.2067     H
H       0.0309   0.5894   0.7157     H
C       0.0317   0.4374   0.2486     C
C       0.0323   0.3997   0.7845     C
C       0.0498   0.5372   0.2066     C
H       0.0664   0.4112   0.7331     H
H       0.0689   0.7141   0.3963     H
C       0.0873   0.2688   0.2817     C
C       0.1059    0.377   0.2382     C
O       0.1234   0.4488  0.83958     O
N       0.1257   0.5887  0.41917     N
C       0.1267   0.6837   0.3831     C
O        0.129   0.5056  0.57614     O
C       0.1395   0.5748   0.1531     C
H       0.1488   0.2686   0.7706     H
O       0.1494   0.8984  0.32061     O
H       0.1502   0.6421    0.124     H
Ni     0.15437  0.06103  0.29552    Ni
O       0.1609   0.2222  0.27017     O
O       0.1823   0.3593  0.54282     O
C       0.1919   0.4465   0.5829     C
C       0.1962   0.4168   0.1854     C
C       0.2042   0.3983   0.8481     C
C       0.2052   0.3037   0.8091     C
C       0.2071   0.8463   0.2893     C
C       0.2081   0.7395   0.3278     C
C       0.2102   0.5502   0.4018     C
H       0.2115   0.4838   0.4276     H
C       0.2136   0.5156   0.1418     C
O       0.2344   0.1243  0.72859     O
H       0.2472   0.3761   0.1787     H
H       0.2528   0.6239   0.6787     H
O       0.2656   0.8757  0.22859     O
C       0.2864   0.4844   0.6418     C
H       0.2885   0.5162   0.9276     H
C       0.2898   0.4498   0.9018     C
C       0.2919   0.2605   0.8278     C
C       0.2929   0.1537   0.7893     C
C       0.2948   0.6963   0.3091     C
C       0.2958   0.6017   0.3481     C
C       0.3038   0.5832   0.6854     C
C       0.3081   0.5535   0.0829     C
O       0.3177   0.6407  0.04282     O
O       0.3391   0.7778  0.77017     O
Ni     0.34563  0.93897  0.79552    Ni
H       0.3498   0.3579    0.624     H
O       0.3506   0.1016  0.82061     O
H       0.3512   0.7314   0.2706     H
C       0.3605   0.4252   0.6531     C
O        0.371   0.4944  0.07614     O
C       0.3733   0.3163   0.8831     C
N       0.3743   0.4113  0.91917     N
O       0.3766   0.5512  0.33958     O
C       0.3941    0.623   0.7382     C
C       0.4127   0.7312   0.7817     C
H       0.4311   0.2859   0.8963     H
H       0.4336   0.5888   0.2331     H
C       0.4502   0.4628   0.7066     C
C       0.4677   0.6003   0.2845     C
C       0.4683   0.5626   0.7486     C
H       0.4691   0.4106   0.2157     H
H       0.4897   0.3153   0.7067     H
O       0.4984   0.7684  0.82799     O
Ni         0.5      0.5      0.0    Ni
O       0.5016   0.2316  0.17201     O
H       0.5103   0.6847   0.2933     H
H       0.5309   0.5894   0.7843     H
C       0.5317   0.4374   0.2514     C
C       0.5323   0.3997   0.7155     C
C       0.5498   0.5372   0.2934     C
H       0.5664   0.4112   0.7669     H
H       0.5689   0.7141   0.1037     H
C       0.5873   0.2688   0.2183     C
C       0.6059    0.377   0.2618     C
O       0.6234   0.4488  0.66042     O
N       0.6257   0.5887  0.08083     N
C       0.6267   0.6837   0.1169     C
O        0.629   0.5056  0.92386     O
C       0.6395   0.5748   0.3469     C
H       0.6488   0.2686   0.7294     H
O       0.6494   0.8984  0.17939     O
H       0.6502   0.6421    0.376     H
Ni     0.65437  0.06103  0.20448    Ni
O       0.6609   0.2222  0.22983     O
O       0.6823   0.3593  0.95718     O
C       0.6919   0.4465   0.9171     C
C       0.6962   0.4168   0.3146     C
C       0.7042   0.3983   0.6519     C
C       0.7052   0.3037   0.6909     C
C       0.7071   0.8463   0.2107     C
C       0.7081   0.7395   0.1722     C
C       0.7102   0.5502   0.0982     C
H       0.7115   0.4838   0.0724     H
C       0.7136   0.5156   0.3582     C
O       0.7344   0.1243  0.77141     O
H       0.7472   0.3761   0.3213     H
H       0.7528   0.6239   0.8213     H
O       0.7656   0.8757  0.27141     O
C       0.7864   0.4844   0.8582     C
H       0.7885   0.5162   0.5724     H
C       0.7898   0.4498   0.5982     C
C       0.7919   0.2605   0.6722     C
C       0.7929   0.1537   0.7107     C
C       0.7948   0.6963   0.1909     C
C       0.7958   0.6017   0.1519     C
C       0.8038   0.5832   0.8146     C
C       0.8081   0.5535   0.4171     C
O       0.8177   0.6407  0.45718     O
O       0.8391   0.7778  0.72983     O
Ni     0.84563  0.93897  0.70448    Ni
H       0.8498   0.3579    0.876     H
O       0.8506   0.1016  0.67939     O
H       0.8512   0.7314   0.2294     H
C       0.8605   0.4252   0.8469     C
O        0.871   0.4944  0.42386     O
C       0.8733   0.3163   0.6169     C
N       0.8743   0.4113  0.58083     N
O       0.8766   0.5512  0.16042     O
C       0.8941    0.623   0.7618     C
C       0.9127   0.7312   0.7183     C
H       0.9311   0.2859   0.6037     H
H       0.9336   0.5888   0.2669     H
C       0.9502   0.4628   0.7934     C
C       0.9677   0.6003   0.2155     C
C       0.9683   0.5626   0.7514     C
H       0.9691   0.4106   0.2843     H
H       0.9897   0.3153   0.7933     H
O       0.9984   0.7684  0.67201     O
