data_I
_chemical_name_common  '/home/zhangsd/repos/MofS-CGCNN/ML/data/TSD/clean_cifs/BEXVEH_clean'
_cell_length_a 18.74200
_cell_length_b 22.85950
_cell_length_c 29.66900
_cell_angle_alpha 104.85800
_cell_angle_beta  90.00000
_cell_angle_gamma 90.00000
_space_group_name_H-M_alt      'P 1'


loop_
_space_group_symop_operation_xyz
  'x, y, z' 

loop_
_atom_site_label
_atom_site_fract_x
_atom_site_fract_y
_atom_site_fract_z
_atom_site_type_symbol
Cu     0.00034   0.0361  0.22405    Cu
Cu     0.00263  0.00741  0.30527    Cu
H       0.0221   0.2581   0.9937     H
H       0.0224   0.2754   0.5315     H
C       0.0232  0.31434  0.52566     C
C       0.0232  0.42696     0.51     C
C      0.02338  0.29977  0.99408     C
C      0.02737  0.42083  0.99656     C
C        0.029  0.48217  0.99862     C
C       0.0298   0.4843  0.50225     C
C       0.0387  0.59753  0.48336     C
C       0.0389  0.60723  0.00125     C
C      0.03932  0.66749   0.0024     C
C      0.04085  0.65356  0.47561     C
H       0.0533   0.4851   0.9696     H
H       0.0574   0.5094   0.5287     H
H       0.0587   0.4804   0.4737     H
H       0.0605   0.5019   0.0249     H
O      0.06321   0.9256  0.67354     O
O      0.06657  0.96846    0.203     O
O      0.06673  0.94453  0.27195     O
O       0.0676  0.90283  0.74248     O
O      0.07625  0.04436  0.72288     O
O      0.07751  0.02231   0.7922     O
O      0.08065  0.08836  0.25174     O
H       0.0818   0.5758    0.484     H
O       0.0821  0.06411  0.32016     O
H       0.0822    0.585    0.999     H
C       0.0837  0.93613  0.23018     C
C        0.084  0.89493  0.70064     C
C      0.08719  0.32758  0.99111     C
C      0.08782  0.34088  0.51821     C
C        0.088  0.38817  0.99182     C
C       0.0891  0.39796  0.51162     C
C      0.09765  0.05227  0.76381     C
C      0.10333  0.09382  0.29215     C
O      0.10716  0.75346  0.99978     O
C      0.10996  0.69916  0.00212     C
O      0.11033  0.73419  0.46353     O
C      0.11095  0.68225  0.47227     C
C      0.12934  0.88236  0.20969     C
H       0.1309   0.8521   0.6136     H
H       0.1322   0.4072   0.9889     H
H       0.1325   0.8905   0.1428     H
H       0.1329   0.4174   0.5083     H
C      0.13564  0.84373  0.68019     C
H       0.1368   0.8556   0.2706     H
C      0.14682  0.86574  0.16245     C
C         0.15   0.8457  0.23858     C
O      0.15072  0.23719  0.98734     O
C      0.15125  0.82955  0.63317     C
C      0.15225  0.09876  0.78045     C
O      0.15377  0.25547   0.5235     O
H        0.154    0.822   0.7417     H
C      0.15591  0.30758  0.51633     C
H       0.1563   0.0944   0.8482     H
C      0.15703  0.29136  0.98543     C
C      0.16117  0.13887  0.30912     C
H       0.1637   0.1305   0.3756     H
O      0.16441  0.65329  0.47858     O
C       0.1649  0.81121  0.70933     C
O      0.16497  0.66899  0.00414     O
H       0.1657   0.1191   0.7175     H
C       0.1738  0.11576  0.82689     C
C       0.1792   0.1303  0.74943     C
H       0.1792   0.1577   0.2463     H
C      0.18251  0.15266  0.35522     C
O      0.18305  0.82863  0.06852     O
C       0.1847  0.81364  0.14438     C
O      0.18599  0.79572  0.53957     O
C       0.1903  0.79455   0.2192     C
Cu     0.19251   0.8021  0.00116    Cu
C      0.19283  0.16786  0.27818     C
C      0.19669  0.78238  0.61537     C
Cu     0.19754  0.77888  0.47021    Cu
C       0.2012  0.79349  0.09398     C
H       0.2016   0.7571   0.8523     H
H       0.2069    0.235   0.2178     H
H       0.2074   0.2221   0.7189     H
C       0.2077  0.77854  0.17333     C
C       0.2089  0.76422  0.69146     C
O      0.20964   0.7622  0.93525     O
O       0.2097  0.76036  0.25152     O
O      0.21028  0.33317  0.50536     O
O      0.21156  0.31914  0.98003     O
C      0.21278  0.76311  0.56423     C
O      0.21949  0.15252  0.91906     O
H       0.2197   0.7278   0.3222     H
C       0.2207  0.16378  0.84236     C
H        0.222   0.6817   0.2097     H
O       0.2226  0.74449  0.76572     O
O      0.22359  0.18593  0.44734     O
C       0.2258  0.74919  0.64403     C
O      0.22681  0.73463  0.40558     O
C       0.2273  0.17961  0.76656     C
H       0.2293   0.6874   0.7063     H
C      0.23096  0.19848  0.37174     C
O      0.23246  0.74295  0.07979     O
Cu     0.23333  0.18187  0.98486    Cu
H       0.2356   0.7434   0.1611     H
C       0.2368  0.72697  0.84127     C
C      0.23997  0.18646  0.89306     C
Cu     0.24017  0.20595  0.51496    Cu
C       0.2407  0.73062  0.71984     C
H       0.2429   0.2164   0.1314     H
C        0.244  0.21146  0.29438     C
C       0.2477  0.19539  0.81151     C
O      0.24963  0.21736  0.04996     O
C      0.24974  0.21635  0.42228     C
C         0.25  0.21014  0.73415     C
C         0.25  0.71014  0.23415     C
C      0.25026  0.71635  0.92228     C
O      0.25037  0.71736  0.54996     O
C       0.2523  0.69539  0.31151     C
C        0.256  0.71146  0.79438     C
H       0.2571   0.7164   0.6314     H
C       0.2593  0.23062  0.21984     C
Cu     0.25983  0.70595  0.01496    Cu
C      0.26003  0.68646  0.39306     C
C       0.2632  0.22697  0.34127     C
H       0.2644   0.2434   0.6611     H
Cu     0.26667  0.68187  0.48486    Cu
O      0.26754  0.24295  0.57979     O
C      0.26904  0.69848  0.87174     C
H       0.2707   0.1874   0.2063     H
C       0.2727  0.67961  0.26656     C
O      0.27319  0.23463  0.90558     O
C       0.2742  0.24919  0.14403     C
O      0.27641  0.68593  0.94734     O
O       0.2774  0.24449  0.26572     O
H        0.278   0.1817   0.7097     H
C       0.2793  0.66378  0.34236     C
H       0.2803   0.2278   0.8222     H
O      0.28051  0.65252  0.41906     O
C      0.28722  0.26311  0.06423     C
O      0.28844  0.81914  0.48003     O
O      0.28972  0.83317  0.00536     O
O       0.2903  0.26036  0.75152     O
O      0.29036   0.2622  0.43525     O
C       0.2911  0.26422  0.19146     C
C       0.2923  0.27854  0.67333     C
H       0.2926   0.7221   0.2189     H
H       0.2931    0.735   0.7178     H
H       0.2984   0.2571   0.3523     H
C       0.2988  0.29349  0.59398     C
Cu     0.30246  0.27888  0.97021    Cu
C      0.30331  0.28238  0.11537     C
C      0.30717  0.66786  0.77818     C
Cu     0.30749   0.3021  0.50116    Cu
C       0.3097  0.29455   0.7192     C
O      0.31401  0.29572  0.03957     O
C       0.3153  0.31364  0.64438     C
O      0.31695  0.32863  0.56852     O
C      0.31749  0.65266  0.85522     C
C       0.3208   0.6303  0.24943     C
H       0.3208   0.6577   0.7463     H
C       0.3262  0.61576  0.32689     C
H       0.3343   0.6191   0.2175     H
O      0.33503  0.16899  0.50414     O
C       0.3351  0.31121  0.20933     C
O      0.33559  0.15329  0.97858     O
H       0.3363   0.6305   0.8756     H
C      0.33883  0.63887  0.80912     C
C      0.34297  0.79136  0.48543     C
H       0.3437   0.5944   0.3482     H
C      0.34409  0.80758  0.01633     C
H        0.346    0.322   0.2417     H
O      0.34623  0.75547   0.0235     O
C      0.34775  0.59876  0.28045     C
C      0.34875  0.32955  0.13317     C
O      0.34928  0.73719  0.48734     O
C         0.35   0.3457  0.73858     C
C      0.35318  0.36574  0.66245     C
H       0.3632   0.3556   0.7706     H
C      0.36436  0.34373  0.18019     C
H       0.3671   0.9174   0.0083     H
H       0.3675   0.3905   0.6428     H
H       0.3678   0.9072   0.4889     H
H       0.3691   0.3521   0.1136     H
C      0.37066  0.38236  0.70969     C
C      0.38905  0.18225  0.97227     C
O      0.38967  0.23419  0.96353     O
C      0.39004  0.19916  0.50212     C
O      0.39284  0.25346  0.49978     O
C      0.39667  0.59382  0.79215     C
C      0.40235  0.55227  0.26381     C
C       0.4109  0.89796  0.01162     C
C        0.412  0.88817  0.49182     C
C      0.41218  0.84088  0.01821     C
C      0.41281  0.82758  0.49111     C
C        0.416  0.39493  0.20064     C
C       0.4163  0.43613  0.73018     C
H       0.4178    0.085    0.499     H
O       0.4179  0.56411  0.82016     O
H       0.4182   0.0758    0.984     H
O      0.41935  0.58836  0.75174     O
O      0.42249  0.52231   0.2922     O
O      0.42375  0.54436  0.22288     O
O       0.4324  0.40283  0.24248     O
O      0.43327  0.44453  0.77195     O
O      0.43343  0.46846    0.703     O
O      0.43679   0.4256  0.17354     O
H       0.4395   0.0019   0.5249     H
H       0.4413   0.9804   0.9737     H
H       0.4426   0.0094   0.0287     H
H       0.4467   0.9851   0.4696     H
C      0.45915  0.15356  0.97561     C
C      0.46068  0.16749   0.5024     C
C       0.4611  0.10723  0.50125     C
C       0.4613  0.09753  0.98336     C
C       0.4702   0.9843  0.00225     C
C        0.471  0.98217  0.49862     C
C      0.47263  0.92083  0.49656     C
C      0.47662  0.79977  0.49408     C
C       0.4768  0.81434  0.02566     C
C       0.4768  0.92696     0.01     C
H       0.4776   0.7754   0.0315     H
H       0.4779   0.7581   0.4937     H
Cu     0.49737  0.50741  0.80527    Cu
Cu     0.49966   0.5361  0.72405    Cu
Cu     0.50034   0.4639  0.27595    Cu
Cu     0.50263  0.49259  0.19473    Cu
H       0.5221   0.2419   0.5063     H
H       0.5224   0.2246   0.9685     H
C       0.5232  0.07304     0.99     C
C       0.5232  0.18566  0.97434     C
C      0.52338  0.20023  0.50592     C
C      0.52737  0.07917  0.50344     C
C        0.529  0.01783  0.50138     C
C       0.5298   0.0157  0.99775     C
C       0.5387  0.90247  0.01664     C
C       0.5389  0.89277  0.49875     C
C      0.53932  0.83251   0.4976     C
C      0.54085  0.84644  0.02439     C
H       0.5533   0.0149   0.5304     H
H       0.5574   0.9906   0.9713     H
H       0.5587   0.0196   0.0263     H
H       0.5605   0.9981   0.4751     H
O      0.56321   0.5744  0.82646     O
O      0.56657  0.53154    0.297     O
O      0.56673  0.55547  0.22805     O
O       0.5676  0.59717  0.75752     O
O      0.57625  0.45564  0.77712     O
O      0.57751  0.47769   0.7078     O
O      0.58065  0.41164  0.24826     O
H       0.5818   0.9242    0.016     H
O       0.5821  0.43589  0.17984     O
H       0.5822    0.915    0.501     H
C       0.5837  0.56387  0.26982     C
C        0.584  0.60507  0.79936     C
C      0.58719  0.17242  0.50889     C
C      0.58782  0.15912  0.98179     C
C        0.588  0.11183  0.50818     C
C       0.5891  0.10204  0.98838     C
C      0.59765  0.44773  0.73619     C
C      0.60333  0.40618  0.20785     C
O      0.60716  0.74654  0.50022     O
C      0.60996  0.80084  0.49788     C
O      0.61033  0.76581  0.03647     O
C      0.61095  0.81775  0.02773     C
C      0.62934  0.61764  0.29031     C
H       0.6309   0.6479   0.8864     H
H       0.6322   0.0928   0.5111     H
H       0.6325   0.6095   0.3572     H
H       0.6329   0.0826   0.9917     H
C      0.63564  0.65627  0.81981     C
H       0.6368   0.6444   0.2294     H
C      0.64682  0.63426  0.33755     C
C         0.65   0.6543  0.26142     C
O      0.65072  0.26281  0.51266     O
C      0.65125  0.67045  0.86683     C
C      0.65225  0.40124  0.71955     C
O      0.65377  0.24453   0.9765     O
H        0.654    0.678   0.7583     H
C      0.65591  0.19242  0.98367     C
H       0.6563   0.4056   0.6518     H
C      0.65703  0.20864  0.51457     C
C      0.66117  0.36113  0.19088     C
H       0.6637   0.3695   0.1244     H
O      0.66441  0.84671  0.02142     O
C       0.6649  0.68879  0.79067     C
O      0.66497  0.83101  0.49586     O
H       0.6657   0.3809   0.7825     H
C       0.6738  0.38424  0.67311     C
H       0.6792   0.3423   0.2537     H
C       0.6792   0.3697  0.75057     C
C      0.68251  0.34734  0.14478     C
O      0.68305  0.67137  0.43148     O
C       0.6847  0.68636  0.35562     C
O      0.68599  0.70428  0.96043     O
C       0.6903  0.70545   0.2808     C
Cu     0.69251   0.6979  0.49884    Cu
C      0.69283  0.33214  0.22182     C
C      0.69669  0.71762  0.88463     C
Cu     0.69754  0.72112  0.02979    Cu
C       0.7012  0.70651  0.40602     C
H       0.7016   0.7429   0.6477     H
H       0.7069    0.265   0.2822     H
H       0.7074   0.2779   0.7811     H
C       0.7077  0.72146  0.32667     C
C       0.7089  0.73578  0.80854     C
O      0.70964   0.7378  0.56475     O
O       0.7097  0.73964  0.24848     O
O      0.71028  0.16683  0.99464     O
O      0.71156  0.18086  0.51997     O
C      0.71278  0.73689  0.93577     C
O      0.71949  0.34748  0.58094     O
H       0.7197   0.7722   0.1778     H
C       0.7207  0.33622  0.65764     C
H        0.722   0.8183   0.2903     H
O       0.7226  0.75551  0.73428     O
O      0.72359  0.31407  0.05266     O
C       0.7258  0.75081  0.85597     C
O      0.72681  0.76537  0.09442     O
C       0.7273  0.32039  0.73344     C
H       0.7293   0.8126   0.7937     H
C      0.73096  0.30152  0.12826     C
O      0.73246  0.75705  0.42021     O
Cu     0.73333  0.31813  0.51514    Cu
H       0.7356   0.7566   0.3389     H
C       0.7368  0.77303  0.65873     C
C      0.73997  0.31354  0.60694     C
Cu     0.74017  0.29405  0.98504    Cu
C       0.7407  0.76938  0.78016     C
H       0.7429   0.2836   0.3686     H
C        0.744  0.28854  0.20562     C
C       0.7477  0.30461  0.68849     C
O      0.74963  0.28264  0.45004     O
C      0.74974  0.28365  0.07772     C
C         0.75  0.28986  0.76585     C
C         0.75  0.78986  0.26585     C
C      0.75026  0.78365  0.57772     C
O      0.75037  0.78264  0.95004     O
C       0.7523  0.80461  0.18849     C
C        0.756  0.78854  0.70562     C
H       0.7571   0.7836   0.8686     H
C       0.7593  0.26938  0.28016     C
Cu     0.75983  0.79405  0.48504    Cu
C      0.76003  0.81354  0.10694     C
C       0.7632  0.27303  0.15873     C
H       0.7644   0.2566   0.8389     H
Cu     0.76667  0.81813  0.01514    Cu
O      0.76754  0.25705  0.92021     O
C      0.76904  0.80152  0.62826     C
H       0.7707   0.3126   0.2937     H
C       0.7727  0.82039  0.23344     C
O      0.77319  0.26537  0.59442     O
C       0.7742  0.25081  0.35597     C
O      0.77641  0.81407  0.55266     O
O       0.7774  0.25551  0.23428     O
H        0.778   0.3183   0.7903     H
C       0.7793  0.83622  0.15764     C
H       0.7803   0.2722   0.6778     H
O      0.78051  0.84748  0.08094     O
C      0.78722  0.23689  0.43577     C
O      0.78844  0.68086  0.01997     O
O      0.78972  0.66683  0.49464     O
O       0.7903  0.23964  0.74848     O
O      0.79036   0.2378  0.06475     O
C       0.7911  0.23578  0.30854     C
C       0.7923  0.22146  0.82667     C
H       0.7926   0.7779   0.2811     H
H       0.7931    0.765   0.7822     H
H       0.7984   0.2429   0.1477     H
C       0.7988  0.20651  0.90602     C
Cu     0.80246  0.22112  0.52979    Cu
C      0.80331  0.21762  0.38463     C
C      0.80717  0.83214  0.72182     C
Cu     0.80749   0.1979  0.99884    Cu
C       0.8097  0.20545   0.7808     C
O      0.81401  0.20428  0.46043     O
C       0.8153  0.18636  0.85562     C
O      0.81695  0.17137  0.93148     O
C      0.81749  0.84734  0.64478     C
H       0.8208   0.8423   0.7537     H
C       0.8208   0.8697  0.25057     C
C       0.8262  0.88424  0.17311     C
H       0.8343   0.8809   0.2825     H
O      0.83503  0.33101  0.99586     O
C       0.8351  0.18879  0.29067     C
O      0.83559  0.34671  0.52142     O
H       0.8363   0.8695   0.6244     H
C      0.83883  0.86113  0.69088     C
C      0.84297  0.70864  0.01457     C
H       0.8437   0.9056   0.1518     H
C      0.84409  0.69242  0.48367     C
H        0.846    0.178   0.2583     H
O      0.84623  0.74453   0.4765     O
C      0.84775  0.90124  0.21955     C
C      0.84875  0.17045  0.36683     C
O      0.84928  0.76281  0.01266     O
C         0.85   0.1543  0.76142     C
C      0.85318  0.13426  0.83755     C
H       0.8632   0.1444   0.7294     H
C      0.86436  0.15627  0.31981     C
H       0.8671   0.5826   0.4917     H
H       0.8675   0.1095   0.8572     H
H       0.8678   0.5928   0.0111     H
H       0.8691   0.1479   0.3864     H
C      0.87066  0.11764  0.79031     C
C      0.88905  0.31775  0.52773     C
O      0.88967  0.26581  0.53647     O
C      0.89004  0.30084  0.99788     C
O      0.89284  0.24654  0.00022     O
C      0.89667  0.90618  0.70785     C
C      0.90235  0.94773  0.23619     C
C       0.9109  0.60204  0.48838     C
C        0.912  0.61183  0.00818     C
C      0.91218  0.65912  0.48179     C
C      0.91281  0.67242  0.00889     C
C        0.916  0.10507  0.29936     C
C       0.9163  0.06387  0.76982     C
H       0.9178    0.415    0.001     H
O       0.9179  0.93589  0.67984     O
H       0.9182   0.4242    0.516     H
O      0.91935  0.91164  0.74826     O
O      0.92249  0.97769   0.2078     O
O      0.92375  0.95564  0.27712     O
O       0.9324  0.09717  0.25752     O
O      0.93327  0.05547  0.72805     O
O      0.93343  0.03154    0.797     O
O      0.93679   0.0744  0.32646     O
H       0.9395   0.4981   0.9751     H
H       0.9413   0.5196   0.5263     H
H       0.9426   0.4906   0.4713     H
H       0.9467   0.5149   0.0304     H
C      0.95915  0.34644  0.52439     C
C      0.96068  0.33251   0.9976     C
C       0.9611  0.39277  0.99875     C
C       0.9613  0.40247  0.51664     C
C       0.9702   0.5157  0.49775     C
C        0.971  0.51783  0.00138     C
C      0.97263  0.57917  0.00344     C
C      0.97662  0.70023  0.00592     C
C       0.9768  0.57304     0.49     C
C       0.9768  0.68566  0.47434     C
H       0.9776   0.7246   0.4685     H
H       0.9779   0.7419   0.0063     H
Cu     0.99737  0.99259  0.69473    Cu
Cu     0.99966   0.9639  0.77595    Cu
