data_I
_chemical_name_common  '/home/zhangsd/repos/MofS-CGCNN/ML/data/TSD/clean_cifs/BIBXUH_clean'
_cell_length_a 17.94650
_cell_length_b 17.94650
_cell_length_c 17.94650
_cell_angle_alpha 60.00000
_cell_angle_beta  60.00000
_cell_angle_gamma 60.00000
_space_group_name_H-M_alt      'P 1'


loop_
_space_group_symop_operation_xyz
  'x, y, z' 

loop_
_atom_site_label
_atom_site_fract_x
_atom_site_fract_y
_atom_site_fract_z
_atom_site_type_symbol
C          0.0      0.0  0.34176     C
C          0.0      0.0  0.42254     C
C          0.0      0.0  0.57746     C
C          0.0      0.0  0.65824     C
C          0.0  0.34176     -0.0     C
C          0.0  0.34176  0.65824     C
C          0.0  0.42254     -0.0     C
C          0.0  0.42254  0.57746     C
C          0.0  0.57746     -0.0     C
C          0.0  0.57746  0.42254     C
C          0.0  0.65824     -0.0     C
C          0.0  0.65824  0.34176     C
N      0.02679  0.02679  0.19835     N
N      0.02679  0.02679  0.74807     N
N      0.02679  0.19835  0.02679     N
N      0.02679  0.19835  0.74807     N
N      0.02679  0.74807  0.02679     N
N      0.02679  0.74807  0.19835     N
C      0.04335  0.04335  0.25385     C
C      0.04335  0.04335  0.65945     C
C      0.04335  0.25385  0.04335     C
C      0.04335  0.25385  0.65945     C
C      0.04335  0.65945  0.04335     C
C      0.04335  0.65945  0.25385     C
C      0.04743  0.04743  0.41385     C
C      0.04743  0.04743  0.49129     C
C      0.04743  0.41385  0.04743     C
C      0.04743  0.41385  0.49129     C
C      0.04743  0.49129  0.04743     C
C      0.04743  0.49129  0.41385     C
Ni     0.05709  0.05709  0.05709    Ni
Ni     0.05709  0.05709  0.82873    Ni
Ni     0.05709  0.82873  0.05709    Ni
H      0.07895  0.07895  0.23461     H
H      0.07895  0.07895  0.60749     H
H      0.07895  0.23461  0.07895     H
H      0.07895  0.23461  0.60749     H
H      0.07895  0.60749  0.07895     H
H      0.07895  0.60749  0.23461     H
H      0.07985  0.07985  0.35495     H
H      0.07985  0.07985  0.48535     H
H      0.07985  0.35495  0.07985     H
H      0.07985  0.35495  0.48535     H
H      0.07985  0.48535  0.07985     H
H      0.07985  0.48535  0.35495     H
O      0.08693  0.08693  0.91307     O
O      0.08693  0.91307  0.08693     O
O      0.08693  0.91307  0.91307     O
H      0.12436  0.12436  0.87564     H
H      0.12436  0.87564  0.12436     H
H      0.12436  0.87564  0.87564     H
Ni     0.17127  0.94291  0.94291    Ni
N      0.19835  0.02679  0.02679     N
N      0.19835  0.02679  0.74807     N
N      0.19835  0.74807  0.02679     N
H      0.23461  0.07895  0.07895     H
H      0.23461  0.07895  0.60749     H
H      0.23461  0.60749  0.07895     H
N      0.25193  0.80165  0.97321     N
N      0.25193  0.97321  0.80165     N
N      0.25193  0.97321  0.97321     N
C      0.25385  0.04335  0.04335     C
C      0.25385  0.04335  0.65945     C
C      0.25385  0.65945  0.04335     C
C      0.34055  0.74615  0.95665     C
C      0.34055  0.95665  0.74615     C
C      0.34055  0.95665  0.95665     C
C      0.34176      0.0     -0.0     C
C      0.34176      0.0  0.65824     C
C      0.34176  0.65824      0.0     C
H      0.35495  0.07985  0.07985     H
H      0.35495  0.07985  0.48535     H
H      0.35495  0.48535  0.07985     H
H      0.39251  0.76539  0.92105     H
H      0.39251  0.92105  0.76539     H
H      0.39251  0.92105  0.92105     H
C      0.41385  0.04743  0.04743     C
C      0.41385  0.04743  0.49129     C
C      0.41385  0.49129  0.04743     C
C      0.42254      0.0     -0.0     C
C      0.42254  0.57746     -0.0     C
C      0.42254      1.0  0.57746     C
H      0.48535  0.07985  0.07985     H
H      0.48535  0.07985  0.35495     H
H      0.48535  0.35495  0.07985     H
C      0.49129  0.04743  0.04743     C
C      0.49129  0.04743  0.41385     C
C      0.49129  0.41385  0.04743     C
C      0.50871  0.58615  0.95257     C
C      0.50871  0.95257  0.58615     C
C      0.50871  0.95257  0.95257     C
H      0.51465  0.64505  0.92015     H
H      0.51465  0.92015  0.64505     H
H      0.51465  0.92015  0.92015     H
C      0.57746      0.0      0.0     C
C      0.57746      0.0  0.42254     C
C      0.57746  0.42254      0.0     C
C      0.58615  0.50871  0.95257     C
C      0.58615  0.95257  0.50871     C
C      0.58615  0.95257  0.95257     C
H      0.60749  0.07895  0.07895     H
H      0.60749  0.07895  0.23461     H
H      0.60749  0.23461  0.07895     H
H      0.64505  0.51465  0.92015     H
H      0.64505  0.92015  0.51465     H
H      0.64505  0.92015  0.92015     H
C      0.65824      0.0     -0.0     C
C      0.65824      0.0  0.34176     C
C      0.65824  0.34176      0.0     C
C      0.65945  0.04335  0.04335     C
C      0.65945  0.04335  0.25385     C
C      0.65945  0.25385  0.04335     C
C      0.74615  0.34055  0.95665     C
C      0.74615  0.95665  0.34055     C
C      0.74615  0.95665  0.95665     C
N      0.74807  0.02679  0.02679     N
N      0.74807  0.02679  0.19835     N
N      0.74807  0.19835  0.02679     N
H      0.76539  0.39251  0.92105     H
H      0.76539  0.92105  0.39251     H
H      0.76539  0.92105  0.92105     H
N      0.80165  0.25193  0.97321     N
N      0.80165  0.97321  0.25193     N
N      0.80165  0.97321  0.97321     N
Ni     0.82873  0.05709  0.05709    Ni
H      0.87564  0.12436  0.12436     H
H      0.87564  0.12436  0.87564     H
H      0.87564  0.87564  0.12436     H
O      0.91307  0.08693  0.08693     O
O      0.91307  0.08693  0.91307     O
O      0.91307  0.91307  0.08693     O
H      0.92015  0.51465  0.64505     H
H      0.92015  0.51465  0.92015     H
H      0.92015  0.64505  0.51465     H
H      0.92015  0.64505  0.92015     H
H      0.92015  0.92015  0.51465     H
H      0.92015  0.92015  0.64505     H
H      0.92105  0.39251  0.76539     H
H      0.92105  0.39251  0.92105     H
H      0.92105  0.76539  0.39251     H
H      0.92105  0.76539  0.92105     H
H      0.92105  0.92105  0.39251     H
H      0.92105  0.92105  0.76539     H
Ni     0.94291  0.17127  0.94291    Ni
Ni     0.94291  0.94291  0.17127    Ni
Ni     0.94291  0.94291  0.94291    Ni
C      0.95257  0.50871  0.58615     C
C      0.95257  0.50871  0.95257     C
C      0.95257  0.58615  0.50871     C
C      0.95257  0.58615  0.95257     C
C      0.95257  0.95257  0.50871     C
C      0.95257  0.95257  0.58615     C
C      0.95665  0.34055  0.74615     C
C      0.95665  0.34055  0.95665     C
C      0.95665  0.74615  0.34055     C
C      0.95665  0.74615  0.95665     C
C      0.95665  0.95665  0.34055     C
C      0.95665  0.95665  0.74615     C
N      0.97321  0.25193  0.80165     N
N      0.97321  0.25193  0.97321     N
N      0.97321  0.80165  0.25193     N
N      0.97321  0.80165  0.97321     N
N      0.97321  0.97321  0.25193     N
N      0.97321  0.97321  0.80165     N
