data_I
_chemical_name_common  '/home/zhangsd/repos/MofS-CGCNN/ML/data/TSD/clean_cifs/BIFKEI_clean'
_cell_length_a 12.28700
_cell_length_b 12.91600
_cell_length_c 18.19900
_cell_angle_alpha 86.73300
_cell_angle_beta  70.44300
_cell_angle_gamma 80.14600
_space_group_name_H-M_alt      'P 1'


loop_
_space_group_symop_operation_xyz
  'x, y, z' 

loop_
_atom_site_label
_atom_site_fract_x
_atom_site_fract_y
_atom_site_fract_z
_atom_site_type_symbol
C        0.002    0.891   0.0684     C
Cl       0.007   0.9006   0.6178    Cl
C        0.018   0.6422   0.4769     C
C       0.0365   0.9664   0.0187     C
C       0.0461   0.5336   0.4812     C
H       0.0553   0.9698   0.2352     H
H       0.0562   0.3234   0.9652     H
H       0.0593   0.3251   0.5017     H
C        0.064   0.4763   0.9775     C
H       0.0656   0.7598   0.1195     H
H       0.0751   0.1207   0.9169     H
C       0.0823    0.826      0.1     C
H       0.0865   0.7746    0.438     H
C       0.0912   0.0005   0.3364     C
C          0.1   0.9488   0.2674     C
C       0.1053    0.702   0.4408     C
C       0.1069   0.3723   0.9544     C
H       0.1111    0.619   0.9768     H
C       0.1398   0.5495   0.9613     C
C       0.1461    0.993   0.0176     C
C       0.1616   0.4848   0.4492     C
N       0.1738   0.8528   0.1025     N
C       0.1749   0.9431   0.3678     C
H       0.1777   0.0474   0.9863     H
H       0.1804   0.4121    0.452     H
H       0.1878   0.9596    0.413     H
N       0.1892   0.8595   0.2561     N
C       0.2048    0.934   0.0662     C
N       0.2208   0.6531   0.4089     N
C       0.2256   0.3415   0.9151     C
N       0.2354   0.8559   0.3181     N
C       0.2489   0.5445   0.4131     C
H       0.2543   0.2719   0.8997     H
C       0.2585   0.5186    0.922     C
H       0.2697   0.9571    0.071     H
Cu     0.27572  0.77738  0.16254    Cu
H       0.2925   0.5122   0.7665     H
H       0.2946   0.7979   0.5062     H
Cl      0.2994   0.5583   0.5957    Cl
N       0.3014   0.4146    0.899     N
H       0.3057   0.7318   0.9794     H
H       0.3092   0.5675   0.9112     H
H        0.326     0.62    0.237     H
H       0.3262   0.5118   0.3917     H
C       0.3517   0.8382   0.4797     C
Cu     0.35559  0.74572  0.32479    Cu
C       0.3581   0.4807    0.727     C
H       0.3588   0.9059   0.5752     H
O       0.3643   0.6823    0.223     O
C       0.3695   0.7028   0.9946     C
H       0.3737   0.4212   0.0258     H
C       0.3753    0.496   0.6433     C
N       0.3763   0.7061   0.0707     N
C       0.3902   0.9029   0.5211     C
N       0.3986   0.8338   0.3988     N
H       0.4205   0.0011   0.6258     H
N       0.4446   0.4181   0.7397     N
C       0.4494   0.3837   0.0083     C
Cu      0.4707  0.36855  0.83854    Cu
C        0.472    0.415   0.6139     C
C       0.4755   0.9631   0.4815     C
C       0.4772   0.6473   0.9457     C
C       0.4776   0.0414   0.5993     C
C       0.4839    0.894   0.3593     C
H       0.4847    0.109   0.6948     H
N       0.4876   0.6408   0.3235     N
N       0.4883   0.6526   0.0689     N
Cl       0.489   0.3685   0.1508    Cl
H       0.4927   0.6011   0.4387     H
H       0.5073   0.3989   0.5613     H
Cl       0.511   0.6315   0.8492    Cl
N       0.5117   0.3474   0.9311     N
N       0.5124   0.3592   0.6765     N
H       0.5153    0.891   0.3052     H
C       0.5161    0.106   0.6407     C
C       0.5224   0.9586   0.4007     C
C       0.5228   0.3527   0.0543     C
C       0.5245   0.0369   0.5185     C
C        0.528    0.585   0.3861     C
Cu      0.5293  0.63145  0.16146    Cu
C       0.5506   0.6163   0.9917     C
N       0.5554   0.5819   0.2603     N
H       0.5795   0.9989   0.3742     H
N       0.6014   0.1662   0.6012     N
C       0.6098   0.0971   0.4789     C
N       0.6237   0.2939   0.9293     N
C       0.6247    0.504   0.3567     C
H       0.6263   0.5788   0.9742     H
C       0.6305   0.2972   0.0054     C
O       0.6357   0.3177    0.777     O
H       0.6412   0.0941   0.4248     H
C       0.6419   0.5193    0.273     C
Cu     0.64441  0.25428  0.67521    Cu
C       0.6483   0.1618   0.5203     C
H       0.6738   0.4882   0.6083     H
H        0.674     0.38    0.763     H
H       0.6908   0.4325   0.0888     H
H       0.6943   0.2682   0.0206     H
N       0.6986   0.5854    0.101     N
Cl      0.7006   0.4417   0.4043    Cl
H       0.7054   0.2021   0.4938     H
H       0.7075   0.4878   0.2335     H
Cu     0.72428  0.22262  0.83746    Cu
H       0.7303   0.0429    0.929     H
C       0.7415   0.4814    0.078     C
H       0.7457   0.7281   0.1003     H
C       0.7511   0.4555   0.5869     C
N       0.7646   0.1441   0.6819     N
C       0.7744   0.6585   0.0849     C
N       0.7792   0.3469   0.5911     N
C       0.7952    0.066   0.9338     C
N       0.8108   0.1405   0.7439     N
H       0.8122   0.0404    0.587     H
H       0.8196   0.5879    0.548     H
H       0.8223   0.9526   0.0137     H
C       0.8251   0.0569   0.6322     C
N       0.8262   0.1472   0.8975     N
C       0.8384   0.5152   0.5508     C
C       0.8539    0.007   0.9824     C
C       0.8602   0.4505   0.0387     C
H       0.8889    0.381   0.0232     H
C       0.8931   0.6277   0.0456     C
C       0.8947    0.298   0.5592     C
C          0.9   0.0512   0.7326     C
C       0.9088   0.9995   0.6636     C
H       0.9135   0.2254    0.562     H
C       0.9177    0.174      0.9     C
H       0.9249   0.8793   0.0831     H
H       0.9344   0.2402   0.8805     H
C        0.936   0.5237   0.0225     C
H       0.9407   0.6749   0.4983     H
H       0.9438   0.6766   0.0348     H
H       0.9447   0.0302   0.7648     H
C       0.9539   0.4664   0.5188     C
C       0.9635   0.0336   0.9813     C
C        0.982   0.3578   0.5231     C
Cl       0.993   0.0994   0.3822    Cl
C        0.998    0.109   0.9316     C
