data_I
_chemical_name_common  '/home/zhangsd/repos/MofS-CGCNN/ML/data/TSD/clean_cifs/BIHMUC_clean'
_cell_length_a 10.04060
_cell_length_b 11.21420
_cell_length_c 14.31000
_cell_angle_alpha 87.45400
_cell_angle_beta  84.29600
_cell_angle_gamma 68.86700
_space_group_name_H-M_alt      'P 1'


loop_
_space_group_symop_operation_xyz
  'x, y, z' 

loop_
_atom_site_label
_atom_site_fract_x
_atom_site_fract_y
_atom_site_fract_z
_atom_site_type_symbol
C       0.0142   0.6269   0.2979     C
O       0.0145   0.8817   0.6471     O
C       0.0153   0.8386   0.2925     C
H       0.0486   0.5437   0.2753     H
H       0.0521   0.8984   0.2651     H
C       0.0672   0.7161   0.2581     C
H        0.082   0.2419   0.2361     H
N       0.0857   0.1258   0.6363     N
C        0.091   0.3376   0.6283     C
O       0.0929   0.4043    0.117     O
H       0.0955   0.2129   0.9779     H
C       0.1093   0.0832   0.3814     C
H        0.129   0.4947   0.6222     H
H        0.138    0.694   0.2082     H
C       0.1384   0.2141    0.598     C
H       0.1466   0.6624   0.5838     H
N       0.1467   0.4288   0.5879     N
O       0.1473   0.0072   0.4481     O
N       0.1545   0.3461   0.9154     N
C       0.1608   0.2271   0.9321     C
Co     0.17127  0.93609  0.57983    Co
C       0.1733   0.2198    0.256     C
H       0.2103   0.1896   0.5488     H
C       0.2135   0.1349    0.331     C
C       0.2149   0.6535   0.5331     C
C       0.2171    0.431   0.5113     C
C        0.223    0.367   0.1309     C
H       0.2434   0.4488   0.8371     H
C       0.2485   0.3654   0.8504     C
N       0.2571   0.7522   0.5102     N
H       0.2589   0.0413   0.8963     H
C       0.2602   0.1231   0.8846     C
C        0.268   0.5382    0.485     C
C       0.2707   0.2724   0.2102     C
O         0.31   0.8496   0.6977     O
O       0.3155   0.4006   0.0835     O
O       0.3434   0.3097   0.5074     O
C       0.3515   0.1027   0.3599     C
C       0.3546   0.2659   0.8012     C
C       0.3557   0.7373   0.4357     C
C       0.3611   0.1429   0.8196     C
O       0.3654   0.4922   0.7045     O
C       0.3704   0.5264   0.4083     C
H       0.3787    0.047   0.4105     H
O       0.3811   0.9401   0.5746     O
H       0.3857   0.8053   0.4186     H
C       0.4065   0.8807   0.6511     C
C       0.4074   0.2368   0.2388     C
H       0.4082   0.4509   0.3743     H
C        0.414    0.627   0.3838     C
H       0.4321   0.0744   0.7889     H
C       0.4477   0.1527   0.3142     C
N       0.4595   0.2843   0.7335     N
C       0.4688   0.3875   0.6938     C
H       0.4715   0.7849   0.2841     H
H       0.4728   0.2694   0.2075     H
H       0.5272   0.7306   0.7925     H
H       0.5285   0.2151   0.7159     H
C       0.5312   0.6125   0.3062     C
N       0.5405   0.7157   0.2665     N
C       0.5523   0.8473   0.6858     C
H       0.5679   0.9256   0.2111     H
C        0.586    0.373   0.6162     C
H       0.5918   0.5491   0.6257     H
C       0.5926   0.7632   0.7612     C
C       0.5935   0.1193   0.3489     C
H       0.6143   0.1947   0.5814     H
O       0.6189   0.0599   0.4254     O
H       0.6213    0.953   0.5895     H
C       0.6296   0.4736   0.5917     C
O       0.6346   0.5078   0.2955     O
C       0.6389   0.8571   0.1804     C
C       0.6443   0.2627   0.5643     C
C       0.6454   0.7341   0.1988     C
C       0.6485   0.8973   0.6401     C
O       0.6566   0.6903   0.4926     O
O       0.6845   0.5994   0.9165     O
O         0.69   0.1504   0.3023     O
C       0.7293   0.7276   0.7898     C
C        0.732   0.4618    0.515     C
C       0.7398   0.8769   0.1154     C
H       0.7411   0.9587   0.1037     H
N       0.7429   0.2478   0.4898     N
C       0.7515   0.6346   0.1496     C
H       0.7566   0.5512   0.1629     H
C        0.777    0.633   0.8691     C
C       0.7829    0.569   0.4887     C
C       0.7851   0.3465   0.4669     C
C       0.7865   0.8651    0.669     C
H       0.7897   0.8104   0.4512     H
C       0.8267   0.7802    0.744     C
Co     0.82873  0.06391  0.42017    Co
C       0.8392   0.7729   0.0679     C
N       0.8455   0.6539   0.0846     N
O       0.8527   0.9928   0.5519     O
N       0.8533   0.5712   0.4121     N
H       0.8534   0.3376   0.4162     H
C       0.8616   0.7859    0.402     C
H        0.862    0.306   0.7918     H
H        0.871   0.5053   0.3778     H
C       0.8907   0.9168   0.6186     C
H       0.9045   0.7871   0.0221     H
O       0.9071   0.5957    0.883     O
C        0.909   0.6624   0.3717     C
N       0.9143   0.8742   0.3637     N
H        0.918   0.7581   0.7639     H
C       0.9328   0.2839   0.7419     C
H       0.9479   0.1016   0.7349     H
H       0.9514   0.4563   0.7247     H
C       0.9847   0.1614   0.7075     C
O       0.9855   0.1183   0.3529     O
C       0.9858   0.3731   0.7021     C
Co         1.0      0.5      1.0    Co
