data_I
_chemical_name_common  '/home/zhangsd/repos/MofS-CGCNN/ML/data/TSD/clean_cifs/BIXYEO_clean'
_cell_length_a 13.15540
_cell_length_b 13.70140
_cell_length_c 22.72730
_cell_angle_alpha 100.36600
_cell_angle_beta  90.00000
_cell_angle_gamma 90.00000
_space_group_name_H-M_alt      'P 1'


loop_
_space_group_symop_operation_xyz
  'x, y, z' 

loop_
_atom_site_label
_atom_site_fract_x
_atom_site_fract_y
_atom_site_fract_z
_atom_site_type_symbol
Si         0.0      0.5      0.0    Si
C       0.0001   0.4651   0.2971     C
W      0.01195  0.76181  0.02395     W
C       0.0181   0.9629   0.2877     C
O        0.027    0.395   0.9534     O
O       0.0282   0.5514   0.3113     O
O        0.035    0.596    0.972     O
O       0.0415   0.5048   0.1576     O
O        0.046    0.269   0.0525     O
O       0.0473   0.0517   0.2949     O
W      0.04855  0.37065  0.11991     W
O       0.0507   0.3905   0.3052     O
W      0.05863  0.63208  0.14215     W
O        0.064   0.7448   0.1014     O
O       0.0663   0.8922    0.301     O
O         0.07   0.4948   0.0605     O
O       0.0704   0.3113   0.1772     O
O       0.0778    0.783   0.7518     O
O        0.082   0.3565   0.8578     O
O       0.0822   0.2655   0.7061     O
C       0.0857   0.0564   0.7418     C
O       0.0877   0.6992   0.2111     O
O       0.0938   0.6268   0.8833     O
Ce     0.10085  0.21878  0.27619    Ce
Ce     0.10101  0.72393  0.32147    Ce
H       0.1044   0.9275   0.7659     H
C       0.1047   0.5543   0.7298     C
O       0.1144   0.4976   0.9808     O
O        0.123    0.247   0.9432     O
N       0.1304   0.9847   0.7646     N
O        0.142   0.7284   0.9871     O
H       0.1445   0.4085   0.7209     H
C       0.1539   0.1329   0.7475     C
C       0.1569   0.2304   0.7288     C
C       0.1609    0.741   0.7657     C
N       0.1621   0.4691   0.7335     N
C       0.1656    0.632    0.753     C
O        0.183    0.396   0.0976     O
O        0.184    0.594   0.1086     O
W      0.18921  0.35508  0.91311     W
W      0.19902  0.61763  0.93764     W
H       0.2007   0.4573   0.2686     H
O       0.2012   0.6682   0.4052     O
O       0.2186    0.484   0.9018     O
O       0.2199   0.2891   0.3694     O
C       0.2211   0.0151   0.7851     C
O       0.2323    0.791   0.7896     O
H       0.2339   0.9772   0.3031     H
O        0.235   0.5853   0.5055     O
N         0.24   0.1077   0.7766     N
O       0.2405   0.2763   0.7362     O
N       0.2434   0.5964   0.2732     N
O        0.244   0.3884   0.4876     O
W      0.24799     0.49  0.05738     W
C       0.2488   0.5001   0.7601     C
C       0.2512   0.5001   0.2601     C
W      0.25201     0.49  0.55738     W
O        0.256   0.3884   0.9876     O
N       0.2566   0.5964   0.7732     N
O       0.2595   0.2763   0.2362     O
N         0.26   0.1077   0.2766     N
O        0.265   0.5853   0.0055     O
H       0.2661   0.9772   0.8031     H
O       0.2677    0.791   0.2896     O
C       0.2789   0.0151   0.2851     C
O       0.2801   0.2891   0.8694     O
O       0.2814    0.484   0.4018     O
O       0.2988   0.6682   0.9052     O
H       0.2993   0.4573   0.7686     H
W      0.30098  0.61763  0.43764     W
W      0.31079  0.35508  0.41311     W
O        0.316    0.594   0.6086     O
O        0.317    0.396   0.5976     O
C       0.3344    0.632    0.253     C
N       0.3379   0.4691   0.2335     N
C       0.3391    0.741   0.2657     C
C       0.3431   0.2304   0.2288     C
C       0.3461   0.1329   0.2475     C
H       0.3555   0.4085   0.2209     H
O        0.358   0.7284   0.4871     O
N       0.3696   0.9847   0.2646     N
O        0.377    0.247   0.4432     O
O       0.3856   0.4976   0.4808     O
C       0.3953   0.5543   0.2298     C
H       0.3956   0.9275   0.2659     H
Ce     0.39899  0.72393  0.82147    Ce
Ce     0.39915  0.21878  0.77619    Ce
O       0.4062   0.6268   0.3833     O
O       0.4123   0.6992   0.7111     O
C       0.4143   0.0564   0.2418     C
O       0.4178   0.2655   0.2061     O
O        0.418   0.3565   0.3578     O
O       0.4222    0.783   0.2518     O
O       0.4296   0.3113   0.6772     O
O         0.43   0.4948   0.5605     O
O       0.4337   0.8922    0.801     O
O        0.436   0.7448   0.6014     O
W      0.44137  0.63208  0.64215     W
O       0.4493   0.3905   0.8052     O
W      0.45145  0.37065  0.61991     W
O       0.4527   0.0517   0.7949     O
O        0.454    0.269   0.5525     O
O       0.4585   0.5048   0.6576     O
O        0.465    0.596    0.472     O
O       0.4718   0.5514   0.8113     O
O        0.473    0.395   0.4534     O
C       0.4819   0.9629   0.7877     C
W      0.48805  0.76181  0.52395     W
C       0.4999   0.4651   0.7971     C
Si         0.5      0.5      0.5    Si
C       0.5001   0.5349   0.2029     C
W      0.51195  0.23819  0.47605     W
C       0.5181   0.0371   0.2123     C
O        0.527    0.605   0.5466     O
O       0.5282   0.4486   0.1887     O
O        0.535    0.404    0.528     O
O       0.5415   0.4952   0.3424     O
O        0.546    0.731   0.4475     O
O       0.5473   0.9483   0.2051     O
W      0.54855  0.62935  0.38009     W
O       0.5507   0.6095   0.1948     O
W      0.55863  0.36792  0.35785     W
O        0.564   0.2552   0.3986     O
O       0.5663   0.1078    0.199     O
O         0.57   0.5052   0.4395     O
O       0.5704   0.6887   0.3228     O
O       0.5778    0.217   0.7482     O
O        0.582   0.6435   0.6422     O
O       0.5822   0.7345   0.7939     O
C       0.5857   0.9436   0.7582     C
O       0.5877   0.3008   0.2889     O
O       0.5938   0.3732   0.6167     O
Ce     0.60085  0.78122  0.22381    Ce
Ce     0.60101  0.27607  0.17853    Ce
H       0.6044   0.0725   0.7341     H
C       0.6047   0.4457   0.7702     C
O       0.6144   0.5024   0.5192     O
O        0.623    0.753   0.5568     O
N       0.6304   0.0153   0.7354     N
O        0.642   0.2716   0.5129     O
H       0.6445   0.5915   0.7791     H
C       0.6539   0.8671   0.7525     C
C       0.6569   0.7696   0.7712     C
C       0.6609    0.259   0.7343     C
N       0.6621   0.5309   0.7665     N
C       0.6656    0.368    0.747     C
O        0.683    0.604   0.4024     O
O        0.684    0.406   0.3914     O
W      0.68921  0.64492  0.58689     W
W      0.69902  0.38237  0.56236     W
H       0.7007   0.5427   0.2314     H
O       0.7012   0.3318   0.0948     O
O       0.7186    0.516   0.5982     O
O       0.7199   0.7109   0.1306     O
C       0.7211   0.9849   0.7149     C
O       0.7323    0.209   0.7104     O
H       0.7339   0.0228   0.1969     H
O        0.735   0.4147   0.9945     O
N         0.74   0.8923   0.7234     N
O       0.7405   0.7237   0.7638     O
N       0.7434   0.4036   0.2268     N
O        0.744   0.6116   0.0124     O
W      0.74799     0.51  0.44262     W
C       0.7488   0.4999   0.7399     C
C       0.7512   0.4999   0.2399     C
W      0.75201     0.51  0.94262     W
O        0.756   0.6116   0.5124     O
N       0.7566   0.4036   0.7268     N
O       0.7595   0.7237   0.2638     O
N         0.76   0.8923   0.2234     N
O        0.765   0.4147   0.4945     O
H       0.7661   0.0228   0.6969     H
O       0.7677    0.209   0.2104     O
C       0.7789   0.9849   0.2149     C
O       0.7801   0.7109   0.6306     O
O       0.7814    0.516   0.0982     O
O       0.7988   0.3318   0.5948     O
H       0.7993   0.5427   0.7314     H
W      0.80098  0.38237  0.06236     W
W      0.81079  0.64492  0.08689     W
O        0.816    0.406   0.8914     O
O        0.817    0.604   0.9024     O
C       0.8344    0.368    0.247     C
N       0.8379   0.5309   0.2665     N
C       0.8391    0.259   0.2343     C
C       0.8431   0.7696   0.2712     C
C       0.8461   0.8671   0.2525     C
H       0.8555   0.5915   0.2791     H
O        0.858   0.2716   0.0129     O
N       0.8696   0.0153   0.2354     N
O        0.877    0.753   0.0568     O
O       0.8856   0.5024   0.0192     O
C       0.8953   0.4457   0.2702     C
H       0.8956   0.0725   0.2341     H
Ce     0.89899  0.27607  0.67853    Ce
Ce     0.89915  0.78122  0.72381    Ce
O       0.9062   0.3732   0.1167     O
O       0.9123   0.3008   0.7889     O
C       0.9143   0.9436   0.2582     C
O       0.9178   0.7345   0.2939     O
O        0.918   0.6435   0.1422     O
O       0.9222    0.217   0.2482     O
O       0.9296   0.6887   0.8228     O
O         0.93   0.5052   0.9395     O
O       0.9337   0.1078    0.699     O
O        0.936   0.2552   0.8986     O
W      0.94137  0.36792  0.85785     W
O       0.9493   0.6095   0.6948     O
W      0.95145  0.62935  0.88009     W
O       0.9527   0.9483   0.7051     O
O        0.954    0.731   0.9475     O
O       0.9585   0.4952   0.8424     O
O        0.965    0.404    0.028     O
O       0.9718   0.4486   0.6887     O
O        0.973    0.605   0.0466     O
C       0.9819   0.0371   0.7123     C
W      0.98805  0.23819  0.97605     W
C       0.9999   0.5349   0.7029     C
