data_I
_chemical_name_common  '/home/zhangsd/repos/MofS-CGCNN/ML/data/TSD/clean_cifs/BONNIC_clean'
_cell_length_a 10.42970
_cell_length_b 11.21900
_cell_length_c 11.21900
_cell_angle_alpha 98.50860
_cell_angle_beta  109.59200
_cell_angle_gamma 109.59200
_space_group_name_H-M_alt      'P 1'


loop_
_space_group_symop_operation_xyz
  'x, y, z' 

loop_
_atom_site_label
_atom_site_fract_x
_atom_site_fract_y
_atom_site_fract_z
_atom_site_type_symbol
H        0.003   0.1265   0.6379     H
C       0.0342  0.85507  0.36813     C
C       0.0653  0.81145  0.74815     C
N       0.0696  0.81307  0.86933     N
H       0.0908   0.5117   0.6795     H
O      0.09487   0.9399   0.1707     O
C       0.1103  0.44805  0.62475     C
H       0.1116   0.5426   0.4784     H
H       0.1293   0.2097   0.0401     H
H        0.148   0.8741   0.7409     H
O      0.15521  0.93152  0.46324     O
H        0.178   0.4061   0.9843     H
H       0.1818   0.4214   0.6856     H
C       0.1831  0.51816  0.54204     C
C        0.205  0.23885  0.00865     C
H       0.2096   0.4576   0.4912     H
C       0.2321  0.35484  0.97456     C
H       0.2345   0.8229   0.2805     H
H       0.2479   0.7768   0.5676     H
Cd     0.25094  0.97483  0.06675    Cd
N       0.2812  0.16534  0.99922     N
C       0.2881   0.7834   0.2474     C
H       0.2992   0.6688   0.3706     H
C       0.3217  0.64076  0.63084     C
N       0.3219  0.81866   0.1487     N
C        0.328  0.69239  0.30261     C
C       0.3285  0.76659  0.63001     C
C         0.34  0.39499  0.92573     C
H       0.3598   0.4744   0.9008     H
H       0.3883    0.488    0.352     H
C       0.3891  0.20577  0.95439     C
C       0.3972  0.76201  0.10439     C
C       0.4091  0.63539  0.26029     C
H       0.4189   0.7835   0.0325     H
C       0.4199  0.31942  0.91286     C
O      0.43883   0.0182  0.99068     O
C       0.4456  0.67294  0.15846     C
C       0.4465  0.63368  0.72312     C
H       0.4492   0.5501   0.7247     H
C        0.453  0.87654  0.72026     C
H       0.4564   0.9616   0.7166     H
C       0.4641  0.54373  0.32587     C
C       0.4798  0.12346   0.9614     C
H       0.4804   0.4847   0.2631     H
O       0.4939  0.31668  0.73484     O
H        0.503   0.6379   0.1265     H
C       0.5342  0.36813  0.85507     C
C       0.5653  0.74815  0.81145     C
N       0.5696  0.86933  0.81307     N
H       0.5908   0.6795   0.5117     H
O      0.59487   0.1707   0.9399     O
C       0.6103  0.62475  0.44805     C
H       0.6116   0.4784   0.5426     H
H       0.6293   0.0401   0.2097     H
H        0.648   0.7409   0.8741     H
O      0.65521  0.46324  0.93152     O
H        0.678   0.9843   0.4061     H
H       0.6818   0.6856   0.4214     H
C       0.6831  0.54204  0.51816     C
C        0.705  0.00865  0.23885     C
H       0.7096   0.4912   0.4576     H
C       0.7321  0.97456  0.35484     C
H       0.7345   0.2805   0.8229     H
H       0.7479   0.5676   0.7768     H
Cd     0.75094  0.06675  0.97483    Cd
N       0.7812  0.99922  0.16534     N
C       0.7881   0.2474   0.7834     C
H       0.7992   0.3706   0.6688     H
C       0.8217  0.63084  0.64076     C
N       0.8219   0.1487  0.81866     N
C        0.828  0.30261  0.69239     C
C       0.8285  0.63001  0.76659     C
C         0.84  0.92573  0.39499     C
H       0.8598   0.9008   0.4744     H
H       0.8883    0.352    0.488     H
C       0.8891  0.95439  0.20577     C
C       0.8972  0.10439  0.76201     C
C       0.9091  0.26029  0.63539     C
H       0.9189   0.0325   0.7835     H
C       0.9199  0.91286  0.31942     C
O      0.93883  0.99068   0.0182     O
C       0.9456  0.15846  0.67294     C
C       0.9465  0.72312  0.63368     C
H       0.9492   0.7247   0.5501     H
C        0.953  0.72026  0.87654     C
H       0.9564   0.7166   0.9616     H
C       0.9641  0.32587  0.54373     C
C       0.9798   0.9614  0.12346     C
H       0.9804   0.2631   0.4847     H
O       0.9939  0.73484  0.31668     O
