data_I
_chemical_name_common  '/home/zhangsd/repos/MofS-CGCNN/ML/data/TSD/clean_cifs/BOPHEV_clean'
_cell_length_a 13.56670
_cell_length_b  9.56660
_cell_length_c 23.14320
_cell_angle_alpha 90.00000
_cell_angle_beta  122.67200
_cell_angle_gamma 90.00000
_space_group_name_H-M_alt      'P 1'


loop_
_space_group_symop_operation_xyz
  'x, y, z' 

loop_
_atom_site_label
_atom_site_fract_x
_atom_site_fract_y
_atom_site_fract_z
_atom_site_type_symbol
O       0.0268   0.6606   0.6886     O
O       0.0268   0.8394   0.1886     O
H       0.0298   0.0919   0.0582     H
H       0.0298   0.4081   0.5582     H
C       0.0404   0.5934    0.648     C
C       0.0404   0.9066    0.148     C
C       0.0438   0.5829   0.4482     C
C       0.0438   0.9171   0.9482     C
C       0.0608   0.0103   0.9082     C
C       0.0608   0.4897   0.4082     C
H       0.0659   0.1945   0.4659     H
H       0.0659   0.3055   0.9659     H
H       0.0736   0.0834   0.5565     H
H       0.0736   0.4166   0.0565     H
H       0.1247   0.7236   0.5242     H
H       0.1247   0.7764   0.0242     H
C       0.1311   0.1412   0.4962     C
C       0.1311   0.3588   0.9962     C
C       0.1359   0.0753   0.5505     C
C       0.1359   0.4247   0.0505     C
C       0.1363   0.6616   0.4975     C
C       0.1363   0.8384   0.9975     C
O       0.1367   0.5895   0.6514     O
O       0.1367   0.9105   0.1514     O
O       0.1509   0.5676   0.1606     O
O       0.1509   0.9324   0.6606     O
C       0.1699   0.0214    0.919     C
C       0.1699   0.4786    0.419     C
H        0.181   0.0837   0.8922     H
H        0.181   0.4163   0.3922     H
H       0.2187   0.1725   0.4493     H
H       0.2187   0.3275   0.9493     H
C       0.2232   0.1284   0.4865     C
C       0.2232   0.3716   0.9865     C
Cd     0.22679  0.74926  0.24412    Cd
Cd     0.22679  0.75074  0.74412    Cd
C       0.2335   0.5034   0.0964     C
C       0.2335   0.9966   0.5964     C
C       0.2367   0.5814   0.1545     C
C       0.2367   0.9186   0.6545     C
O       0.2461   0.6346   0.3359     O
C       0.2461     0.65   0.5077     C
C       0.2461     0.85   0.0077     C
O       0.2461   0.8654   0.8359     O
C        0.266   0.5571   0.4689     C
C        0.266   0.9429   0.9689     C
H       0.3059   0.5427    0.922     H
H       0.3059   0.9573    0.422     H
H       0.3072   0.7048   0.5409     H
H       0.3072   0.7952   0.0409     H
C       0.3137   0.5322    0.354     C
C       0.3137   0.9678    0.854     C
O       0.3145   0.0565   0.8144     O
O       0.3145   0.4435   0.3144     O
O       0.3192   0.5738   0.8171     O
O       0.3192   0.9262   0.3171     O
O       0.3213   0.6586   0.1923     O
O       0.3213   0.8414   0.6923     O
C       0.3222   0.0504   0.5318     C
C       0.3222   0.4496   0.0318     C
C       0.3263   0.5152   0.0869     C
C       0.3263   0.9848   0.5869     C
C       0.3848   0.5256    0.954     C
C       0.3848   0.9744    0.454     C
C       0.3853   0.5315    0.483     C
C       0.3853   0.9685    0.983     C
H       0.3918   0.5676   0.1176     H
H       0.3918   0.9324   0.6176     H
C       0.4061   0.5124   0.4308     C
C       0.4061   0.9876   0.9308     C
C       0.4162   0.0279   0.5176     C
C       0.4162   0.4721   0.0176     C
C       0.4179   0.6212   0.8658     C
C       0.4179   0.8788   0.3658     C
C       0.4657   0.5556    0.935     C
C       0.4657   0.9444    0.435     C
H        0.466   0.5395    0.586     H
H        0.466   0.9605    0.086     H
O       0.4717   0.7196   0.8593     O
O       0.4717   0.7804   0.3593     O
C       0.4793   0.5223   0.5512     C
C       0.4793   0.9777   0.0512     C
C       0.5207   0.0223   0.9488     C
C       0.5207   0.4777   0.4488     C
O       0.5283   0.2196   0.6407     O
O       0.5283   0.2804   0.1407     O
H        0.534   0.0395    0.914     H
H        0.534   0.4605    0.414     H
C       0.5343   0.0556    0.565     C
C       0.5343   0.4444    0.065     C
C       0.5821   0.1212   0.6342     C
C       0.5821   0.3788   0.1342     C
C       0.5838   0.5279   0.9824     C
C       0.5838   0.9721   0.4824     C
C       0.5939   0.0124   0.0692     C
C       0.5939   0.4876   0.5692     C
H       0.6082   0.0676   0.3824     H
H       0.6082   0.4324   0.8824     H
C       0.6147   0.0315    0.017     C
C       0.6147   0.4685    0.517     C
C       0.6152   0.0256    0.546     C
C       0.6152   0.4744    0.046     C
C       0.6737   0.0152   0.4131     C
C       0.6737   0.4848   0.9131     C
C       0.6778   0.5504   0.9682     C
C       0.6778   0.9496   0.4682     C
O       0.6787   0.1586   0.3077     O
O       0.6787   0.3414   0.8077     O
O       0.6808   0.0738   0.6829     O
O       0.6808   0.4262   0.1829     O
O       0.6855   0.5565   0.6856     O
O       0.6855   0.9435   0.1856     O
C       0.6863   0.0322    0.146     C
C       0.6863   0.4678    0.646     C
H       0.6928   0.2048   0.9591     H
H       0.6928   0.2952   0.4591     H
H       0.6941   0.0427    0.578     H
H       0.6941   0.4573    0.078     H
C        0.734   0.0571   0.0311     C
C        0.734   0.4429   0.5311     C
O       0.7539   0.1346   0.1641     O
C       0.7539     0.15   0.9923     C
C       0.7539     0.35   0.4923     C
O       0.7539   0.3654   0.6641     O
C       0.7633   0.0814   0.3455     C
C       0.7633   0.4186   0.8455     C
C       0.7665   0.0034   0.4036     C
C       0.7665   0.4966   0.9036     C
Cd     0.77321  0.24926  0.25588    Cd
Cd     0.77321  0.25074  0.75588    Cd
C       0.7768   0.6284   0.0135     C
C       0.7768   0.8716   0.5135     C
H       0.7813   0.6725   0.0507     H
H       0.7813   0.8275   0.5507     H
H        0.819   0.5837   0.6078     H
H        0.819   0.9163   0.1078     H
C       0.8301   0.5214    0.581     C
C       0.8301   0.9786    0.081     C
O       0.8491   0.0676   0.3394     O
O       0.8491   0.4324   0.8394     O
O       0.8633   0.0895   0.8486     O
O       0.8633   0.4105   0.3486     O
C       0.8637   0.1616   0.0025     C
C       0.8637   0.3384   0.5025     C
C       0.8641   0.5753   0.9495     C
C       0.8641   0.9247   0.4495     C
C       0.8689   0.6412   0.0038     C
C       0.8689   0.8588   0.5038     C
H       0.8753   0.2236   0.9758     H
H       0.8753   0.2764   0.4758     H
H       0.9264   0.5834   0.9435     H
H       0.9264   0.9166   0.4435     H
H       0.9341   0.6945   0.0341     H
H       0.9341   0.8055   0.5341     H
C       0.9392   0.5103   0.5918     C
C       0.9392   0.9897   0.0918     C
C       0.9562   0.0829   0.0518     C
C       0.9562   0.4171   0.5518     C
C       0.9596   0.0934    0.852     C
C       0.9596   0.4066    0.352     C
H       0.9702   0.5919   0.4418     H
H       0.9702   0.9081   0.9418     H
O       0.9732   0.1606   0.8114     O
O       0.9732   0.3394   0.3114     O
