data_I
_chemical_name_common  '/home/zhangsd/repos/MofS-CGCNN/ML/data/TSD/clean_cifs/BOVHEB_clean'
_cell_length_a  8.38600
_cell_length_b 17.19900
_cell_length_c 25.13200
_cell_angle_alpha 90.00000
_cell_angle_beta  94.18200
_cell_angle_gamma 90.00000
_space_group_name_H-M_alt      'P 1'


loop_
_space_group_symop_operation_xyz
  'x, y, z' 

loop_
_atom_site_label
_atom_site_fract_x
_atom_site_fract_y
_atom_site_fract_z
_atom_site_type_symbol
C       0.0027   0.1331   0.0148     C
C       0.0027   0.8669   0.5148     C
H       0.0177   0.1111   0.9367     H
H       0.0177   0.8889   0.4367     H
H       0.0215   0.0823   0.0264     H
H       0.0215   0.9177   0.5264     H
C       0.0218   0.3192   0.3911     C
C       0.0218   0.6808   0.8911     C
H       0.0267   0.3004   0.2869     H
H       0.0267   0.6996   0.7869     H
O       0.0318   0.2514  0.68773     O
O       0.0318   0.7486  0.18773     O
C       0.0367   0.3029   0.4449     C
C       0.0367   0.6971   0.9449     C
N       0.0394   0.1252  0.18639     N
N       0.0394   0.8748  0.68639     N
C       0.0488   0.2153   0.7961     C
C       0.0488   0.7847   0.2961     C
C       0.0497   0.1982   0.8499     C
C       0.0497   0.8018   0.3499     C
H       0.0649   0.2844   0.3677     H
H       0.0649   0.7156   0.8677     H
O       0.0655   0.2828  0.55594     O
O       0.0655   0.7172  0.05594     O
H       0.0902   0.2582   0.4571     H
H       0.0902   0.7418   0.9571     H
N        0.096   0.1358  0.13742     N
N        0.096   0.8642  0.63742     N
H       0.1099   0.1856   0.7743     H
H       0.1099   0.8144   0.2743     H
H       0.1107   0.1568   0.8638     H
H       0.1107   0.8432   0.3638     H
Zn     0.15372  0.25468  0.62527    Zn
Zn     0.15372  0.74532  0.12527    Zn
N       0.1569   0.1075  0.56859     N
N       0.1569   0.8925  0.06859     N
N       0.1895   0.0338   0.5706     N
N       0.1895   0.9662   0.0706     N
N       0.2008     0.14  0.61614     N
N       0.2008     0.86  0.11614     N
H       0.2182   0.0087   0.2275     H
H       0.2182   0.9913   0.7275     H
N       0.2548   0.0166  0.61996     N
N       0.2548   0.9834  0.11996     N
C       0.2624   0.0826  0.64676     C
C       0.2624   0.9174  0.14676     C
C        0.279   0.0339  0.73951     C
C        0.279   0.9661  0.23951     C
H       0.2944   0.0035   0.8167     H
H       0.2944   0.9965   0.3167     H
H       0.2968   0.1715   0.3824     H
H       0.2968   0.8285   0.8824     H
H       0.3005   0.1432   0.2926     H
H       0.3005   0.8568   0.7926     H
C       0.3223   0.0894  0.70343     C
C       0.3223   0.9106  0.20343     C
C       0.3253   0.0411  0.79291     C
C       0.3253   0.9589  0.29291     C
Zn     0.33395  0.09393  0.13272    Zn
Zn     0.33395  0.90607  0.63272    Zn
H       0.3457    0.019   0.8944     H
H       0.3457    0.981   0.3944     H
H       0.3487   0.0492   0.9837     H
H       0.3487   0.9508   0.4837     H
N       0.3552   0.3125  0.63836     N
N       0.3552   0.6875  0.13836     N
C       0.3629   0.1995   0.3612     C
C       0.3629   0.8005   0.8612     C
C       0.3647   0.1831  0.30707     C
C       0.3647   0.8169  0.80707     C
O       0.3783   0.1342  0.06421     O
O       0.3783   0.8658  0.56421     O
C       0.3901   0.0658   0.9066     C
C       0.3901   0.9342   0.4066     C
O       0.3945   0.1437  0.20124     O
O       0.3945   0.8563  0.70124     O
C       0.3966   0.0826   0.9605     C
C       0.3966   0.9174   0.4605     C
N       0.4003   0.3427  0.68719     N
N       0.4003   0.6573  0.18719     N
C       0.4186   0.1047  0.81222     C
C       0.4186   0.8953  0.31222     C
C       0.4187     0.15  0.72102     C
C       0.4187     0.85  0.22102     C
H       0.4194   0.1677   0.4679     H
H       0.4194   0.8323   0.9679     H
H       0.4381   0.1948   0.5566     H
H       0.4381   0.8052   0.0566     H
C       0.4423   0.2182   0.4793     C
C       0.4423   0.7818   0.9793     C
C       0.4475   0.1166  0.87079     C
C       0.4475   0.8834  0.37079     C
C       0.4512   0.2348   0.5324     C
C       0.4512   0.7652   0.0324     C
H       0.4539   0.1859   0.6968     H
H       0.4539   0.8141   0.1968     H
C       0.4575   0.2236  0.27453     C
C       0.4575   0.7764  0.77453     C
C       0.4601   0.2578   0.3835     C
C       0.4601   0.7422   0.8835     C
C       0.4638   0.2048  0.21669     C
C       0.4638   0.7952  0.71669     C
C       0.4639   0.1575  0.77536     C
C       0.4639   0.8425  0.27536     C
C       0.4667   0.2756   0.4418     C
C       0.4667   0.7244   0.9418     C
C       0.4734   0.1481  0.97998     C
C       0.4734   0.8519  0.47998     C
C       0.4766   0.1673  0.03823     C
C       0.4766   0.8327  0.53823     C
C       0.4789    0.328  0.60863     C
C       0.4789    0.672  0.10863     C
C       0.4791   0.3087   0.5513     C
C       0.4791   0.6913   0.0513     C
C       0.4985   0.3495   0.4608     C
C       0.4985   0.6505   0.9608     C
C       0.5027   0.3669   0.5148     C
C       0.5027   0.6331   0.0148     C
H       0.5177   0.3889   0.4367     H
H       0.5177   0.6111   0.9367     H
H       0.5215   0.4177   0.5264     H
H       0.5215   0.5823   0.0264     H
C       0.5218   0.1808   0.8911     C
C       0.5218   0.8192   0.3911     C
H       0.5267   0.1996   0.7869     H
H       0.5267   0.8004   0.2869     H
O       0.5318   0.2486  0.18773     O
O       0.5318   0.7514  0.68773     O
C       0.5367   0.1971   0.9449     C
C       0.5367   0.8029   0.4449     C
N       0.5394   0.3748  0.68639     N
N       0.5394   0.6252  0.18639     N
C       0.5488   0.2847   0.2961     C
C       0.5488   0.7153   0.7961     C
C       0.5497   0.3018   0.3499     C
C       0.5497   0.6982   0.8499     C
H       0.5649   0.2156   0.8677     H
H       0.5649   0.7844   0.3677     H
O       0.5655   0.2172  0.05594     O
O       0.5655   0.7828  0.55594     O
H       0.5902   0.2418   0.9571     H
H       0.5902   0.7582   0.4571     H
N        0.596   0.3642  0.63742     N
N        0.596   0.6358  0.13742     N
H       0.6099   0.3144   0.2743     H
H       0.6099   0.6856   0.7743     H
H       0.6107   0.3432   0.3638     H
H       0.6107   0.6568   0.8638     H
Zn     0.65372  0.24532  0.12527    Zn
Zn     0.65372  0.75468  0.62527    Zn
N       0.6569   0.3925  0.06859     N
N       0.6569   0.6075  0.56859     N
N       0.6895   0.4662   0.0706     N
N       0.6895   0.5338   0.5706     N
N       0.7008     0.36  0.11614     N
N       0.7008     0.64  0.61614     N
H       0.7182   0.4913   0.7275     H
H       0.7182   0.5087   0.2275     H
N       0.7548   0.4834  0.11996     N
N       0.7548   0.5166  0.61996     N
C       0.7624   0.4174  0.14676     C
C       0.7624   0.5826  0.64676     C
C        0.779   0.4661  0.23951     C
C        0.779   0.5339  0.73951     C
H       0.7944   0.4965   0.3167     H
H       0.7944   0.5035   0.8167     H
H       0.7968   0.3285   0.8824     H
H       0.7968   0.6715   0.3824     H
H       0.8005   0.3568   0.7926     H
H       0.8005   0.6432   0.2926     H
C       0.8223   0.4106  0.20343     C
C       0.8223   0.5894  0.70343     C
C       0.8253   0.4589  0.29291     C
C       0.8253   0.5411  0.79291     C
Zn     0.83395  0.40607  0.63272    Zn
Zn     0.83395  0.59393  0.13272    Zn
H       0.8457    0.481   0.3944     H
H       0.8457    0.519   0.8944     H
H       0.8487   0.4508   0.4837     H
H       0.8487   0.5492   0.9837     H
N       0.8552   0.1875  0.13836     N
N       0.8552   0.8125  0.63836     N
C       0.8629   0.3005   0.8612     C
C       0.8629   0.6995   0.3612     C
C       0.8647   0.3169  0.80707     C
C       0.8647   0.6831  0.30707     C
O       0.8783   0.3658  0.56421     O
O       0.8783   0.6342  0.06421     O
C       0.8901   0.4342   0.4066     C
C       0.8901   0.5658   0.9066     C
O       0.8945   0.3563  0.70124     O
O       0.8945   0.6437  0.20124     O
C       0.8966   0.4174   0.4605     C
C       0.8966   0.5826   0.9605     C
N       0.9003   0.1573  0.18719     N
N       0.9003   0.8427  0.68719     N
C       0.9186   0.3953  0.31222     C
C       0.9186   0.6047  0.81222     C
C       0.9187     0.35  0.22102     C
C       0.9187     0.65  0.72102     C
H       0.9194   0.3323   0.9679     H
H       0.9194   0.6677   0.4679     H
H       0.9381   0.3052   0.0566     H
H       0.9381   0.6948   0.5566     H
C       0.9423   0.2818   0.9793     C
C       0.9423   0.7182   0.4793     C
C       0.9475   0.3834  0.37079     C
C       0.9475   0.6166  0.87079     C
C       0.9512   0.2652   0.0324     C
C       0.9512   0.7348   0.5324     C
H       0.9539   0.3141   0.1968     H
H       0.9539   0.6859   0.6968     H
C       0.9575   0.2764  0.77453     C
C       0.9575   0.7236  0.27453     C
C       0.9601   0.2422   0.8835     C
C       0.9601   0.7578   0.3835     C
C       0.9638   0.2952  0.71669     C
C       0.9638   0.7048  0.21669     C
C       0.9639   0.3425  0.27536     C
C       0.9639   0.6575  0.77536     C
C       0.9667   0.2244   0.9418     C
C       0.9667   0.7756   0.4418     C
C       0.9734   0.3519  0.47998     C
C       0.9734   0.6481  0.97998     C
C       0.9766   0.3327  0.53823     C
C       0.9766   0.6673  0.03823     C
C       0.9789    0.172  0.10863     C
C       0.9789    0.828  0.60863     C
C       0.9791   0.1913   0.0513     C
C       0.9791   0.8087   0.5513     C
C       0.9985   0.1505   0.9608     C
C       0.9985   0.8495   0.4608     C
