data_I
_chemical_name_common  '/home/zhangsd/repos/MofS-CGCNN/ML/data/TSD/clean_cifs/BOZFIH_clean'
_cell_length_a 10.06270
_cell_length_b 23.06080
_cell_length_c 26.84320
_cell_angle_alpha 90.00000
_cell_angle_beta  95.11600
_cell_angle_gamma 90.00000
_space_group_name_H-M_alt      'P 1'


loop_
_space_group_symop_operation_xyz
  'x, y, z' 

loop_
_atom_site_label
_atom_site_fract_x
_atom_site_fract_y
_atom_site_fract_z
_atom_site_type_symbol
C       0.0083   0.0832    0.563     C
C       0.0087    0.874   0.6433     C
O       0.0115   0.6488   0.1624     O
H       0.0126   0.3456   0.6843     H
H       0.0175   0.8831   0.8118     H
C       0.0182   0.1338   0.6003     C
H       0.0195   0.0306   0.1459     H
H        0.021   0.4799   0.3891     H
N       0.0236     0.57   0.3307     N
C       0.0258   0.1184   0.1591     C
O       0.0322   0.2279    0.253     O
C       0.0342   0.6214   0.3079     C
C       0.0351   0.4913   0.6006     C
C       0.0367   0.2214   0.6685     C
Zn     0.03815  0.24475  0.18301    Zn
H       0.0437   0.2512   0.6919     H
O       0.0449   0.0593   0.4392     O
C       0.0458   0.8361   0.6845     C
C       0.0514   0.0656   0.1344     C
C       0.0568    0.438   0.6275     C
O       0.0572    0.294   0.7784     O
C       0.0593   0.1857   0.2829     C
N       0.0608   0.1696   0.1424     N
C       0.0742   0.9338   0.5713     C
C        0.079   0.3281   0.8159     C
H       0.0794   0.1149   0.3649     H
C       0.0887   0.8035   0.3449     C
H       0.0941   0.5306   0.5382     H
C       0.0964   0.8468   0.3789     C
C        0.105    0.497   0.5574     C
O       0.1056     0.94   0.4451     O
C       0.1062   0.5324   0.3095     C
O       0.1111   0.7057   0.8423     O
O       0.1121   0.0719   0.5435     O
C       0.1135   0.8937   0.6158     C
N       0.1194   0.6195   0.2728     N
H       0.1208   0.4935   0.3176     H
C       0.1213   0.0668   0.0948     C
H       0.1316   0.8304   0.2275     H
C        0.134   0.1696   0.1042     C
Zn     0.14327  0.00827   0.4919    Zn
C       0.1436   0.1566   0.6126     C
C       0.1441   0.3945   0.6164     C
N       0.1484   0.9642   0.0994     N
H       0.1491   0.9089   0.1744     H
Zn     0.15104  0.69271  0.22804    Zn
C       0.1511   0.2024   0.6477     C
C       0.1517   0.8235   0.1949     C
C       0.1588   0.8713   0.1627     C
H         0.16   0.3617   0.6361     H
C       0.1602   0.0125   0.0725     C
C       0.1639   0.1168    0.079     C
C       0.1647   0.5646   0.2728     C
O       0.1671    0.951   0.5493     O
H       0.1674   0.2045   0.0933     H
N       0.1727   0.7677   0.1809     N
O       0.1733   0.1622   0.2914     O
C       0.1782   0.8213   0.6987     C
H       0.1785   0.8638   0.3886     H
O       0.1791   0.2969   0.1588     O
C       0.1798   0.8614   0.1146     C
C        0.187   0.9108    0.083     C
C       0.1887   0.4542    0.543     C
H       0.1915   0.3867   0.8922     H
C       0.1953   0.7624   0.1332     C
O       0.1955   0.7387   0.2927     O
H       0.2008   0.7977   0.7263     H
C       0.2016   0.8072   0.0986     C
C       0.2026   0.0124   0.0231     C
H       0.2032   0.0458   0.0038     H
C       0.2079   0.4052   0.5716     C
C       0.2079   0.7797   0.3243     C
H       0.2082   0.7249   0.1216     H
H       0.2134    0.118   0.0514     H
O       0.2166   0.7844   0.8221     O
H       0.2187   0.1427   0.5987     H
C       0.2187   0.7333   0.8382     C
H       0.2201      0.8   0.0659     H
C       0.2239   0.3435   0.8304     C
H       0.2254   0.5503   0.2517     H
C       0.2332   0.9058   0.0332     C
H       0.2341   0.8771   0.9387     H
C       0.2425   0.8761   0.6282     C
C       0.2435   0.9579   0.0055     C
H        0.245   0.3701   0.4799     H
H        0.255   0.8701   0.0201     H
C       0.2565   0.4579   0.4945     C
C       0.2575   0.3761   0.8718     C
H       0.2659   0.3771   0.5613     H
C       0.2668   0.4058   0.4668     C
H       0.2746   0.0503   0.2483     H
C       0.2761   0.8435   0.6696     C
H       0.2799      0.3   0.4341     H
C       0.2813   0.2333   0.6618     C
H       0.2813   0.6427   0.9013     H
O       0.2834   0.2844   0.6779     O
H       0.2866    0.618   0.4486     H
H       0.2918   0.2249   0.3784     H
C       0.2921   0.2797   0.1757     C
C       0.2921   0.9052   0.9284     C
H       0.2968   0.5458   0.4962     H
C       0.2974   0.5124   0.4769     C
C       0.2984   0.3072   0.4014     C
H       0.2992   0.2977   0.7737     H
O       0.3045   0.2387   0.2073     O
C       0.3047   0.2624   0.3668     C
H       0.3085   0.8867   0.6078     H
C       0.3113   0.9542    0.957     C
C        0.313   0.4108    0.417     C
C       0.3202   0.3614   0.3854     C
O       0.3209   0.7969   0.3412     O
H       0.3215   0.3638   0.1114     H
C       0.3218   0.3213   0.8013     C
O       0.3267   0.6622   0.2086     O
N       0.3273   0.2677   0.3191     N
H       0.3326   0.7045   0.4067     H
O       0.3329    0.451   0.9507     O
C       0.3353   0.0646   0.2272     C
C       0.3361   0.6168    0.421     C
C       0.3398   0.5125   0.4275     C
H         0.34   0.8617   0.8639     H
C       0.3412   0.3713   0.3373     C
C       0.3483   0.3235   0.3051     C
C       0.3489   0.7024   0.8523     C
Zn     0.34896  0.19271  0.27196    Zn
H       0.3509   0.4089   0.3256     H
N       0.3516   0.4642   0.4006     N
C       0.3559   0.8945   0.8836     C
C       0.3564   0.6566   0.8874     C
Zn     0.35673  0.50827   0.0081    Zn
C        0.366   0.6696   0.3958     C
H       0.3684   0.3304   0.2725     H
C       0.3787   0.5668   0.4052     C
H       0.3792   0.9935   0.1824     H
N       0.3806   0.1195   0.2272     N
C       0.3865   0.3937   0.8842     C
O       0.3879   0.5719   0.9565     O
O       0.3889   0.2057   0.6577     O
C       0.3938   0.0324   0.1905     C
O       0.3944     0.44   0.0549     O
C        0.395    0.997   0.9426     C
C       0.4036   0.3468   0.1211     C
H       0.4059   0.0306   0.9618     H
C       0.4113   0.3035   0.1551     C
H       0.4206   0.6149   0.1351     H
C        0.421   0.8281   0.6841     C
C       0.4258   0.4338   0.9287     C
N       0.4392   0.6696   0.3576     N
C       0.4407   0.6857   0.2171     C
O       0.4428    0.794   0.7216     O
C       0.4432    0.938   0.8725     C
C       0.4486   0.5656   0.3656     C
C       0.4542   0.3361   0.8155     C
O       0.4551   0.5593   0.0608     O
H       0.4563   0.7512   0.8081     H
Zn     0.46185  0.74475  0.31699    Zn
C       0.4633   0.7214   0.8315     C
C       0.4649   0.9913   0.8994     C
C       0.4658   0.1214   0.1921     C
O       0.4678   0.7279    0.247     O
C       0.4742   0.6184   0.3409     C
N       0.4764     0.07   0.1693     N
H        0.479   0.9799   0.1109     H
H       0.4805   0.5306   0.3541     H
C       0.4818   0.6338   0.8997     C
H       0.4825   0.3831   0.6882     H
H       0.4874   0.8456   0.8157     H
O       0.4885   0.1488   0.3376     O
C       0.4913    0.374   0.8567     C
C       0.4917   0.5832    0.937     C
C       0.5083   0.4168    0.063     C
C       0.5087    0.626   0.1433     C
O       0.5115   0.8512   0.6624     O
H       0.5126   0.1544   0.1843     H
H       0.5175   0.6169   0.3118     H
C       0.5182   0.3662   0.1003     C
H       0.5195   0.4694   0.6459     H
H        0.521   0.0201   0.8891     H
N       0.5236     0.93   0.8307     N
C       0.5258   0.3816   0.6591     C
O       0.5322   0.2721    0.753     O
C       0.5342   0.8786   0.8079     C
C       0.5351   0.0087   0.1006     C
C       0.5367   0.2786   0.1685     C
Zn     0.53815  0.25525  0.68301    Zn
H       0.5437   0.2488   0.1919     H
O       0.5449   0.4407   0.9392     O
C       0.5458   0.6639   0.1845     C
C       0.5514   0.4344   0.6344     C
C       0.5568    0.062   0.1275     C
O       0.5572    0.206   0.2784     O
C       0.5593   0.3143   0.7829     C
N       0.5608   0.3304   0.6424     N
C       0.5742   0.5662   0.0713     C
C        0.579   0.1719   0.3159     C
H       0.5794   0.3851   0.8649     H
C       0.5887   0.6965   0.8449     C
H       0.5941   0.9694   0.0382     H
C       0.5964   0.6532   0.8789     C
C        0.605    0.003   0.0574     C
O       0.6056     0.56   0.9451     O
C       0.6062   0.9676   0.8095     C
O       0.6111   0.7943   0.3423     O
O       0.6121   0.4281   0.0435     O
C       0.6135   0.6063   0.1158     C
N       0.6194   0.8805   0.7728     N
H       0.6208   0.0065   0.8176     H
C       0.6213   0.4332   0.5948     C
H       0.6316   0.6696   0.7275     H
C        0.634   0.3304   0.6042     C
Zn     0.64327  0.49173   0.9919    Zn
C       0.6436   0.3434   0.1126     C
C       0.6441   0.1055   0.1164     C
N       0.6484   0.5358   0.5994     N
H       0.6491   0.5911   0.6744     H
Zn     0.65104  0.80729  0.72804    Zn
C       0.6511   0.2976   0.1477     C
C       0.6517   0.6765   0.6949     C
C       0.6588   0.6287   0.6627     C
H         0.66   0.1383   0.1361     H
C       0.6602   0.4875   0.5725     C
C       0.6639   0.3832    0.579     C
C       0.6647   0.9354   0.7728     C
O       0.6671    0.549   0.0493     O
H       0.6674   0.2955   0.5933     H
N       0.6727   0.7323   0.6809     N
O       0.6733   0.3378   0.7914     O
C       0.6782   0.6787   0.1987     C
H       0.6785   0.6362   0.8886     H
O       0.6791   0.2031   0.6588     O
C       0.6798   0.6386   0.6146     C
C        0.687   0.5892    0.583     C
C       0.6887   0.0458    0.043     C
H       0.6915   0.1133   0.3922     H
C       0.6953   0.7376   0.6332     C
O       0.6955   0.7613   0.7927     O
H       0.7008   0.7023   0.2263     H
C       0.7016   0.6928   0.5986     C
C       0.7026   0.4876   0.5231     C
H       0.7032   0.4542   0.5038     H
C       0.7079   0.0948   0.0716     C
C       0.7079   0.7203   0.8243     C
H       0.7082   0.7751   0.6216     H
H       0.7134    0.382   0.5514     H
O       0.7166   0.7156   0.3221     O
H       0.7187   0.3573   0.0987     H
C       0.7187   0.7667   0.3382     C
H       0.7201      0.7   0.5659     H
C       0.7239   0.1565   0.3304     C
H       0.7254   0.9497   0.7517     H
C       0.7332   0.5942   0.5332     C
H       0.7341   0.6229   0.4387     H
C       0.7425   0.6239   0.1282     C
C       0.7435   0.5421   0.5055     C
H        0.745   0.1299   0.9799     H
H        0.755   0.6299   0.5201     H
C       0.7565   0.0421   0.9945     C
C       0.7575   0.1239   0.3718     C
H       0.7659   0.1229   0.0613     H
C       0.7668   0.0942   0.9668     C
H       0.7746   0.4497   0.7483     H
C       0.7761   0.6565   0.1696     C
H       0.7799      0.2   0.9341     H
C       0.7813   0.2667   0.1618     C
H       0.7813   0.8573   0.4013     H
O       0.7834   0.2156   0.1779     O
H       0.7866    0.882   0.9486     H
H       0.7918   0.2751   0.8784     H
C       0.7921   0.2203   0.6757     C
C       0.7921   0.5948   0.4284     C
H       0.7968   0.9542   0.9962     H
C       0.7974   0.9876   0.9769     C
C       0.7984   0.1928   0.9014     C
H       0.7992   0.2023   0.2737     H
O       0.8045   0.2613   0.7073     O
C       0.8047   0.2376   0.8668     C
H       0.8085   0.6133   0.1078     H
C       0.8113   0.5458    0.457     C
C        0.813   0.0892    0.917     C
C       0.8202   0.1386   0.8854     C
O       0.8209   0.7031   0.8412     O
H       0.8215   0.1362   0.6114     H
C       0.8218   0.1787   0.3013     C
O       0.8267   0.8378   0.7086     O
N       0.8273   0.2323   0.8191     N
H       0.8326   0.7955   0.9067     H
O       0.8329    0.049   0.4507     O
C       0.8353   0.4354   0.7272     C
C       0.8361   0.8832    0.921     C
C       0.8398   0.9875   0.9275     C
H         0.84   0.6383   0.3639     H
C       0.8412   0.1287   0.8373     C
C       0.8483   0.1765   0.8051     C
C       0.8489   0.7976   0.3523     C
Zn     0.84896  0.30729  0.77196    Zn
H       0.8509   0.0911   0.8256     H
N       0.8516   0.0358   0.9006     N
C       0.8559   0.6055   0.3836     C
C       0.8564   0.8434   0.3874     C
Zn     0.85673  0.99173   0.5081    Zn
C        0.866   0.8304   0.8958     C
H       0.8684   0.1696   0.7725     H
C       0.8787   0.9332   0.9052     C
H       0.8792   0.5065   0.6824     H
N       0.8806   0.3805   0.7272     N
C       0.8865   0.1063   0.3842     C
O       0.8879   0.9281   0.4565     O
O       0.8889   0.2943   0.1577     O
C       0.8938   0.4676   0.6905     C
O       0.8944     0.06   0.5549     O
C        0.895    0.503   0.4426     C
C       0.9036   0.1532   0.6211     C
H       0.9059   0.4694   0.4618     H
C       0.9113   0.1965   0.6551     C
H       0.9206   0.8851   0.6351     H
C        0.921   0.6719   0.1841     C
C       0.9258   0.0662   0.4287     C
N       0.9392   0.8304   0.8576     N
C       0.9407   0.8143   0.7171     C
O       0.9428    0.706   0.2216     O
C       0.9432    0.562   0.3725     C
C       0.9486   0.9344   0.8656     C
C       0.9542   0.1639   0.3155     C
O       0.9551   0.9407   0.5608     O
H       0.9563   0.7488   0.3081     H
Zn     0.96185  0.75525  0.81699    Zn
C       0.9633   0.7786   0.3315     C
C       0.9649   0.5087   0.3994     C
C       0.9658   0.3786   0.6921     C
O       0.9678   0.7721    0.747     O
C       0.9742   0.8816   0.8409     C
N       0.9764     0.43   0.6693     N
H        0.979   0.5201   0.6109     H
H       0.9805   0.9694   0.8541     H
C       0.9818   0.8662   0.3997     C
H       0.9825   0.1169   0.1882     H
H       0.9874   0.6544   0.3157     H
O       0.9885   0.3512   0.8376     O
C       0.9913    0.126   0.3567     C
C       0.9917   0.9168    0.437     C
