data_I
_chemical_name_common  '/home/zhangsd/repos/MofS-CGCNN/ML/data/TSD/clean_cifs/BUKRUW03_clean'
_cell_length_a 20.14050
_cell_length_b 20.14050
_cell_length_c 20.14050
_cell_angle_alpha 90.00000
_cell_angle_beta  90.00000
_cell_angle_gamma 90.00000
_space_group_name_H-M_alt      'P 1'


loop_
_space_group_symop_operation_xyz
  'x, y, z' 

loop_
_atom_site_label
_atom_site_fract_x
_atom_site_fract_y
_atom_site_fract_z
_atom_site_type_symbol
C       0.0033   0.7366   0.2509     C
C       0.0054   0.2415   0.7526     C
H       0.0108   0.3129   0.1748     H
H       0.0216    0.683   0.8279     H
H       0.0252   0.8307   0.7003     H
C      0.03024   0.2841   0.2067     C
C       0.0362   0.7099    0.792     C
C       0.0387   0.7902   0.7202     C
H       0.0436   0.1636   0.2647     H
C      0.04739   0.2106   0.2627     C
C       0.0748   0.2388   0.7557     C
N       0.0991   0.7223   0.7778     N
N       0.1019   0.7704    0.727     N
N       0.1031   0.2778   0.2246     N
N       0.1036   0.2298   0.2747     N
O       0.1058   0.2777   0.7922     O
O       0.1065   0.2047   0.7268     O
H       0.1636   0.2647   0.0436     H
H       0.1693   0.2003   0.4748     H
H       0.1721   0.5216    0.817     H
H       0.1748   0.0108   0.3129     H
H        0.183   0.6721   0.9784     H
H       0.1871   0.8252   0.5108     H
Zn     0.19033  0.69033  0.80967    Zn
Zn      0.1911  0.69697   0.1967    Zn
Zn     0.19206  0.80332  0.69596    Zn
Zn     0.19596  0.30794  0.19668    Zn
Zn     0.19668  0.19596  0.30794    Zn
Zn      0.1967   0.1911  0.69697    Zn
Zn     0.19697   0.3033   0.8089    Zn
H       0.2003   0.4748   0.1693     H
O       0.2047   0.7268   0.1065     O
C       0.2067  0.03024   0.2841     C
O       0.2078   0.6058   0.2223     O
C        0.208   0.5362   0.7901     C
C       0.2098   0.2202   0.4613     C
C       0.2099    0.708   0.9638     C
C       0.2106   0.2627  0.04739     C
C       0.2159   0.7933  0.53024     C
C       0.2202   0.4613   0.2098     C
N       0.2222   0.5991   0.7777     N
N       0.2222   0.7754   0.6031     N
O       0.2223   0.2078   0.6058     O
N       0.2223   0.7222   0.9009     N
N       0.2246   0.1031   0.2778     N
N       0.2253   0.8964   0.7298     N
O       0.2268   0.3935   0.7953     O
N        0.227   0.3981   0.2296     N
N       0.2296    0.227   0.3981     N
N       0.2298   0.2747   0.1036     N
H       0.2353   0.9564   0.6636     H
C       0.2366   0.2491   0.9967     C
C       0.2373  0.95261   0.7106     C
C       0.2388   0.7557   0.0748     C
C       0.2415   0.7526   0.0054     C
C       0.2443   0.5748   0.2612     C
O       0.2457   0.7543   0.2543     O
C       0.2474   0.5054   0.2585     C
O       0.2483   0.7483   0.7517     O
C       0.2491   0.9967   0.2366     C
C       0.2509   0.0033   0.7366     C
O       0.2517   0.2517   0.2517     O
C       0.2526   0.4946   0.7585     C
O       0.2543   0.2457   0.7543     O
C       0.2557   0.4252   0.7612     C
C       0.2585   0.2474   0.5054     C
C       0.2612   0.2443   0.5748     C
C       0.2627  0.04739   0.2106     C
C       0.2634   0.7509   0.4967     C
H       0.2647   0.0436   0.1636     H
N       0.2702   0.7253   0.6036     N
N       0.2704    0.773   0.8981     N
N        0.273   0.6019   0.7296     N
O       0.2732   0.6065   0.2953     O
N       0.2747   0.1036   0.2298     N
N       0.2754   0.8969   0.7778     N
N       0.2777   0.2778   0.4009     N
O       0.2777   0.7922   0.1058     O
N       0.2778   0.2246   0.1031     N
N       0.2778   0.4009   0.2777     N
C       0.2798   0.5387   0.7098     C
C       0.2841   0.2067  0.03024     C
C       0.2894   0.7373  0.54739     C
C       0.2901    0.292   0.4638     C
C       0.2902   0.7798   0.9613     C
C        0.292   0.4638   0.2901     C
O       0.2922   0.3942   0.7223     O
C       0.2933  0.96976   0.7841     C
O       0.2953   0.2732   0.6065     O
H       0.2997   0.5252   0.6693     H
Zn     0.30303   0.6967   0.3089    Zn
Zn      0.3033   0.8089  0.19697    Zn
Zn     0.30332  0.80404  0.80794    Zn
Zn     0.30404  0.69206  0.69668    Zn
Zn     0.30794  0.19668  0.19596    Zn
Zn      0.3089  0.30303   0.6967    Zn
Zn     0.30967  0.30967  0.30967    Zn
H       0.3129   0.1748   0.0108     H
H        0.317   0.3279   0.4784     H
H       0.3252   0.9892   0.8129     H
H       0.3279   0.4784    0.317     H
H       0.3307   0.7997   0.9748     H
H       0.3364   0.7353   0.5436     H
O       0.3935   0.7953   0.2268     O
O       0.3942   0.7223   0.2922     O
N       0.3964   0.7702   0.7747     N
N       0.3969   0.7222   0.7246     N
N       0.3981   0.2296    0.227     N
N       0.4009   0.2777   0.2778     N
C       0.4252   0.7612   0.2557     C
C      0.45261   0.7894   0.7627     C
H       0.4564   0.8364   0.7647     H
C       0.4613   0.2098   0.2202     C
C       0.4638   0.2901    0.292     C
C      0.46976   0.7159   0.7067     C
H       0.4748   0.1693   0.2003     H
H       0.4784    0.317   0.3279     H
H       0.4892   0.6871   0.6748     H
C       0.4946   0.7585   0.2526     C
C       0.4967   0.2634   0.7509     C
C       0.5033   0.7634   0.7491     C
C       0.5054   0.2585   0.2474     C
H       0.5108   0.1871   0.8252     H
H       0.5216    0.817   0.1721     H
H       0.5252   0.6693   0.2997     H
C      0.53024   0.2159   0.7933     C
C       0.5362   0.7901    0.208     C
C       0.5387   0.7098   0.2798     C
H       0.5436   0.3364   0.7353     H
C      0.54739   0.2894   0.7373     C
C       0.5748   0.2612   0.2443     C
N       0.5991   0.7777   0.2222     N
N       0.6019   0.7296    0.273     N
N       0.6031   0.2222   0.7754     N
N       0.6036   0.2702   0.7253     N
O       0.6058   0.2223   0.2078     O
O       0.6065   0.2953   0.2732     O
H       0.6636   0.2353   0.9564     H
H       0.6693   0.2997   0.5252     H
H       0.6721   0.9784    0.183     H
H       0.6748   0.4892   0.6871     H
H        0.683   0.8279   0.0216     H
H       0.6871   0.6748   0.4892     H
Zn     0.69033  0.80967  0.19033    Zn
Zn      0.6911  0.80303   0.8033    Zn
Zn     0.69206  0.69668  0.30404    Zn
Zn     0.69596  0.19206  0.80332    Zn
Zn     0.69668  0.30404  0.69206    Zn
Zn      0.6967   0.3089  0.30303    Zn
Zn     0.69697   0.1967   0.1911    Zn
H       0.7003   0.0252   0.8307     H
O       0.7047   0.7732   0.8935     O
C       0.7067  0.46976   0.7159     C
O       0.7078   0.8942   0.7777     O
C        0.708   0.9638   0.2099     C
C       0.7098   0.2798   0.5387     C
C       0.7099    0.792   0.0362     C
C       0.7106   0.2373  0.95261     C
C       0.7159   0.7067  0.46976     C
C       0.7202   0.0387   0.7902     C
N       0.7222   0.7246   0.3969     N
N       0.7222   0.9009   0.2223     N
O       0.7223   0.2922   0.3942     O
N       0.7223   0.7778   0.0991     N
N       0.7246   0.3969   0.7222     N
N       0.7253   0.6036   0.2702     N
O       0.7268   0.1065   0.2047     O
N        0.727   0.1019   0.7704     N
N       0.7296    0.273   0.6019     N
N       0.7298   0.2253   0.8964     N
H       0.7353   0.5436   0.3364     H
C       0.7366   0.2509   0.0033     C
C       0.7373  0.54739   0.2894     C
C       0.7388   0.7443   0.9252     C
C       0.7415   0.7474   0.9946     C
C       0.7443   0.9252   0.7388     C
O       0.7457   0.7457   0.7457     O
C       0.7474   0.9946   0.7415     C
O       0.7483   0.7517   0.2483     O
C       0.7491   0.5033   0.7634     C
C       0.7509   0.4967   0.2634     C
O       0.7517   0.2483   0.7483     O
C       0.7526   0.0054   0.2415     C
O       0.7543   0.2543   0.2457     O
C       0.7557   0.0748   0.2388     C
C       0.7585   0.2526   0.4946     C
C       0.7612   0.2557   0.4252     C
C       0.7627  0.45261   0.7894     C
C       0.7634   0.7491   0.5033     C
H       0.7647   0.4564   0.8364     H
N       0.7702   0.7747   0.3964     N
N       0.7704    0.727   0.1019     N
N        0.773   0.8981   0.2704     N
O       0.7732   0.8935   0.7047     O
N       0.7747   0.3964   0.7702     N
N       0.7754   0.6031   0.2222     N
N       0.7777   0.2222   0.5991     N
O       0.7777   0.7078   0.8942     O
N       0.7778   0.0991   0.7223     N
N       0.7778   0.2754   0.8969     N
C       0.7798   0.9613   0.2902     C
C       0.7841   0.2933  0.96976     C
C       0.7894   0.7627  0.45261     C
C       0.7901    0.208   0.5362     C
C       0.7902   0.7202   0.0387     C
C        0.792   0.0362   0.7099     C
O       0.7922   0.1058   0.2777     O
C       0.7933  0.53024   0.2159     C
O       0.7953   0.2268   0.3935     O
H       0.7997   0.9748   0.3307     H
Zn     0.80303   0.8033   0.6911    Zn
Zn      0.8033   0.6911  0.80303    Zn
Zn     0.80332  0.69596  0.19206    Zn
Zn     0.80404  0.80794  0.30332    Zn
Zn     0.80794  0.30332  0.80404    Zn
Zn      0.8089  0.19697   0.3033    Zn
Zn     0.80967  0.19033  0.69033    Zn
H       0.8129   0.3252   0.9892     H
H        0.817   0.1721   0.5216     H
H       0.8252   0.5108   0.1871     H
H       0.8279   0.0216    0.683     H
H       0.8307   0.7003   0.0252     H
H       0.8364   0.7647   0.4564     H
O       0.8935   0.7047   0.7732     O
O       0.8942   0.7777   0.7078     O
N       0.8964   0.7298   0.2253     N
N       0.8969   0.7778   0.2754     N
N       0.8981   0.2704    0.773     N
N       0.9009   0.2223   0.7222     N
C       0.9252   0.7388   0.7443     C
C      0.95261   0.7106   0.2373     C
H       0.9564   0.6636   0.2353     H
C       0.9613   0.2902   0.7798     C
C       0.9638   0.2099    0.708     C
C      0.96976   0.7841   0.2933     C
H       0.9748   0.3307   0.7997     H
H       0.9784    0.183   0.6721     H
H       0.9892   0.8129   0.3252     H
C       0.9946   0.7415   0.7474     C
C       0.9967   0.2366   0.2491     C
