data_I
_chemical_name_common  '/home/zhangsd/repos/MofS-CGCNN/ML/data/TSD/clean_cifs/BUKRUW01_clean'
_cell_length_a 20.16190
_cell_length_b 20.16190
_cell_length_c 20.16190
_cell_angle_alpha 90.00000
_cell_angle_beta  90.00000
_cell_angle_gamma 90.00000
_space_group_name_H-M_alt      'P 1'


loop_
_space_group_symop_operation_xyz
  'x, y, z' 

loop_
_atom_site_label
_atom_site_fract_x
_atom_site_fract_y
_atom_site_fract_z
_atom_site_type_symbol
C       0.0027   0.2603   0.2497     C
C       0.0042   0.2552   0.7539     C
H         0.02    0.179   0.8182     H
H         0.02    0.678   0.3136     H
H       0.0255   0.8101   0.1701     H
H       0.0364    0.328   0.6919     H
C       0.0383   0.2121     0.79     C
C       0.0403   0.7134     0.29     C
C       0.0415   0.7893   0.2092     C
C       0.0472   0.2929   0.7215     C
C       0.0673   0.7577   0.7641     C
C       0.0812   0.2642   0.2506     C
N       0.0986     0.79   0.2194     N
N       0.0992   0.7197   0.2923     N
N      0.10224  0.22307  0.77977     N
O      0.10533     0.22  0.21795     O
N       0.1078    0.273   0.7374     N
O       0.1089   0.7571   0.7964     O
O       0.1115    0.292   0.2914     O
H       0.1701   0.0255   0.8101     H
H        0.172   0.3081   0.5364     H
H        0.178   0.1864     0.98     H
H        0.179   0.8182     0.02     H
H       0.1818     0.52    0.321     H
H       0.1864     0.98    0.178     H
H       0.1899   0.6701   0.4745     H
Zn     0.19008  0.80983  0.19582    Zn
Zn     0.19017  0.69582  0.30992    Zn
Zn     0.19082  0.80404  0.80771    Zn
H       0.1919   0.4636    0.672     H
Zn     0.19229  0.69082  0.69596    Zn
Zn     0.19582  0.19008  0.80983    Zn
Zn     0.19596  0.30771  0.30918    Zn
Zn     0.19662  0.19662  0.19662    Zn
Zn      0.1992   0.3008   0.6992    Zn
O       0.2036   0.6089   0.7429     O
C       0.2071   0.2785   0.5472     C
N       0.2077   0.9008   0.2197     N
O        0.208   0.7086   0.6115     O
O       0.2086   0.8885    0.792     O
C       0.2092   0.0415   0.7893     C
C         0.21   0.5383   0.2879     C
N         0.21   0.7194   0.4014     N
C         0.21   0.9597   0.2134     C
C       0.2107   0.7092   0.4585     C
C       0.2121     0.79   0.0383     C
C       0.2134     0.21   0.9597     C
O      0.21795  0.10533     0.22     O
N       0.2194   0.0986     0.79     N
N       0.2197   0.2077   0.9008     N
O         0.22  0.21795  0.10533     O
N      0.22023  0.60224  0.27693     N
C       0.2215   0.4528   0.7071     C
N      0.22307  0.77977  0.10224     N
N        0.227   0.2626   0.6078     N
C       0.2358   0.7494   0.5812     C
C       0.2359   0.5673   0.7423     C
N       0.2374   0.3922    0.727     N
C       0.2397   0.7503   0.5027     C
C       0.2423   0.2641   0.4327     C
O       0.2429   0.2964   0.3911     O
O       0.2444   0.7444   0.7556     O
C       0.2448   0.2461   0.5042     C
O      0.24486  0.75514  0.25514     O
C       0.2461   0.5042   0.2448     C
C       0.2494   0.9188   0.7642     C
C       0.2497   0.0027   0.2603     C
C       0.2503   0.9973   0.7603     C
C       0.2506   0.0812   0.2642     C
C       0.2539   0.4958   0.7448     C
O      0.25514  0.24486  0.75514     O
C       0.2552   0.7539   0.0042     C
O       0.2556   0.2556   0.2556     O
O       0.2571   0.7036   0.8911     O
C       0.2577   0.7359   0.9327     C
C       0.2603   0.2497   0.0027     C
N       0.2626   0.6078    0.227     N
C       0.2641   0.4327   0.2423     C
C       0.2642   0.2506   0.0812     C
N        0.273   0.7374   0.1078     N
N      0.27693  0.22023  0.60224     N
C       0.2785   0.5472   0.2071     C
N      0.27977  0.39776  0.77693     N
O         0.28  0.78205  0.60533     O
N       0.2803   0.7923   0.4008     N
N       0.2806   0.9014     0.29     N
O      0.28205  0.89467     0.72     O
C       0.2866     0.79   0.4597     C
C       0.2879     0.21   0.5383     C
C       0.2893   0.2908   0.9585     C
C         0.29   0.0403   0.7134     C
N         0.29   0.2806   0.9014     N
C         0.29   0.4617   0.7879     C
C       0.2908   0.9585   0.2893     C
O       0.2914   0.1115    0.292     O
O        0.292   0.2914   0.1115     O
N       0.2923   0.0992   0.7197     N
C       0.2929   0.7215   0.0472     C
O       0.2964   0.3911   0.2429     O
Zn      0.3008   0.6992   0.1992    Zn
Zn     0.30338  0.80338  0.69662    Zn
Zn     0.30404  0.69229  0.80918    Zn
Zn     0.30418  0.80992  0.30983    Zn
Zn     0.30771  0.30918  0.19596    Zn
H       0.3081   0.5364    0.172     H
Zn     0.30918  0.19596  0.30771    Zn
Zn     0.30983  0.30418  0.80992    Zn
Zn     0.30992  0.19017  0.69582    Zn
H       0.3101   0.3299   0.9745     H
H       0.3136     0.02    0.678     H
H       0.3182     0.48    0.821     H
H        0.321   0.1818     0.52     H
H        0.322   0.8136     0.48     H
H        0.328   0.6919   0.0364     H
H       0.3299   0.9745   0.3101     H
O       0.3885    0.708   0.7914     O
O       0.3911   0.2429   0.2964     O
N       0.3922    0.727   0.2374     N
O      0.39467     0.78  0.71795     O
N      0.39776  0.77693  0.27977     N
N       0.4008   0.2803   0.7923     N
N       0.4014     0.21   0.7194     N
C       0.4188   0.7358   0.7506     C
C       0.4327   0.2423   0.2641     C
C       0.4528   0.7071   0.2215     C
C       0.4585   0.2107   0.7092     C
C       0.4597   0.2866     0.79     C
C       0.4617   0.7879     0.29     C
H       0.4636    0.672   0.1919     H
H       0.4745   0.1899   0.6701     H
H         0.48    0.322   0.8136     H
H         0.48    0.821   0.3182     H
C       0.4958   0.7448   0.2539     C
C       0.4973   0.7397   0.7497     C
C       0.5027   0.2397   0.7503     C
C       0.5042   0.2448   0.2461     C
H         0.52    0.321   0.1818     H
H         0.52    0.822   0.6864     H
H       0.5255   0.6899   0.8299     H
H       0.5364    0.172   0.3081     H
C       0.5383   0.2879     0.21     C
C       0.5403   0.7866     0.71     C
C       0.5415   0.7107   0.7908     C
C       0.5472   0.2071   0.2785     C
C       0.5673   0.7423   0.2359     C
C       0.5812   0.2358   0.7494     C
N       0.5986     0.71   0.7806     N
N       0.5992   0.7803   0.7077     N
N      0.60224  0.27693  0.22023     N
O      0.60533     0.28  0.78205     O
N       0.6078    0.227   0.2626     N
O       0.6089   0.7429   0.2036     O
O       0.6115    0.208   0.7086     O
H       0.6701   0.4745   0.1899     H
H        0.672   0.1919   0.4636     H
H        0.678   0.3136     0.02     H
H        0.679   0.6818     0.98     H
H       0.6818     0.98    0.679     H
H       0.6864     0.52    0.822     H
H       0.6899   0.8299   0.5255     H
Zn     0.69008  0.69017  0.80418    Zn
Zn     0.69017  0.80418  0.69008    Zn
Zn     0.69082  0.69596  0.19229    Zn
H       0.6919   0.0364    0.328     H
Zn     0.69229  0.80918  0.30404    Zn
Zn     0.69582  0.30992  0.19017    Zn
Zn     0.69596  0.19229  0.69082    Zn
Zn     0.69662  0.30338  0.80338    Zn
Zn      0.6992   0.1992   0.3008    Zn
O       0.7036   0.8911   0.2571     O
C       0.7071   0.2215   0.4528     C
N       0.7077   0.5992   0.7803     N
O        0.708   0.7914   0.3885     O
O       0.7086   0.6115    0.208     O
C       0.7092   0.4585   0.2107     C
C         0.71   0.5403   0.7866     C
N         0.71   0.7806   0.5986     N
C         0.71   0.9617   0.7121     C
C       0.7107   0.7908   0.5415     C
C       0.7121     0.71   0.9617     C
C       0.7134     0.29   0.0403     C
O      0.71795  0.39467     0.78     O
N       0.7194   0.4014     0.21     N
N       0.7197   0.2923   0.0992     N
O         0.72  0.28205  0.89467     O
N      0.72023  0.89776  0.72307     N
C       0.7215   0.0472   0.2929     C
N      0.72307  0.72023  0.89776     N
N        0.727   0.2374   0.3922     N
C       0.7358   0.7506   0.4188     C
C       0.7359   0.9327   0.2577     C
N       0.7374   0.1078    0.273     N
C       0.7397   0.7497   0.4973     C
C       0.7423   0.2359   0.5673     C
O       0.7429   0.2036   0.6089     O
O       0.7444   0.7556   0.2444     O
C       0.7448   0.2539   0.4958     C
O      0.74486  0.74486  0.74486     O
C       0.7461   0.9958   0.7552     C
C       0.7494   0.5812   0.2358     C
C       0.7497   0.4973   0.7397     C
C       0.7503   0.5027   0.2397     C
C       0.7506   0.4188   0.7358     C
C       0.7539   0.0042   0.2552     C
O      0.75514  0.25514  0.24486     O
C       0.7552   0.7461   0.9958     C
O       0.7556   0.2444   0.7444     O
O       0.7571   0.7964   0.1089     O
C       0.7577   0.7641   0.0673     C
C       0.7603   0.2503   0.9973     C
N       0.7626   0.8922    0.773     N
C       0.7641   0.0673   0.7577     C
C       0.7642   0.2494   0.9188     C
N        0.773   0.7626   0.8922     N
N      0.77693  0.27977  0.39776     N
C       0.7785   0.9528   0.7929     C
N      0.77977  0.10224  0.22307     N
O         0.78  0.71795  0.39467     O
N       0.7803   0.7077   0.5992     N
N       0.7806   0.5986     0.71     N
O      0.78205  0.60533     0.28     O
C       0.7866     0.71   0.5403     C
C       0.7879     0.29   0.4617     C
C       0.7893   0.2092   0.0415     C
C         0.79   0.0383   0.2121     C
N         0.79   0.2194   0.0986     N
C         0.79   0.4597   0.2866     C
C       0.7908   0.5415   0.7107     C
O       0.7914   0.3885    0.708     O
O        0.792   0.2086   0.8885     O
N       0.7923   0.4008   0.2803     N
C       0.7929   0.7785   0.9528     C
O       0.7964   0.1089   0.7571     O
Zn      0.8008   0.8008   0.8008    Zn
Zn     0.80338  0.69662  0.30338    Zn
Zn     0.80404  0.80771  0.19082    Zn
Zn     0.80418  0.69008  0.69017    Zn
Zn     0.80771  0.19082  0.80404    Zn
H       0.8081   0.9636    0.828     H
Zn     0.80918  0.30404  0.69229    Zn
Zn     0.80983  0.19582  0.19008    Zn
Zn     0.80992  0.30983  0.30418    Zn
H       0.8101   0.1701   0.0255     H
H       0.8136     0.48    0.322     H
H       0.8182     0.02    0.179     H
H        0.821   0.3182     0.48     H
H        0.822   0.6864     0.52     H
H        0.828   0.8081   0.9636     H
H       0.8299   0.5255   0.6899     H
O       0.8885    0.792   0.2086     O
O       0.8911   0.2571   0.7036     O
N       0.8922    0.773   0.7626     N
O      0.89467     0.72  0.28205     O
N      0.89776  0.72307  0.72023     N
N       0.9008   0.2197   0.2077     N
N       0.9014     0.29   0.2806     N
C       0.9188   0.7642   0.2494     C
C       0.9327   0.2577   0.7359     C
C       0.9528   0.7929   0.7785     C
C       0.9585   0.2893   0.2908     C
C       0.9597   0.2134     0.21     C
C       0.9617   0.7121     0.71     C
H       0.9636    0.828   0.8081     H
H       0.9745   0.3101   0.3299     H
H         0.98    0.178   0.1864     H
H         0.98    0.679   0.6818     H
C       0.9958   0.7552   0.7461     C
C       0.9973   0.7603   0.2503     C
