data_I
_chemical_name_common  '/home/zhangsd/repos/MofS-CGCNN/ML/data/TSD/clean_cifs/BUKRUW02_clean'
_cell_length_a 20.16160
_cell_length_b 20.16160
_cell_length_c 20.16160
_cell_angle_alpha 90.00000
_cell_angle_beta  90.00000
_cell_angle_gamma 90.00000
_space_group_name_H-M_alt      'P 1'


loop_
_space_group_symop_operation_xyz
  'x, y, z' 

loop_
_atom_site_label
_atom_site_fract_x
_atom_site_fract_y
_atom_site_fract_z
_atom_site_type_symbol
C       0.0021   0.7364    0.248     C
C       0.0029   0.2403   0.7529     C
H       0.0177   0.8339    0.706     H
H        0.019   0.6841   0.8288     H
C       0.0326   0.7923   0.7223     C
C       0.0352   0.7098   0.7928     C
H       0.0495   0.1648   0.2867     H
C        0.053   0.2091   0.2711     C
C       0.0749   0.2361   0.7635     C
C       0.0758   0.7313   0.2208     C
N       0.0984   0.7667   0.7275     N
N       0.1016   0.2298   0.2718     N
N       0.1022   0.7217   0.7793     N
O       0.1037   0.7019   0.2082     O
N       0.1062     0.28   0.2216     N
O       0.1071   0.2755   0.7897     O
O       0.1074   0.2042   0.7265     O
O       0.1132   0.7905   0.2187     O
H       0.1648   0.2867   0.0495     H
H       0.1661    0.206   0.4823     H
H       0.1712    0.519   0.8159     H
H       0.1841   0.6712    0.981     H
Zn     0.18975  0.68975  0.81025    Zn
Zn     0.19113  0.69746  0.19584    Zn
Zn     0.19201  0.80281  0.69618    Zn
Zn     0.19584  0.19113  0.69746    Zn
Zn     0.19618  0.30799  0.19719    Zn
Zn     0.19719  0.19618  0.30799    Zn
Zn     0.19746  0.30416  0.80887    Zn
O       0.2019   0.2918   0.8963     O
O       0.2042   0.7265   0.1074     O
H        0.206   0.4823   0.1661     H
C       0.2072   0.5352   0.7902     C
C       0.2077   0.2223   0.4674     C
O       0.2082   0.1037   0.7019     O
C       0.2091   0.2711    0.053     C
O       0.2095   0.7187   0.3868     O
C       0.2098   0.7072   0.9648     C
O       0.2103   0.6071   0.2245     O
H       0.2133   0.9505   0.6648     H
O       0.2187   0.1132   0.7905     O
N         0.22   0.7784   0.6062     N
N       0.2207   0.6022   0.7783     N
C       0.2208   0.0758   0.7313     C
N       0.2216   0.1062     0.28     N
N       0.2217   0.7207   0.8978     N
C       0.2223   0.4674   0.2077     C
O       0.2245   0.2103   0.6071     O
O       0.2265   0.3926   0.7958     O
N       0.2275   0.4016   0.2333     N
N       0.2282   0.8984   0.7298     N
C       0.2289    0.947   0.7091     C
N       0.2298   0.2718   0.1016     N
C       0.2313   0.2792   0.9242     C
N       0.2333   0.2275   0.4016     N
C       0.2361   0.7635   0.0749     C
C       0.2364    0.252   0.9979     C
C       0.2365   0.5749   0.2639     C
C       0.2403   0.7529   0.0029     C
O        0.245    0.755    0.255     O
O        0.247    0.747    0.753     O
C       0.2471   0.5029   0.2597     C
C        0.248   0.0021   0.7364     C
C        0.252   0.9979   0.2364     C
C       0.2529   0.4971   0.7597     C
O        0.253    0.253    0.253     O
O        0.255    0.245    0.755     O
C       0.2597   0.2471   0.5029     C
C       0.2635   0.4251   0.7639     C
C       0.2636    0.748   0.4979     C
C       0.2639   0.2365   0.5749     C
N       0.2667   0.7725   0.9016     N
C       0.2687   0.7208   0.4242     C
N       0.2702   0.7282   0.6016     N
C       0.2711    0.053   0.2091     C
N       0.2718   0.1016   0.2298     N
N       0.2725   0.5984   0.7333     N
O       0.2735   0.6074   0.2958     O
O       0.2755   0.7897   0.1071     O
C       0.2777   0.5326   0.7077     C
N       0.2783   0.2793   0.3978     N
N       0.2784   0.8938     0.78     N
C       0.2792   0.9242   0.2313     C
N       0.2793   0.3978   0.2783     N
N         0.28   0.2216   0.1062     N
O       0.2813   0.8868   0.2905     O
H       0.2867   0.0495   0.1648     H
O       0.2897   0.3929   0.7245     O
C       0.2902   0.2928   0.4648     C
O       0.2905   0.2813   0.8868     O
C       0.2909   0.7289    0.553     C
O       0.2918   0.8963   0.2019     O
C       0.2923   0.7777   0.9674     C
C       0.2928   0.4648   0.2902     C
H        0.294   0.5177   0.6661     H
O       0.2958   0.2735   0.6074     O
O       0.2981   0.7082   0.3963     O
Zn     0.30254  0.69584  0.30887    Zn
Zn     0.30281  0.80382  0.80799    Zn
Zn     0.30382  0.69201  0.69719    Zn
Zn     0.30416  0.80887  0.19746    Zn
Zn     0.30799  0.19719  0.19618    Zn
Zn     0.30887  0.30254  0.69584    Zn
Zn     0.31025  0.31025  0.31025    Zn
H       0.3159   0.3288    0.481     H
H       0.3288    0.481   0.3159     H
H       0.3339    0.794   0.9823     H
H       0.3352   0.7133   0.5495     H
O       0.3868   0.2095   0.7187     O
O       0.3926   0.7958   0.2265     O
O       0.3929   0.7245   0.2897     O
N       0.3938     0.72   0.7216     N
O       0.3963   0.2981   0.7082     O
N       0.3978   0.2783   0.2793     N
N       0.3984   0.7702   0.7718     N
N       0.4016   0.2333   0.2275     N
C       0.4242   0.2687   0.7208     C
C       0.4251   0.7639   0.2635     C
C        0.447   0.7909   0.7711     C
H       0.4505   0.8352   0.7867     H
C       0.4648   0.2902   0.2928     C
C       0.4674   0.2077   0.2223     C
H        0.481   0.3159   0.3288     H
H       0.4823   0.1661    0.206     H
C       0.4971   0.7597   0.2529     C
C       0.4979   0.2636    0.748     C
C       0.5021   0.7636    0.752     C
C       0.5029   0.2597   0.2471     C
H       0.5177   0.6661    0.294     H
H        0.519   0.8159   0.1712     H
C       0.5326   0.7077   0.2777     C
C       0.5352   0.7902   0.2072     C
H       0.5495   0.3352   0.7133     H
C        0.553   0.2909   0.7289     C
C       0.5749   0.2639   0.2365     C
C       0.5758   0.7687   0.7792     C
N       0.5984   0.7333   0.2725     N
N       0.6016   0.2702   0.7282     N
N       0.6022   0.7783   0.2207     N
O       0.6037   0.7981   0.7918     O
N       0.6062     0.22   0.7784     N
O       0.6071   0.2245   0.2103     O
O       0.6074   0.2958   0.2735     O
O       0.6132   0.7095   0.7813     O
H       0.6648   0.2133   0.9505     H
H       0.6661    0.294   0.5177     H
H       0.6712    0.981   0.1841     H
H       0.6841   0.8288    0.019     H
Zn     0.68975  0.81025  0.18975    Zn
Zn     0.69113  0.80254  0.80416    Zn
Zn     0.69201  0.69719  0.30382    Zn
Zn     0.69584  0.30887  0.30254    Zn
Zn     0.69618  0.19201  0.80281    Zn
Zn     0.69719  0.30382  0.69201    Zn
Zn     0.69746  0.19584  0.19113    Zn
O       0.7019   0.2082   0.1037     O
O       0.7042   0.7735   0.8926     O
H        0.706   0.0177   0.8339     H
C       0.7072   0.9648   0.2098     C
C       0.7077   0.2777   0.5326     C
O       0.7082   0.3963   0.2981     O
C       0.7091   0.2289    0.947     C
O       0.7095   0.7813   0.6132     O
C       0.7098   0.7928   0.0352     C
O       0.7103   0.8929   0.7755     O
H       0.7133   0.5495   0.3352     H
O       0.7187   0.3868   0.2095     O
N         0.72   0.7216   0.3938     N
N       0.7207   0.8978   0.2217     N
C       0.7208   0.4242   0.2687     C
N       0.7216   0.3938     0.72     N
N       0.7217   0.7793   0.1022     N
C       0.7223   0.0326   0.7923     C
O       0.7245   0.2897   0.3929     O
O       0.7265   0.1074   0.2042     O
N       0.7275   0.0984   0.7667     N
N       0.7282   0.6016   0.2702     N
C       0.7289    0.553   0.2909     C
N       0.7298   0.2282   0.8984     N
C       0.7313   0.2208   0.0758     C
N       0.7333   0.2725   0.5984     N
C       0.7361   0.7365   0.9251     C
C       0.7364    0.248   0.0021     C
C       0.7365   0.9251   0.7361     C
C       0.7403   0.7471   0.9971     C
O        0.745    0.745    0.745     O
O        0.747    0.753    0.247     O
C       0.7471   0.9971   0.7403     C
C        0.748   0.4979   0.2636     C
C        0.752   0.5021   0.7636     C
C       0.7529   0.0029   0.2403     C
O        0.753    0.247    0.747     O
O        0.755    0.255    0.245     O
C       0.7597   0.2529   0.4971     C
C       0.7635   0.0749   0.2361     C
C       0.7636    0.752   0.5021     C
C       0.7639   0.2635   0.4251     C
N       0.7667   0.7275   0.0984     N
C       0.7687   0.7792   0.5758     C
N       0.7702   0.7718   0.3984     N
C       0.7711    0.447   0.7909     C
N       0.7718   0.3984   0.7702     N
N       0.7725   0.9016   0.2667     N
O       0.7735   0.8926   0.7042     O
O       0.7755   0.7103   0.8929     O
C       0.7777   0.9674   0.2923     C
N       0.7783   0.2207   0.6022     N
N       0.7784   0.6062     0.22     N
C       0.7792   0.5758   0.7687     C
N       0.7793   0.1022   0.7217     N
N         0.78   0.2784   0.8938     N
O       0.7813   0.6132   0.7095     O
H       0.7867   0.4505   0.8352     H
O       0.7897   0.1071   0.2755     O
C       0.7902   0.2072   0.5352     C
O       0.7905   0.2187   0.1132     O
C       0.7909   0.7711    0.447     C
O       0.7918   0.6037   0.7981     O
C       0.7923   0.7223   0.0326     C
C       0.7928   0.0352   0.7098     C
H        0.794   0.9823   0.3339     H
O       0.7958   0.2265   0.3926     O
O       0.7981   0.7918   0.6037     O
Zn     0.80254  0.80416  0.69113    Zn
Zn     0.80281  0.69618  0.19201    Zn
Zn     0.80382  0.80799  0.30281    Zn
Zn     0.80416  0.69113  0.80254    Zn
Zn     0.80799  0.30281  0.80382    Zn
Zn     0.80887  0.19746  0.30416    Zn
Zn     0.81025  0.18975  0.68975    Zn
H       0.8159   0.1712    0.519     H
H       0.8288    0.019   0.6841     H
H       0.8339    0.706   0.0177     H
H       0.8352   0.7867   0.4505     H
O       0.8868   0.2905   0.2813     O
O       0.8926   0.7042   0.7735     O
O       0.8929   0.7755   0.7103     O
N       0.8938     0.78   0.2784     N
O       0.8963   0.2019   0.2918     O
N       0.8978   0.2217   0.7207     N
N       0.8984   0.7298   0.2282     N
N       0.9016   0.2667   0.7725     N
C       0.9242   0.2313   0.2792     C
C       0.9251   0.7361   0.7365     C
C        0.947   0.7091   0.2289     C
H       0.9505   0.6648   0.2133     H
C       0.9648   0.2098   0.7072     C
C       0.9674   0.2923   0.7777     C
H        0.981   0.1841   0.6712     H
H       0.9823   0.3339    0.794     H
C       0.9971   0.7403   0.7471     C
C       0.9979   0.2364    0.252     C
