data_I
_chemical_name_common  '/home/zhangsd/repos/MofS-CGCNN/ML/data/TSD/clean_cifs/BUXZAX_clean'
_cell_length_a 42.76450
_cell_length_b 42.76450
_cell_length_c 16.75560
_cell_angle_alpha 90.00000
_cell_angle_beta  90.00000
_cell_angle_gamma 120.00000
_space_group_name_H-M_alt      'P 1'


loop_
_space_group_symop_operation_xyz
  'x, y, z' 

loop_
_atom_site_label
_atom_site_fract_x
_atom_site_fract_y
_atom_site_fract_z
_atom_site_type_symbol
Hf         0.0   0.4592  0.39679    Hf
Hf         0.0   0.4592  0.60321    Hf
Hf         0.0   0.5408  0.39679    Hf
Hf         0.0   0.5408  0.60321    Hf
O      0.03202  0.51601   0.3944     O
O      0.03202  0.51601   0.6056     O
O      0.03298  0.47688      0.5     O
O      0.03298   0.5561      0.5     O
O      0.05423  0.46885   0.3554     O
O      0.05423  0.46885   0.6446     O
O      0.05423  0.58538   0.3554     O
O      0.05423  0.58538   0.6446     O
Hf      0.0669  0.53345      0.5    Hf
H       0.0824   0.4438   0.2667     H
H       0.0824   0.4438   0.7333     H
H       0.0824   0.6386   0.2667     H
H       0.0824   0.6386   0.7333     H
C       0.0876   0.4936   0.3696     C
C       0.0876   0.4936   0.6304     C
C       0.0876    0.594   0.3696     C
C       0.0876    0.594   0.6304     C
O      0.09703  0.51802   0.4194     O
O      0.09703  0.51802   0.5806     O
O      0.09703  0.57901   0.4194     O
O      0.09703  0.57901   0.5806     O
C       0.1059   0.4639   0.2647     C
C       0.1059   0.4639   0.7353     C
C       0.1059    0.642   0.2647     C
C       0.1059    0.642   0.7353     C
C       0.1157    0.493   0.3152     C
C       0.1157    0.493   0.6848     C
C       0.1157   0.6227   0.3152     C
C       0.1157   0.6227   0.6848     C
H        0.124   0.4447   0.1786     H
H        0.124   0.4447   0.8214     H
H        0.124   0.6793   0.1786     H
H        0.124   0.6793   0.8214     H
H       0.1299   0.4767   0.0608     H
H       0.1299   0.4767   0.9392     H
H       0.1299   0.6532   0.0608     H
H       0.1299   0.6532   0.9392     H
C       0.1305   0.4646   0.2124     C
C       0.1305   0.4646   0.7876     C
C       0.1305   0.6659   0.2124     C
C       0.1305   0.6659   0.7876     C
C       0.1488   0.5238   0.3092     C
C       0.1488   0.5238   0.6908     C
C       0.1488    0.625   0.3092     C
C       0.1488    0.625   0.6908     C
C       0.1515   0.4981   0.0406     C
C       0.1515   0.4981   0.9594     C
C       0.1515   0.6534   0.0406     C
C       0.1515   0.6534   0.9594     C
H       0.1517   0.5197   0.0608     H
H       0.1517   0.5197   0.9392     H
H       0.1517    0.632   0.0608     H
H       0.1517    0.632   0.9392     H
H       0.1542   0.5442   0.3403     H
H       0.1542   0.5442   0.6597     H
H       0.1542     0.61   0.3403     H
H       0.1542     0.61   0.6597     H
C       0.1654   0.4948   0.2084     C
C       0.1654   0.4948   0.7916     C
C       0.1654   0.6706   0.2084     C
C       0.1654   0.6706   0.7916     C
C       0.1745   0.5247   0.2566     C
C       0.1745   0.5247   0.7434     C
C       0.1745   0.6498   0.2566     C
C       0.1745   0.6498   0.7434     C
C       0.1827   0.4978   0.0659     C
C       0.1827   0.4978   0.9341     C
C       0.1827   0.6849   0.0659     C
C       0.1827   0.6849   0.9341     C
C       0.1919   0.4962    0.144     C
C       0.1919   0.4962    0.856     C
C       0.1919   0.6957    0.144     C
C       0.1919   0.6957    0.856     C
H       0.1977   0.5452   0.2538     H
H       0.1977   0.5452   0.7462     H
H       0.1977   0.6525   0.2538     H
H       0.1977   0.6525   0.7462     H
N       0.2024   0.4973      0.0     N
N       0.2024   0.7051      0.0     N
H       0.2181   0.4924   0.2967     H
H       0.2181   0.4924   0.7033     H
H       0.2181   0.7257   0.2967     H
H       0.2181   0.7257   0.7033     H
C       0.2228   0.4958   0.1697     C
C       0.2228   0.4958   0.8303     C
C       0.2228    0.727   0.1697     C
C       0.2228    0.727   0.8303     C
C       0.2317   0.4936   0.2516     C
C       0.2317   0.4936   0.7484     C
C       0.2317   0.7381   0.2516     C
C       0.2317   0.7381   0.7484     C
N      0.24935   0.4987   0.1208     N
N      0.24935   0.4987   0.8792     N
N      0.24935  0.75065   0.1208     N
N      0.24935  0.75065   0.8792     N
Fe     0.25213  0.50426      0.0    Fe
Fe     0.25213  0.74787      0.0    Fe
C       0.2619   0.4936   0.2516     C
C       0.2619   0.4936   0.7484     C
C       0.2619   0.7683   0.2516     C
C       0.2619   0.7683   0.7484     C
C        0.273   0.4958   0.1697     C
C        0.273   0.4958   0.8303     C
C        0.273   0.7772   0.1697     C
C        0.273   0.7772   0.8303     C
H       0.2743   0.4924   0.2967     H
H       0.2743   0.4924   0.7033     H
H       0.2743   0.7819   0.2967     H
H       0.2743   0.7819   0.7033     H
Cl     0.28505   0.5701      0.0    Cl
Cl     0.28505  0.71495      0.0    Cl
N       0.2949   0.4973      0.0     N
N       0.2949   0.7976      0.0     N
C       0.3043   0.4962    0.144     C
C       0.3043   0.4962    0.856     C
C       0.3043   0.8081    0.144     C
C       0.3043   0.8081    0.856     C
C       0.3151   0.4978   0.0659     C
C       0.3151   0.4978   0.9341     C
C       0.3151   0.8173   0.0659     C
C       0.3151   0.8173   0.9341     C
H       0.3207   0.4447   0.1786     H
H       0.3207   0.4447   0.8214     H
H       0.3207    0.876   0.1786     H
H       0.3207    0.876   0.8214     H
C       0.3294   0.4948   0.2084     C
C       0.3294   0.4948   0.7916     C
C       0.3294   0.8346   0.2084     C
C       0.3294   0.8346   0.7916     C
C       0.3341   0.4646   0.2124     C
C       0.3341   0.4646   0.7876     C
C       0.3341   0.8695   0.2124     C
C       0.3341   0.8695   0.7876     C
C       0.3466   0.4981   0.0406     C
C       0.3466   0.4981   0.9594     C
C       0.3466   0.8485   0.0406     C
C       0.3466   0.8485   0.9594     C
H       0.3468   0.4767   0.0608     H
H       0.3468   0.4767   0.9392     H
H       0.3468   0.8701   0.0608     H
H       0.3468   0.8701   0.9392     H
H       0.3475   0.5452   0.2538     H
H       0.3475   0.5452   0.7462     H
H       0.3475   0.8023   0.2538     H
H       0.3475   0.8023   0.7462     H
C       0.3502   0.5247   0.2566     C
C       0.3502   0.5247   0.7434     C
C       0.3502   0.8255   0.2566     C
C       0.3502   0.8255   0.7434     C
C        0.358   0.4639   0.2647     C
C        0.358   0.4639   0.7353     C
C        0.358   0.8941   0.2647     C
C        0.358   0.8941   0.7353     C
H       0.3614   0.4438   0.2667     H
H       0.3614   0.4438   0.7333     H
H       0.3614   0.9176   0.2667     H
H       0.3614   0.9176   0.7333     H
H        0.368   0.5197   0.0608     H
H        0.368   0.5197   0.9392     H
H        0.368   0.8483   0.0608     H
H        0.368   0.8483   0.9392     H
C        0.375   0.5238   0.3092     C
C        0.375   0.5238   0.6908     C
C        0.375   0.8512   0.3092     C
C        0.375   0.8512   0.6908     C
C       0.3773    0.493   0.3152     C
C       0.3773    0.493   0.6848     C
C       0.3773   0.8843   0.3152     C
C       0.3773   0.8843   0.6848     C
H         0.39   0.5442   0.3403     H
H         0.39   0.5442   0.6597     H
H         0.39   0.8458   0.3403     H
H         0.39   0.8458   0.6597     H
C        0.406   0.4936   0.3696     C
C        0.406   0.4936   0.6304     C
C        0.406   0.9124   0.3696     C
C        0.406   0.9124   0.6304     C
O      0.41462  0.46885   0.3554     O
O      0.41462  0.46885   0.6446     O
O      0.41462  0.94577   0.3554     O
O      0.41462  0.94577   0.6446     O
O      0.42099  0.51802   0.4194     O
O      0.42099  0.51802   0.5806     O
O      0.42099  0.90297   0.4194     O
O      0.42099  0.90297   0.5806     O
Cl      0.4299  0.71495      0.0    Cl
H       0.4438   0.0824   0.2667     H
H       0.4438   0.0824   0.7333     H
H       0.4438   0.3614   0.2667     H
H       0.4438   0.3614   0.7333     H
O       0.4439  0.47688      0.5     O
O       0.4439  0.96702      0.5     O
H       0.4447    0.124   0.1786     H
H       0.4447    0.124   0.8214     H
H       0.4447   0.3207   0.1786     H
H       0.4447   0.3207   0.8214     H
H       0.4548   0.6525   0.2538     H
H       0.4548   0.6525   0.7462     H
H       0.4548   0.8023   0.2538     H
H       0.4548   0.8023   0.7462     H
H       0.4558     0.61   0.3403     H
H       0.4558     0.61   0.6597     H
H       0.4558   0.8458   0.3403     H
H       0.4558   0.8458   0.6597     H
Hf      0.4592      0.0  0.39679    Hf
Hf      0.4592      0.0  0.60321    Hf
Hf      0.4592   0.4592  0.39679    Hf
Hf      0.4592   0.4592  0.60321    Hf
C       0.4639   0.1059   0.2647     C
C       0.4639   0.1059   0.7353     C
C       0.4639    0.358   0.2647     C
C       0.4639    0.358   0.7353     C
C       0.4646   0.1305   0.2124     C
C       0.4646   0.1305   0.7876     C
C       0.4646   0.3341   0.2124     C
C       0.4646   0.3341   0.7876     C
Hf     0.46655  0.53345      0.5    Hf
Hf     0.46655   0.9331      0.5    Hf
O      0.46885  0.05423   0.3554     O
O      0.46885  0.05423   0.6446     O
O      0.46885  0.41462   0.3554     O
O      0.46885  0.41462   0.6446     O
C       0.4753   0.6498   0.2566     C
C       0.4753   0.6498   0.7434     C
C       0.4753   0.8255   0.2566     C
C       0.4753   0.8255   0.7434     C
C       0.4762    0.625   0.3092     C
C       0.4762    0.625   0.6908     C
C       0.4762   0.8512   0.3092     C
C       0.4762   0.8512   0.6908     C
H       0.4767   0.1299   0.0608     H
H       0.4767   0.1299   0.9392     H
H       0.4767   0.3468   0.0608     H
H       0.4767   0.3468   0.9392     H
O      0.47688  0.03298      0.5     O
O      0.47688   0.4439      0.5     O
H       0.4803    0.632   0.0608     H
H       0.4803    0.632   0.9392     H
H       0.4803   0.8483   0.0608     H
H       0.4803   0.8483   0.9392     H
O      0.48198  0.57901   0.4194     O
O      0.48198  0.57901   0.5806     O
O      0.48198  0.90297   0.4194     O
O      0.48198  0.90297   0.5806     O
O      0.48399  0.51601   0.3944     O
O      0.48399  0.51601   0.6056     O
O      0.48399  0.96798   0.3944     O
O      0.48399  0.96798   0.6056     O
H       0.4924   0.2181   0.2967     H
H       0.4924   0.2181   0.7033     H
H       0.4924   0.2743   0.2967     H
H       0.4924   0.2743   0.7033     H
C        0.493   0.1157   0.3152     C
C        0.493   0.1157   0.6848     C
C        0.493   0.3773   0.3152     C
C        0.493   0.3773   0.6848     C
C       0.4936   0.0876   0.3696     C
C       0.4936   0.0876   0.6304     C
C       0.4936   0.2317   0.2516     C
C       0.4936   0.2317   0.7484     C
C       0.4936   0.2619   0.2516     C
C       0.4936   0.2619   0.7484     C
C       0.4936    0.406   0.3696     C
C       0.4936    0.406   0.6304     C
C       0.4948   0.1654   0.2084     C
C       0.4948   0.1654   0.7916     C
C       0.4948   0.3294   0.2084     C
C       0.4948   0.3294   0.7916     C
Fe     0.49574  0.74787      0.0    Fe
C       0.4958   0.2228   0.1697     C
C       0.4958   0.2228   0.8303     C
C       0.4958    0.273   0.1697     C
C       0.4958    0.273   0.8303     C
C       0.4962   0.1919    0.144     C
C       0.4962   0.1919    0.856     C
C       0.4962   0.3043    0.144     C
C       0.4962   0.3043    0.856     C
N       0.4973   0.2024      0.0     N
N       0.4973   0.2949      0.0     N
C       0.4978   0.1827   0.0659     C
C       0.4978   0.1827   0.9341     C
C       0.4978   0.3151   0.0659     C
C       0.4978   0.3151   0.9341     C
C       0.4981   0.1515   0.0406     C
C       0.4981   0.1515   0.9594     C
C       0.4981   0.3466   0.0406     C
C       0.4981   0.3466   0.9594     C
N       0.4987  0.24935   0.1208     N
N       0.4987  0.24935   0.8792     N
N       0.5013  0.75065   0.1208     N
N       0.5013  0.75065   0.8792     N
C       0.5019   0.6534   0.0406     C
C       0.5019   0.6534   0.9594     C
C       0.5019   0.8485   0.0406     C
C       0.5019   0.8485   0.9594     C
C       0.5022   0.6849   0.0659     C
C       0.5022   0.6849   0.9341     C
C       0.5022   0.8173   0.0659     C
C       0.5022   0.8173   0.9341     C
N       0.5027   0.7051      0.0     N
N       0.5027   0.7976      0.0     N
C       0.5038   0.6957    0.144     C
C       0.5038   0.6957    0.856     C
C       0.5038   0.8081    0.144     C
C       0.5038   0.8081    0.856     C
C       0.5042    0.727   0.1697     C
C       0.5042    0.727   0.8303     C
C       0.5042   0.7772   0.1697     C
C       0.5042   0.7772   0.8303     C
Fe     0.50426  0.25213      0.0    Fe
C       0.5052   0.6706   0.2084     C
C       0.5052   0.6706   0.7916     C
C       0.5052   0.8346   0.2084     C
C       0.5052   0.8346   0.7916     C
C       0.5064    0.594   0.3696     C
C       0.5064    0.594   0.6304     C
C       0.5064   0.7381   0.2516     C
C       0.5064   0.7381   0.7484     C
C       0.5064   0.7683   0.2516     C
C       0.5064   0.7683   0.7484     C
C       0.5064   0.9124   0.3696     C
C       0.5064   0.9124   0.6304     C
C        0.507   0.6227   0.3152     C
C        0.507   0.6227   0.6848     C
C        0.507   0.8843   0.3152     C
C        0.507   0.8843   0.6848     C
H       0.5076   0.7257   0.2967     H
H       0.5076   0.7257   0.7033     H
H       0.5076   0.7819   0.2967     H
H       0.5076   0.7819   0.7033     H
O      0.51601  0.03202   0.3944     O
O      0.51601  0.03202   0.6056     O
O      0.51601  0.48399   0.3944     O
O      0.51601  0.48399   0.6056     O
O      0.51802  0.09703   0.4194     O
O      0.51802  0.09703   0.5806     O
O      0.51802  0.42099   0.4194     O
O      0.51802  0.42099   0.5806     O
H       0.5197   0.1517   0.0608     H
H       0.5197   0.1517   0.9392     H
H       0.5197    0.368   0.0608     H
H       0.5197    0.368   0.9392     H
O      0.52312   0.5561      0.5     O
O      0.52312  0.96702      0.5     O
H       0.5233   0.6532   0.0608     H
H       0.5233   0.6532   0.9392     H
H       0.5233   0.8701   0.0608     H
H       0.5233   0.8701   0.9392     H
C       0.5238   0.1488   0.3092     C
C       0.5238   0.1488   0.6908     C
C       0.5238    0.375   0.3092     C
C       0.5238    0.375   0.6908     C
C       0.5247   0.1745   0.2566     C
C       0.5247   0.1745   0.7434     C
C       0.5247   0.3502   0.2566     C
C       0.5247   0.3502   0.7434     C
O      0.53115  0.58538   0.3554     O
O      0.53115  0.58538   0.6446     O
O      0.53115  0.94577   0.3554     O
O      0.53115  0.94577   0.6446     O
Hf     0.53345   0.0669      0.5    Hf
Hf     0.53345  0.46655      0.5    Hf
C       0.5354   0.6659   0.2124     C
C       0.5354   0.6659   0.7876     C
C       0.5354   0.8695   0.2124     C
C       0.5354   0.8695   0.7876     C
C       0.5361    0.642   0.2647     C
C       0.5361    0.642   0.7353     C
C       0.5361   0.8941   0.2647     C
C       0.5361   0.8941   0.7353     C
Hf      0.5408      0.0  0.39679    Hf
Hf      0.5408      0.0  0.60321    Hf
Hf      0.5408   0.5408  0.39679    Hf
Hf      0.5408   0.5408  0.60321    Hf
H       0.5442   0.1542   0.3403     H
H       0.5442   0.1542   0.6597     H
H       0.5442     0.39   0.3403     H
H       0.5442     0.39   0.6597     H
H       0.5452   0.1977   0.2538     H
H       0.5452   0.1977   0.7462     H
H       0.5452   0.3475   0.2538     H
H       0.5452   0.3475   0.7462     H
H       0.5553   0.6793   0.1786     H
H       0.5553   0.6793   0.8214     H
H       0.5553    0.876   0.1786     H
H       0.5553    0.876   0.8214     H
O       0.5561  0.03298      0.5     O
O       0.5561  0.52312      0.5     O
H       0.5562   0.6386   0.2667     H
H       0.5562   0.6386   0.7333     H
H       0.5562   0.9176   0.2667     H
H       0.5562   0.9176   0.7333     H
Cl      0.5701  0.28505      0.0    Cl
O      0.57901  0.09703   0.4194     O
O      0.57901  0.09703   0.5806     O
O      0.57901  0.48198   0.4194     O
O      0.57901  0.48198   0.5806     O
O      0.58538  0.05423   0.3554     O
O      0.58538  0.05423   0.6446     O
O      0.58538  0.53115   0.3554     O
O      0.58538  0.53115   0.6446     O
C        0.594   0.0876   0.3696     C
C        0.594   0.0876   0.6304     C
C        0.594   0.5064   0.3696     C
C        0.594   0.5064   0.6304     C
H         0.61   0.1542   0.3403     H
H         0.61   0.1542   0.6597     H
H         0.61   0.4558   0.3403     H
H         0.61   0.4558   0.6597     H
C       0.6227   0.1157   0.3152     C
C       0.6227   0.1157   0.6848     C
C       0.6227    0.507   0.3152     C
C       0.6227    0.507   0.6848     C
C        0.625   0.1488   0.3092     C
C        0.625   0.1488   0.6908     C
C        0.625   0.4762   0.3092     C
C        0.625   0.4762   0.6908     C
H        0.632   0.1517   0.0608     H
H        0.632   0.1517   0.9392     H
H        0.632   0.4803   0.0608     H
H        0.632   0.4803   0.9392     H
H       0.6386   0.0824   0.2667     H
H       0.6386   0.0824   0.7333     H
H       0.6386   0.5562   0.2667     H
H       0.6386   0.5562   0.7333     H
C        0.642   0.1059   0.2647     C
C        0.642   0.1059   0.7353     C
C        0.642   0.5361   0.2647     C
C        0.642   0.5361   0.7353     C
C       0.6498   0.1745   0.2566     C
C       0.6498   0.1745   0.7434     C
C       0.6498   0.4753   0.2566     C
C       0.6498   0.4753   0.7434     C
H       0.6525   0.1977   0.2538     H
H       0.6525   0.1977   0.7462     H
H       0.6525   0.4548   0.2538     H
H       0.6525   0.4548   0.7462     H
H       0.6532   0.1299   0.0608     H
H       0.6532   0.1299   0.9392     H
H       0.6532   0.5233   0.0608     H
H       0.6532   0.5233   0.9392     H
C       0.6534   0.1515   0.0406     C
C       0.6534   0.1515   0.9594     C
C       0.6534   0.5019   0.0406     C
C       0.6534   0.5019   0.9594     C
C       0.6659   0.1305   0.2124     C
C       0.6659   0.1305   0.7876     C
C       0.6659   0.5354   0.2124     C
C       0.6659   0.5354   0.7876     C
C       0.6706   0.1654   0.2084     C
C       0.6706   0.1654   0.7916     C
C       0.6706   0.5052   0.2084     C
C       0.6706   0.5052   0.7916     C
H       0.6793    0.124   0.1786     H
H       0.6793    0.124   0.8214     H
H       0.6793   0.5553   0.1786     H
H       0.6793   0.5553   0.8214     H
C       0.6849   0.1827   0.0659     C
C       0.6849   0.1827   0.9341     C
C       0.6849   0.5022   0.0659     C
C       0.6849   0.5022   0.9341     C
C       0.6957   0.1919    0.144     C
C       0.6957   0.1919    0.856     C
C       0.6957   0.5038    0.144     C
C       0.6957   0.5038    0.856     C
N       0.7051   0.2024      0.0     N
N       0.7051   0.5027      0.0     N
Cl     0.71495  0.28505      0.0    Cl
Cl     0.71495   0.4299      0.0    Cl
H       0.7257   0.2181   0.2967     H
H       0.7257   0.2181   0.7033     H
H       0.7257   0.5076   0.2967     H
H       0.7257   0.5076   0.7033     H
C        0.727   0.2228   0.1697     C
C        0.727   0.2228   0.8303     C
C        0.727   0.5042   0.1697     C
C        0.727   0.5042   0.8303     C
C       0.7381   0.2317   0.2516     C
C       0.7381   0.2317   0.7484     C
C       0.7381   0.5064   0.2516     C
C       0.7381   0.5064   0.7484     C
Fe     0.74787  0.25213      0.0    Fe
Fe     0.74787  0.49574      0.0    Fe
N      0.75065  0.24935   0.1208     N
N      0.75065  0.24935   0.8792     N
N      0.75065   0.5013   0.1208     N
N      0.75065   0.5013   0.8792     N
C       0.7683   0.2619   0.2516     C
C       0.7683   0.2619   0.7484     C
C       0.7683   0.5064   0.2516     C
C       0.7683   0.5064   0.7484     C
C       0.7772    0.273   0.1697     C
C       0.7772    0.273   0.8303     C
C       0.7772   0.5042   0.1697     C
C       0.7772   0.5042   0.8303     C
H       0.7819   0.2743   0.2967     H
H       0.7819   0.2743   0.7033     H
H       0.7819   0.5076   0.2967     H
H       0.7819   0.5076   0.7033     H
N       0.7976   0.2949      0.0     N
N       0.7976   0.5027      0.0     N
H       0.8023   0.3475   0.2538     H
H       0.8023   0.3475   0.7462     H
H       0.8023   0.4548   0.2538     H
H       0.8023   0.4548   0.7462     H
C       0.8081   0.3043    0.144     C
C       0.8081   0.3043    0.856     C
C       0.8081   0.5038    0.144     C
C       0.8081   0.5038    0.856     C
C       0.8173   0.3151   0.0659     C
C       0.8173   0.3151   0.9341     C
C       0.8173   0.5022   0.0659     C
C       0.8173   0.5022   0.9341     C
C       0.8255   0.3502   0.2566     C
C       0.8255   0.3502   0.7434     C
C       0.8255   0.4753   0.2566     C
C       0.8255   0.4753   0.7434     C
C       0.8346   0.3294   0.2084     C
C       0.8346   0.3294   0.7916     C
C       0.8346   0.5052   0.2084     C
C       0.8346   0.5052   0.7916     C
H       0.8458     0.39   0.3403     H
H       0.8458     0.39   0.6597     H
H       0.8458   0.4558   0.3403     H
H       0.8458   0.4558   0.6597     H
H       0.8483    0.368   0.0608     H
H       0.8483    0.368   0.9392     H
H       0.8483   0.4803   0.0608     H
H       0.8483   0.4803   0.9392     H
C       0.8485   0.3466   0.0406     C
C       0.8485   0.3466   0.9594     C
C       0.8485   0.5019   0.0406     C
C       0.8485   0.5019   0.9594     C
C       0.8512    0.375   0.3092     C
C       0.8512    0.375   0.6908     C
C       0.8512   0.4762   0.3092     C
C       0.8512   0.4762   0.6908     C
C       0.8695   0.3341   0.2124     C
C       0.8695   0.3341   0.7876     C
C       0.8695   0.5354   0.2124     C
C       0.8695   0.5354   0.7876     C
H       0.8701   0.3468   0.0608     H
H       0.8701   0.3468   0.9392     H
H       0.8701   0.5233   0.0608     H
H       0.8701   0.5233   0.9392     H
H        0.876   0.3207   0.1786     H
H        0.876   0.3207   0.8214     H
H        0.876   0.5553   0.1786     H
H        0.876   0.5553   0.8214     H
C       0.8843   0.3773   0.3152     C
C       0.8843   0.3773   0.6848     C
C       0.8843    0.507   0.3152     C
C       0.8843    0.507   0.6848     C
C       0.8941    0.358   0.2647     C
C       0.8941    0.358   0.7353     C
C       0.8941   0.5361   0.2647     C
C       0.8941   0.5361   0.7353     C
O      0.90297  0.42099   0.4194     O
O      0.90297  0.42099   0.5806     O
O      0.90297  0.48198   0.4194     O
O      0.90297  0.48198   0.5806     O
C       0.9124    0.406   0.3696     C
C       0.9124    0.406   0.6304     C
C       0.9124   0.5064   0.3696     C
C       0.9124   0.5064   0.6304     C
H       0.9176   0.3614   0.2667     H
H       0.9176   0.3614   0.7333     H
H       0.9176   0.5562   0.2667     H
H       0.9176   0.5562   0.7333     H
Hf      0.9331  0.46655      0.5    Hf
O      0.94577  0.41462   0.3554     O
O      0.94577  0.41462   0.6446     O
O      0.94577  0.53115   0.3554     O
O      0.94577  0.53115   0.6446     O
O      0.96702   0.4439      0.5     O
O      0.96702  0.52312      0.5     O
O      0.96798  0.48399   0.3944     O
O      0.96798  0.48399   0.6056     O
