data_I
_chemical_name_common  '/home/zhangsd/repos/MofS-CGCNN/ML/data/TSD/clean_cifs/CABQEB_clean'
_cell_length_a 11.56500
_cell_length_b 17.72330
_cell_length_c 17.72330
_cell_angle_alpha 83.88940
_cell_angle_beta  70.95780
_cell_angle_gamma 70.95770
_space_group_name_H-M_alt      'P 1'


loop_
_space_group_symop_operation_xyz
  'x, y, z' 

loop_
_atom_site_label
_atom_site_fract_x
_atom_site_fract_y
_atom_site_fract_z
_atom_site_type_symbol
Co         0.0      0.0      0.0    Co
Co         0.0      0.0      0.5    Co
Co         0.0      0.5     -0.0    Co
O       0.0026   0.9482   0.3942     O
O       0.0081   0.1912   0.4936     O
H       0.0122   0.9199   0.7239     H
H       0.0137   0.1353   0.0893     H
O       0.0144    0.926    0.271     O
C       0.0146   0.1842   0.0606     C
C       0.0154   0.0274   0.6718     C
H       0.0231   0.3498   0.5874     H
Co      0.0266   0.7252   0.1708    Co
H       0.0292   0.3996    0.807     H
Co      0.0375   0.0878   0.8324    Co
C       0.0428   0.1718   0.9726     C
O       0.0492   0.1058   0.9482     O
O       0.0596    0.229    0.926     O
O       0.0621   0.5946   0.0252     O
C       0.0644   0.6494   0.3978     C
H       0.0679   0.7761   0.9199     H
C       0.0752   0.9394   0.6842     C
H       0.0755   0.6736     0.44     H
O       0.0758   0.3518   0.8096     O
H       0.0782   0.2035   0.0685     H
C       0.0867   0.1458   0.4368     C
O       0.0873   0.9748   0.0946     O
O       0.0944    0.074    0.431     O
C       0.0955   0.6967   0.3219     C
O       0.0994    0.426    0.069     O
H        0.103   0.9107   0.6353     H
O       0.1074   0.6683   0.2579     O
O       0.1102   0.7643   0.3261     O
H       0.1136   0.5536   0.5534     H
O       0.1146   0.8096   0.1482     O
H       0.1208   0.5952   0.3902     H
Co      0.1253   0.3324   0.9122    Co
O       0.1255   0.1739   0.7643     O
Co      0.1301   0.8324   0.4122    Co
H       0.1311   0.4695   0.5227     H
H       0.1388   0.2082   0.3374     H
H       0.1467   0.9315   0.7035     H
H        0.149   0.5893   0.8647     H
H       0.1498   0.7035   0.5685     H
O        0.155   0.4482   0.8942     O
H        0.156   0.5801   0.7761     H
H       0.1638    0.807   0.1004     H
C       0.1655    0.595    0.038     C
O       0.1684    0.931    0.926     O
C       0.1693   0.3542   0.0632     C
O       0.1724   0.6437   0.0815     O
C       0.1747   0.5027   0.5339     C
C       0.1798   0.1791   0.3753     C
O       0.1819   0.9054   0.4748     O
O       0.1839   0.4185   0.6437     O
H       0.1844   0.2918   0.1626     H
O       0.1929   0.3088   0.0064     O
Co      0.1974   0.8292   0.2252    Co
C       0.1988   0.5606   0.8158     C
O       0.1993   0.9936   0.8088     O
H       0.2016   0.2158   0.4004     H
C       0.2035    0.962    0.095     C
C       0.2078   0.1781   0.6967     C
C       0.2146   0.4726   0.8282     C
O       0.2243   0.2421   0.6683     O
C       0.2325   0.9368   0.8542     C
C       0.2342   0.3209   0.1247     C
H       0.2375   0.5115   0.4857     H
C       0.2395    0.462    0.595     C
C       0.2406   0.6842   0.5606     C
H       0.2434    0.362   0.1516     H
Co      0.2482   0.3292   0.7252    Co
H       0.2509     0.06   0.6736     H
H        0.251   0.0143   0.5115     H
O       0.2539   0.9185   0.1437     O
H        0.257    0.138   0.3484     H
H       0.2617   0.6353   0.5893     H
O       0.2628   0.8518   0.3096     O
H       0.2639   0.7239   0.5801     H
H       0.2642   0.8996    0.307     H
H       0.2653   0.0115   0.9857     H
H       0.2768   0.4857   0.9885     H
H       0.2794   0.0536   0.0534     H
H       0.2817   0.5685   0.7965     H
H        0.284   0.1098   0.5952     H
O       0.2854    0.729    0.426     O
C       0.2862   0.1022   0.6494     C
O       0.2886    0.426    0.771     O
C       0.2887   0.0027   0.0339     C
C       0.2914   0.5339   0.9973     C
C       0.2985    0.905    0.462     C
O       0.2994   0.2643   0.8261     O
H       0.3109   0.1736     0.94     H
C       0.3128   0.6718   0.4726     C
H       0.3178   0.2842   0.0996     H
C       0.3226   0.9661   0.5027     C
H       0.3328   0.9466   0.5536     H
H        0.333   0.5534   0.9464     H
O       0.3433   0.4748   0.5946     O
H       0.3462   0.5227   0.0305     H
H        0.347   0.8374   0.7918     H
C       0.3589   0.8753   0.8209     C
O       0.3653   0.7421   0.1683     O
H       0.3729   0.0874   0.6502     H
H       0.3767   0.9695   0.0227     H
C       0.3859   0.1967   0.8219     C
C       0.3884   0.1494   0.8978     C
H       0.3895   0.5874   0.1502     H
H       0.3938   0.0952   0.8902     H
H       0.3946   0.3484    0.362     H
H        0.395   0.8484    0.862     H
O       0.3968   0.6058   0.4482     O
O       0.3976   0.8563   0.4185     O
H        0.398   0.4004   0.2842     H
H       0.3994   0.9773   0.4695     H
C       0.4174   0.6781   0.1967     C
H       0.4174   0.9004   0.7842     H
Co      0.4226   0.7748   0.3292    Co
O       0.4276   0.3096   0.6482     O
H       0.4288    0.307   0.6004     H
O       0.4363   0.6739   0.2643     O
C       0.4449   0.3753   0.3209     C
Co      0.4577   0.4122   0.6676    Co
H       0.4603   0.1502   0.9126     H
C       0.4622   0.6022   0.1494     C
O       0.4664   0.1683   0.7579     O
O       0.4746    0.431    0.426     O
H       0.4762   0.6626   0.7082     H
C       0.4765   0.4368   0.3542     C
H       0.4845     0.44   0.8264     H
H        0.489   0.3902   0.9048     H
O       0.4983   0.4936   0.3088     O
Co         0.5      0.5      0.5    Co
O       0.5017   0.5064   0.6912     O
H        0.511   0.6098   0.0952     H
H       0.5155     0.56   0.1736     H
C       0.5235   0.5632   0.6458     C
H       0.5238   0.3374   0.2918     H
O       0.5254    0.569    0.574     O
O       0.5336   0.8317   0.2421     O
C       0.5378   0.3978   0.8506     C
H       0.5397   0.8498   0.0874     H
Co      0.5423   0.5878   0.3324    Co
C       0.5551   0.6247   0.6791     C
O       0.5637   0.3261   0.7357     O
H       0.5712    0.693   0.3996     H
O       0.5724   0.6904   0.3518     O
Co      0.5774   0.2252   0.6708    Co
H       0.5826   0.0996   0.2158     H
C       0.5826   0.3219   0.8033     C
H       0.6006   0.0227   0.5305     H
H        0.602   0.5996   0.7158     H
O       0.6024   0.1437   0.5815     O
O       0.6032   0.3942   0.5518     O
H        0.605   0.1516    0.138     H
H       0.6054   0.6516    0.638     H
H       0.6062   0.9048   0.1098     H
H       0.6105   0.4126   0.8498     H
C       0.6116   0.8506   0.1022     C
C       0.6141   0.8033   0.1781     C
H       0.6233   0.0305   0.9773     H
H       0.6271   0.9126   0.3498     H
O       0.6347   0.2579   0.8317     O
C       0.6411   0.1247   0.1791     C
H        0.653   0.1626   0.2082     H
H       0.6538   0.4773   0.9695     H
O       0.6567   0.5252   0.4054     O
H        0.667   0.4466   0.0536     H
H       0.6672   0.0534   0.4464     H
C       0.6774   0.0339   0.4973     C
H       0.6822   0.7158   0.9004     H
C       0.6872   0.3282   0.5274     C
H       0.6891   0.8264     0.06     H
O       0.7006   0.7357   0.1739     O
C       0.7015    0.095    0.538     C
C       0.7086   0.4661   0.0027     C
C       0.7113   0.9973   0.9661     C
O       0.7114    0.574    0.229     O
C       0.7138   0.8978   0.3506     C
O       0.7146    0.271    0.574     O
H        0.716   0.8902   0.4048     H
H       0.7183   0.4315   0.2035     H
H       0.7206   0.9464   0.9466     H
H       0.7232   0.5143   0.0115     H
H       0.7347   0.9885   0.0143     H
H       0.7358   0.1004    0.693     H
H       0.7361   0.2761   0.4199     H
O       0.7372   0.1482   0.6904     O
H       0.7383   0.3647   0.4107     H
H        0.743    0.862   0.6516     H
O       0.7461   0.0815   0.8563     O
H        0.749   0.9857   0.4885     H
H       0.7491     0.94   0.3264     H
Co      0.7518   0.6708   0.2748    Co
H       0.7566    0.638   0.8484     H
C       0.7594   0.3158   0.4394     C
C       0.7605    0.538    0.405     C
H       0.7625   0.4885   0.5143     H
C       0.7658   0.6791   0.8753     C
C       0.7675   0.0632   0.1458     C
O       0.7757   0.7579   0.3317     O
C       0.7854   0.5274   0.1718     C
C       0.7922   0.8219   0.3033     C
C       0.7965    0.038    0.905     C
H       0.7984   0.7842   0.5996     H
O       0.8007   0.0064   0.1912     O
C       0.8012   0.4394   0.1842     C
Co      0.8026   0.1708   0.7748    Co
O       0.8071   0.6912   0.9936     O
H       0.8156   0.7082   0.8374     H
O       0.8161   0.5815   0.3563     O
O       0.8181   0.0946   0.5252     O
C       0.8202   0.8209   0.6247     C
C       0.8253   0.4973   0.4661     C
O       0.8276   0.3563   0.9185     O
C       0.8307   0.6458   0.9368     C
O       0.8316    0.069    0.074     O
C       0.8345    0.405    0.962     C
H       0.8362    0.193   0.8996     H
H        0.844   0.4199   0.2239     H
O        0.845   0.5518   0.1058     O
H       0.8502   0.2965   0.4315     H
H        0.851   0.4107   0.1353     H
H       0.8533   0.0685   0.2965     H
H       0.8612   0.7918   0.6626     H
H       0.8689   0.5305   0.4773     H
Co      0.8699   0.1676   0.5878    Co
O       0.8745   0.8261   0.2357     O
Co      0.8747   0.6676   0.0878    Co
H       0.8792   0.4048   0.6098     H
O       0.8854   0.1904   0.8518     O
H       0.8864   0.4464   0.4466     H
O       0.8898   0.2357   0.6739     O
O       0.8926   0.3317   0.7421     O
H        0.897   0.0893   0.3647     H
O       0.9006    0.574    0.931     O
C       0.9045   0.3033   0.6781     C
O       0.9056    0.926    0.569     O
O       0.9127   0.0252   0.9054     O
C       0.9133   0.8542   0.5632     C
H       0.9218   0.7965   0.9315     H
O       0.9242   0.6482   0.1904     O
H       0.9245   0.3264     0.56     H
C       0.9248   0.0606   0.3158     C
H       0.9321   0.2239   0.0801     H
C       0.9356   0.3506   0.6022     C
O       0.9379   0.4054   0.9748     O
O       0.9404    0.771    0.074     O
O       0.9508   0.8942   0.0518     O
C       0.9572   0.8282   0.0274     C
Co      0.9625   0.9122   0.1676    Co
H       0.9708   0.6004    0.193     H
Co      0.9734   0.2748   0.8292    Co
H       0.9769   0.6502   0.4126     H
C       0.9846   0.9726   0.3282     C
C       0.9854   0.8158   0.9394     C
O       0.9856    0.074    0.729     O
H       0.9863   0.8647   0.9107     H
H       0.9878   0.0801   0.2761     H
O       0.9919   0.8088   0.5064     O
O       0.9974   0.0518   0.6058     O
