data_I
_chemical_name_common  '/home/zhangsd/repos/MofS-CGCNN/ML/data/TSD/clean_cifs/CAKXOD_clean'
_cell_length_a  7.95500
_cell_length_b  9.69300
_cell_length_c 15.86900
_cell_angle_alpha 90.00000
_cell_angle_beta  90.00000
_cell_angle_gamma 96.35600
_space_group_name_H-M_alt      'P 1'


loop_
_space_group_symop_operation_xyz
  'x, y, z' 

loop_
_atom_site_label
_atom_site_fract_x
_atom_site_fract_y
_atom_site_fract_z
_atom_site_type_symbol
H       0.0314  0.31504  0.61209     H
O       0.0483   0.2942  0.42928     O
C        0.057   0.4236  0.41852     C
Gd     0.07855  0.86611  0.67308    Gd
C       0.0861   0.5255  0.63183     C
C       0.0901   0.9907  0.48451     C
C       0.1039   0.3848  0.64113     C
H      0.11737  0.84707  0.24853     H
O       0.1192    0.313    0.261     O
O       0.1251   0.0236  0.40982     O
O       0.1491   0.1105  0.68917     O
N       0.1639     0.05   0.2331     N
O       0.1719   0.5116  0.44286     O
O        0.188   0.9435  0.53583     O
N       0.1884    0.623   0.6715     N
C       0.1902   0.9187   0.2201     C
C       0.2304   0.3522  0.69396     C
C       0.2438   0.2958    0.216     C
C       0.2562   0.2042    0.716     C
C       0.2696   0.1478  0.19396     C
C       0.3098   0.5813   0.7201     C
N       0.3116    0.877   0.1715     N
O        0.312   0.5565  0.03583     O
O       0.3281   0.9884  0.94286     O
N       0.3361     0.45   0.7331     N
O       0.3509   0.3895  0.18917     O
O       0.3749   0.4764  0.90982     O
O       0.3808    0.187    0.761     O
H      0.38263  0.65293  0.74853     H
C       0.3961   0.1152  0.14113     C
C       0.4099   0.5093  0.98451     C
C       0.4139   0.9745  0.13183     C
Gd     0.42145  0.63389  0.17308    Gd
C        0.443   0.0764  0.91852     C
O       0.4517   0.2058  0.92928     O
H       0.4686  0.18496  0.11209     H
H       0.5314  0.81504  0.88791     H
O       0.5483   0.7942  0.07072     O
C        0.557   0.9236  0.08148     C
Gd     0.57855  0.36611  0.82692    Gd
C       0.5861   0.0255  0.86817     C
C       0.5901   0.4907  0.01549     C
C       0.6039   0.8848  0.85887     C
H      0.61737  0.34707  0.25147     H
O       0.6192    0.813    0.239     O
O       0.6251   0.5236  0.09018     O
O       0.6491   0.6105  0.81083     O
N       0.6639     0.55   0.2669     N
O       0.6719   0.0116  0.05714     O
O        0.688   0.4435  0.96417     O
N       0.6884    0.123   0.8285     N
C       0.6902   0.4187   0.2799     C
C       0.7304   0.8522  0.80604     C
C       0.7438   0.7958    0.284     C
C       0.7562   0.7042    0.784     C
C       0.7696   0.6478  0.30604     C
C       0.8098   0.0813   0.7799     C
N       0.8116    0.377   0.3285     N
O        0.812   0.0565  0.46417     O
O       0.8281   0.4884  0.55714     O
N       0.8361     0.95   0.7669     N
O       0.8509   0.8895  0.31083     O
O       0.8749   0.9764  0.59018     O
O       0.8808    0.687    0.739     O
H      0.88263  0.15293  0.75147     H
C       0.8961   0.6152  0.35887     C
C       0.9099   0.0093  0.51549     C
C       0.9139   0.4745  0.36817     C
Gd     0.92145  0.13389  0.32692    Gd
C        0.943   0.5764  0.58148     C
O       0.9517   0.7058  0.57072     O
H       0.9686  0.68496  0.38791     H
