data_I
_chemical_name_common  '/home/zhangsd/repos/MofS-CGCNN/ML/data/TSD/clean_cifs/CASTEW_clean'
_cell_length_a  7.20300
_cell_length_b 13.43000
_cell_length_c 17.54000
_cell_angle_alpha 90.00000
_cell_angle_beta  100.76000
_cell_angle_gamma 90.00000
_space_group_name_H-M_alt      'P 1'


loop_
_space_group_symop_operation_xyz
  'x, y, z' 

loop_
_atom_site_label
_atom_site_fract_x
_atom_site_fract_y
_atom_site_fract_z
_atom_site_type_symbol
In         0.0      0.0      0.5    In
In         0.0      0.5      0.0    In
O       0.0131   0.6214   0.9263     O
O       0.0131   0.8786   0.4263     O
O       0.0225   0.5982   0.0986     O
O       0.0225   0.9018   0.5986     O
C       0.0227   0.6748   0.8002     C
C       0.0227   0.8252   0.3002     C
C       0.0328   0.7352    0.182     C
C       0.0328   0.7648    0.682     C
C       0.0648   0.1729   0.3842     C
C       0.0648   0.3271   0.8842     C
C       0.0707   0.2219   0.7674     C
C       0.0707   0.2781   0.2674     C
C        0.086   0.1315    0.642     C
C        0.086   0.3685    0.142     C
H       0.2048   0.2244   0.7787     H
H       0.2048   0.2756   0.2787     H
C       0.2187   0.6692   0.8152     C
C       0.2187   0.8308   0.3152     C
C       0.2307   0.7404   0.1975     C
C       0.2307   0.7596   0.6975     C
O       0.2328   0.1987   0.4156     O
O       0.2328   0.3013   0.9156     O
O       0.2566   0.1103   0.6622     O
O       0.2566   0.3897   0.1622     O
O       0.3094   0.0128    0.529     O
O       0.3094   0.4872    0.029     O
O       0.3193   0.5186   0.8757     O
O       0.3193   0.9814   0.3757     O
C       0.3223   0.7115   0.7636     C
C       0.3223   0.7885   0.2636     C
C       0.3268   0.6112   0.8824     C
C       0.3268   0.8888   0.3824     C
O        0.334   0.7239   0.0759     O
O        0.334   0.7761   0.5759     O
C       0.3481   0.6958   0.1454     C
C       0.3481   0.8042   0.6454     C
O       0.4229   0.6615   0.9369     O
O       0.4229   0.8385   0.4369     O
H       0.4563   0.7072    0.774     H
H       0.4563   0.7928    0.274     H
O       0.4659    0.628   0.1721     O
O       0.4659    0.872   0.6721     O
In     0.46828  0.10183  0.44818    In
In     0.46828  0.39817  0.94818    In
In     0.53172  0.60183  0.05182    In
In     0.53172  0.89817  0.55182    In
O       0.5341    0.128   0.3279     O
O       0.5341    0.372   0.8279     O
H       0.5437   0.2072    0.726     H
H       0.5437   0.2928    0.226     H
O       0.5771   0.1615   0.5631     O
O       0.5771   0.3385   0.0631     O
C       0.6519   0.1958   0.3546     C
C       0.6519   0.3042   0.8546     C
O        0.666   0.2239   0.4241     O
O        0.666   0.2761   0.9241     O
C       0.6732   0.1112   0.6176     C
C       0.6732   0.3888   0.1176     C
C       0.6777   0.2115   0.7364     C
C       0.6777   0.2885   0.2364     C
O       0.6807   0.0186   0.6243     O
O       0.6807   0.4814   0.1243     O
O       0.6906   0.5128    0.971     O
O       0.6906   0.9872    0.471     O
O       0.7434   0.6103   0.8378     O
O       0.7434   0.8897   0.3378     O
O       0.7672   0.6987   0.0844     O
O       0.7672   0.8013   0.5844     O
C       0.7693   0.2404   0.3025     C
C       0.7693   0.2596   0.8025     C
C       0.7813   0.1692   0.6848     C
C       0.7813   0.3308   0.1848     C
H       0.7952   0.7244   0.7213     H
H       0.7952   0.7756   0.2213     H
C        0.914   0.6315    0.858     C
C        0.914   0.8685    0.358     C
C       0.9293   0.7219   0.7326     C
C       0.9293   0.7781   0.2326     C
C       0.9352   0.6729   0.1158     C
C       0.9352   0.8271   0.6158     C
C       0.9672   0.2352    0.318     C
C       0.9672   0.2648    0.818     C
C       0.9773   0.1748   0.6998     C
C       0.9773   0.3252   0.1998     C
O       0.9775   0.0982   0.4014     O
O       0.9775   0.4018   0.9014     O
O       0.9869   0.1214   0.5737     O
O       0.9869   0.3786   0.0737     O
