data_I
_chemical_name_common  '/home/zhangsd/repos/MofS-CGCNN/ML/data/TSD/clean_cifs/CAVMOD_clean'
_cell_length_a 14.05780
_cell_length_b 23.00130
_cell_length_c 31.23800
_cell_angle_alpha 90.88100
_cell_angle_beta  90.00000
_cell_angle_gamma 90.00000
_space_group_name_H-M_alt      'P 1'


loop_
_space_group_symop_operation_xyz
  'x, y, z' 

loop_
_atom_site_label
_atom_site_fract_x
_atom_site_fract_y
_atom_site_fract_z
_atom_site_type_symbol
C       0.0014    0.241  0.30884     C
H       0.0016   0.1597   0.4924     H
H       0.0024   0.3937   0.3841     H
Zn      0.0056  0.28582  0.15038    Zn
C       0.0064   0.4353   0.3835     C
H        0.007   0.3852   0.2684     H
C       0.0074   0.2388  0.38582     C
C        0.012   0.9963   0.1115     C
H       0.0125   0.6129   0.9681     H
H       0.0134   0.3309   0.5783     H
C       0.0135   0.5256   0.8695     C
H       0.0153   0.3631   0.4704     H
C       0.0173   0.4548   0.3373     C
H       0.0184   0.0603   0.5205     H
C       0.0194   0.3407    0.496     C
H       0.0213     0.91   0.6049     H
C       0.0216   0.5221   0.3349     C
O       0.0235   0.6751   0.9018     O
H       0.0235   0.7642    0.588     H
C       0.0247   0.9517   0.6067     C
H       0.0256   0.9567   0.0373     H
H       0.0262    0.455   0.5126     H
H       0.0264   0.9489   0.3573     H
C       0.0265    0.971   0.6531     C
O        0.027    0.674   0.7959     O
H       0.0273   0.0468   0.6865     H
C       0.0277   0.4329   0.5384     C
H       0.0279   0.9316   0.8001     H
C       0.0283   0.0354   0.6568     C
H       0.0283   0.4474   0.9777     H
H       0.0292   0.5333   0.3056     H
H         0.03    0.032   0.4071     H
C       0.0312   0.5545   0.0353     C
C       0.0321   0.0251   0.1499     C
H       0.0335   0.7605   0.7165     H
H       0.0362   0.5741   0.4521     H
H       0.0364   0.4616   0.6539     H
C       0.0366   0.4957   0.9064     C
H       0.0386   0.8994   0.7188     H
N       0.0399   0.5299   0.0721     N
C       0.0413   0.9509  0.82578     C
H       0.0434    0.666    0.493     H
C       0.0447   0.7635  0.65199     C
H       0.0479   0.1455    0.566     H
H       0.0493   0.3041   0.4896     H
H       0.0505   0.5481   0.6045     H
O       0.0541   0.7896   0.8462     O
C       0.0548   0.6046    0.724     C
H       0.0604   0.4481   0.3999     H
H       0.0618   0.4542   0.5602     H
C       0.0654    0.049   0.3271     C
C       0.0671   0.1595   0.4837     C
H       0.0673   0.0372   0.2976     H
O       0.0683    0.831   0.7732     O
H        0.069   0.5722   0.8212     H
H       0.0694   0.9075   0.9774     H
H       0.0695   0.0906   0.3293     H
H       0.0706   0.4153    0.185     H
C       0.0706   0.5659   0.6901     C
H        0.072   0.1449   0.4549     H
H       0.0744   0.5363   0.3515     H
C        0.076   0.6142   0.9762     C
O       0.0769   0.8485   0.9103     O
C       0.0778    0.338   0.5697     C
C       0.0782   0.3739   0.5295     C
H       0.0814   0.9647   0.5927     H
C       0.0815   0.0085   0.9025     C
C       0.0836   0.0591   0.5114     C
N       0.0838   0.4725    0.142     N
C       0.0839   0.9518   0.0509     C
C       0.0845   0.5522   0.8459     C
H       0.0851   0.0499   0.6437     H
H       0.0868    0.045   0.4823     H
H       0.0918   0.1984   0.4852     H
N       0.0918   0.9712   0.0899     N
H        0.095   0.0278   0.9282     H
C       0.0996   0.2477  0.30746     C
C       0.1003   0.9074     0.71     C
C       0.1056   0.2455  0.38444     C
C       0.1059   0.5846   0.0123     C
H       0.1091   0.3016    0.564     H
H       0.1097   0.3891   0.3183     H
C       0.1106   0.6768   0.9132     C
H       0.1108   0.3586   0.5921     H
C       0.1115   0.4308   0.3187     C
C        0.114   0.1457   0.5583     C
C       0.1149     0.67   0.7831     C
C       0.1152   0.4379   0.1709     C
H       0.1156   0.0892   0.2038     H
C       0.1157   0.9449   0.6762     C
H        0.118    0.032    0.342     H
H       0.1189   0.0336   0.5295     H
H       0.1198   0.4445   0.2901     H
C       0.1258   0.1198   0.5142     C
N       0.1287   0.0283   0.1615     N
H       0.1304   0.2507   0.2812     H
C       0.1308   0.4924   0.9197     C
C       0.1314   0.6279  0.74649     C
C       0.1317   0.9024   0.9866     C
C       0.1348   0.9557   0.8399     C
H        0.137    0.185   0.5586     H
H       0.1405    0.247   0.4097     H
C       0.1413   0.6455  0.95238     C
H       0.1463   0.4724   0.9444     H
H       0.1495   0.1233   0.5784     H
N       0.1498   0.2794  0.15003     N
N       0.1517   0.2499  0.34526     N
C        0.153   0.7699   0.6512     C
C       0.1549   0.9845   0.8782     C
C       0.1552   0.8423   0.7672     C
H       0.1582   0.2298   0.2028     H
C       0.1593    0.923   0.0268     C
C       0.1601   0.0659   0.1898     C
H       0.1614   0.8194   0.5984     H
C       0.1629   0.5506  0.67872     C
H       0.1637   0.4439   0.3362     H
H       0.1658   0.3476   0.4564     H
Zn     0.16602  0.53042  0.10843    Zn
C       0.1672   0.8487   0.9176     C
H       0.1741   0.3273   0.0974     H
O       0.1751   0.5118   0.6474     O
O       0.1755   0.7046   0.8928     O
C       0.1771   0.8817  0.73041     C
H       0.1773    0.722   0.7038     H
C       0.1787   0.5489   0.8591     C
H       0.1793   0.3765   0.2308     H
C       0.1821   0.3871   0.5143     C
O       0.1825   0.6988   0.7981     O
H       0.1839   0.9396   0.8236     H
C       0.1944   0.2478  0.18191     C
C       0.1972   0.8741  0.96026     C
C       0.1975   0.8015  0.61934     C
C       0.2009   0.5864   0.0246     C
Zn     0.20127  0.76792  0.84257    Zn
C       0.2019    0.519    0.896     C
C       0.2039   0.3062  0.11875     C
C       0.2071   0.7431   0.6825     C
C        0.208   0.9569  0.66294     C
C       0.2097   0.3665  0.47408     C
Zn      0.2125  0.96913  0.12686    Zn
C       0.2153   0.4312   0.1834     C
H       0.2175   0.9877   0.8877     H
O       0.2189   0.4332   0.5784     O
O         0.22   0.9942   0.6316     O
H       0.2201   0.1682   0.4486     H
O       0.2222   0.8227   0.7902     O
C       0.2238   0.6126  0.73512     C
H        0.225   0.1283   0.2502     H
H       0.2263   0.5667   0.8433     H
O       0.2268   0.8279   0.8928     O
C       0.2307   0.3937  0.21712     C
O       0.2327   0.5554   0.0576     O
C       0.2339   0.1178   0.5007     C
H       0.2351   0.0169   0.4049     H
C       0.2363   0.6473   0.9646     C
C       0.2395    0.574   0.7012     C
C       0.2476   0.4153  0.54063     C
C       0.2524   0.9153  0.04063     C
C       0.2605    0.074   0.2012     C
C       0.2637   0.1473   0.4646     C
H       0.2649   0.5169   0.9049     H
C       0.2661   0.6178   0.0007     C
O       0.2673   0.0554   0.5576     O
C       0.2693   0.8937  0.71712     C
O       0.2732   0.3279   0.3928     O
H       0.2737   0.0667   0.3433     H
H        0.275   0.6283   0.7502     H
C       0.2762   0.1126  0.23512     C
O       0.2778   0.3227   0.2902     O
H       0.2799   0.6682   0.9486     H
O         0.28   0.4942   0.1316     O
O       0.2811   0.9332   0.0784     O
H       0.2825   0.4877   0.3877     H
C       0.2847   0.9312   0.6834     C
Zn      0.2875  0.46913  0.62686    Zn
C       0.2903   0.8665  0.97408     C
C        0.292   0.4569  0.16294     C
C       0.2929   0.2431   0.1825     C
C       0.2961   0.8062  0.61875     C
C       0.2981    0.019    0.396     C
Zn     0.29873  0.26792  0.34257    Zn
C       0.2991   0.0864   0.5246     C
C       0.3025   0.3015  0.11934     C
C       0.3028   0.3741  0.46026     C
C       0.3056   0.7478  0.68191     C
H       0.3161   0.4396   0.3236     H
O       0.3175   0.1988   0.2981     O
C       0.3179   0.8871   0.0143     C
H       0.3207   0.8765   0.7308     H
C       0.3213   0.0489   0.3591     C
H       0.3227    0.222   0.2038     H
C       0.3229   0.3817  0.23041     C
O       0.3245   0.2046   0.3928     O
O       0.3249   0.0118   0.1474     O
H       0.3259   0.8273   0.5974     H
C       0.3328   0.3487   0.4176     C
Zn     0.33398  0.03042  0.60843    Zn
H       0.3342   0.8476   0.9564     H
H       0.3363   0.9439   0.8362     H
C       0.3371   0.0506  0.17872     C
H       0.3386   0.3194   0.0984     H
C       0.3399   0.5659   0.6898     C
C       0.3407    0.423   0.5268     C
H       0.3418   0.7298   0.7028     H
C       0.3448   0.3423   0.2672     C
C       0.3451   0.4845   0.3782     C
C        0.347   0.2699   0.1512     C
N       0.3483   0.7499  0.84526     N
N       0.3502   0.7794  0.65003     N
H       0.3505   0.6233   0.0784     H
H       0.3537   0.9724   0.4444     H
C       0.3587   0.1455  0.45238     C
H       0.3595    0.747   0.9097     H
H        0.363    0.685   0.0586     H
C       0.3652   0.4557   0.3399     C
C       0.3683   0.4024   0.4866     C
C       0.3686   0.1279  0.24649     C
C       0.3692   0.9924   0.4197     C
H       0.3696   0.7507   0.7812     H
N       0.3713   0.5283   0.6615     N
C       0.3742   0.6198   0.0142     C
H       0.3802   0.9445   0.7901     H
H       0.3811   0.5336   0.0295     H
H        0.382    0.532    0.842     H
C       0.3843   0.4449   0.1762     C
H       0.3844   0.5892   0.7038     H
C       0.3848   0.9379   0.6709     C
C       0.3851     0.17   0.2831     C
C        0.386   0.6457   0.0583     C
C       0.3885   0.9308   0.8187     C
H       0.3892   0.8586   0.0921     H
C       0.3894   0.1768   0.4132     C
H       0.3903   0.8891   0.8183     H
H       0.3909   0.8016    0.064     H
C       0.3941   0.0846   0.5123     C
C       0.3944   0.7455  0.88444     C
C       0.3997   0.4074     0.21     C
C       0.4004   0.7477  0.80746     C
H        0.405   0.5278   0.4282     H
N       0.4082   0.4712   0.5899     N
H       0.4082   0.6984   0.9852     H
H       0.4132    0.545   0.9823     H
H       0.4149   0.5499   0.1437     H
C       0.4155   0.0522   0.3459     C
C       0.4161   0.4518   0.5509     C
N       0.4162   0.9725    0.642     N
C       0.4164   0.5591   0.0114     C
C       0.4185   0.5085   0.4025     C
H       0.4186   0.4647   0.0927     H
C       0.4218   0.8739   0.0295     C
C       0.4222    0.838   0.0697     C
O       0.4231   0.3485   0.4103     O
C        0.424   0.1142   0.4762     C
H       0.4256   0.0363   0.8515     H
H        0.428   0.6449   0.9549     H
C       0.4294   0.0659   0.1901     C
H       0.4294   0.9153    0.685     H
H       0.4305   0.5906   0.8293     H
H       0.4306   0.4075   0.4774     H
H        0.431   0.0722   0.3212     H
O       0.4317    0.331   0.2732     O
H       0.4327   0.5372   0.7976     H
C       0.4329   0.6595   0.9837     C
C       0.4346    0.549   0.8271     C
H       0.4382   0.9542   0.0602     H
H       0.4396   0.9481   0.8999     H
C       0.4452   0.1046    0.224     C
O       0.4459   0.2896   0.3462     O
H       0.4495   0.0481   0.1045     H
H       0.4507   0.8041   0.9896     H
H       0.4521   0.6455    0.066     H
C       0.4553   0.2635  0.15199     C
H       0.4566    0.166    0.993     H
C       0.4587   0.4509  0.32578     C
N       0.4601   0.0299   0.5721     N
H       0.4614   0.3994   0.2188     H
C       0.4634   0.9957   0.4064     C
H       0.4636   0.9616   0.1539     H
H       0.4638   0.0741   0.9521     H
H       0.4665   0.2605   0.2165     H
C       0.4679   0.5251   0.6499     C
C       0.4688   0.0545   0.5353     C
H         0.47    0.532   0.9071     H
H       0.4708   0.0333   0.8056     H
C       0.4717   0.5354   0.1568     C
H       0.4717   0.9474   0.4777     H
H       0.4721   0.4316   0.3001     H
C       0.4723   0.9329   0.0384     C
H       0.4727   0.5468   0.1865     H
O        0.473    0.174   0.2959     O
C       0.4735    0.471   0.1531     C
H       0.4736   0.4489   0.8573     H
H       0.4738    0.955   0.0126     H
H       0.4744   0.4567   0.5373     H
C       0.4753   0.4517   0.1067     C
O       0.4765   0.1751   0.4018     O
H       0.4765   0.2642    0.088     H
C       0.4784   0.0221   0.8349     C
H       0.4787     0.41   0.1049     H
C       0.4806   0.8407    0.996     C
H       0.4816   0.5603   0.0205     H
C       0.4827   0.9548   0.8373     C
H       0.4847   0.8631   0.9704     H
C       0.4865   0.0256   0.3695     C
H       0.4866   0.8309   0.0783     H
H       0.4875   0.1129   0.4681     H
C        0.488   0.4963   0.6115     C
C       0.4926   0.7388  0.88582     C
H        0.493   0.8852   0.7684     H
C       0.4936   0.9353   0.8835     C
Zn      0.4944  0.78582  0.65038    Zn
H       0.4976   0.8937   0.8841     H
H       0.4984   0.6597   0.9924     H
C       0.4986    0.741  0.80884     C
C       0.5014    0.259  0.19116     C
H       0.5016   0.3403   0.0076     H
H       0.5024   0.1063   0.1159     H
Zn      0.5056  0.21418  0.34962    Zn
C       0.5064   0.0647   0.1165     C
H        0.507   0.1148   0.2316     H
C       0.5074   0.2612  0.11418     C
C        0.512   0.5037   0.3885     C
H       0.5125   0.8871   0.5319     H
H       0.5134   0.1691   0.9217     H
C       0.5135   0.9744   0.6305     C
H       0.5153   0.1369   0.0296     H
C       0.5173   0.0452   0.1627     C
H       0.5184   0.4397   0.9795     H
C       0.5194   0.1593    0.004     C
H       0.5213     0.59   0.8951     H
C       0.5216   0.9779   0.1651     C
H       0.5235   0.7358    0.912     H
O       0.5235   0.8249   0.5982     O
C       0.5247   0.5483   0.8933     C
H       0.5256   0.5433   0.4627     H
H       0.5262    0.045   0.9874     H
H       0.5264   0.5511   0.1427     H
C       0.5265    0.529   0.8469     C
O        0.527    0.826   0.7041     O
H       0.5273   0.4532   0.8135     H
C       0.5277   0.0671   0.9616     C
H       0.5279   0.5684   0.6999     H
H       0.5283   0.0526   0.5223     H
C       0.5283   0.4646   0.8432     C
H       0.5292   0.9667   0.1944     H
H         0.53    0.468   0.0929     H
C       0.5312   0.9455   0.4647     C
C       0.5321   0.4749   0.3501     C
H       0.5335   0.7395   0.7835     H
H       0.5362   0.9259   0.0479     H
H       0.5364   0.0384   0.8461     H
C       0.5366   0.0043   0.5936     C
H       0.5386   0.6006   0.7812     H
N       0.5399   0.9701   0.4279     N
C       0.5413   0.5491  0.67422     C
H       0.5434    0.834    0.007     H
C       0.5447   0.7365  0.84801     C
H       0.5479   0.3545    0.934     H
H       0.5493   0.1959   0.0104     H
H       0.5505   0.9519   0.8955     H
O       0.5541   0.7104   0.6538     O
C       0.5548   0.8954    0.776     C
H       0.5604   0.0519   0.1001     H
H       0.5618   0.0458   0.9398     H
C       0.5654    0.451   0.1729     C
C       0.5671   0.3405   0.0163     C
H       0.5673   0.4628   0.2024     H
O       0.5683    0.669   0.7268     O
H        0.569   0.9278   0.6788     H
H       0.5694   0.5925   0.5226     H
H       0.5695   0.4094   0.1707     H
H       0.5706   0.0847    0.315     H
C       0.5706   0.9341   0.8099     C
H        0.572   0.3551   0.0451     H
H       0.5744   0.9637   0.1485     H
C        0.576   0.8858   0.5238     C
O       0.5769   0.6515   0.5897     O
C       0.5778    0.162   0.9303     C
C       0.5782   0.1261   0.9705     C
H       0.5814   0.5353   0.9073     H
C       0.5815   0.4915   0.5975     C
C       0.5836   0.4409   0.9886     C
N       0.5838   0.0275    0.358     N
C       0.5839   0.5482   0.4491     C
C       0.5845   0.9478   0.6541     C
H       0.5851   0.4501   0.8563     H
H       0.5868    0.455   0.0177     H
H       0.5918   0.3016   0.0148     H
N       0.5918   0.5288   0.4101     N
H        0.595   0.4722   0.5718     H
C       0.5996   0.2523  0.19254     C
C       0.6003   0.5926     0.79     C
C       0.6056   0.2545  0.11556     C
C       0.6059   0.9154   0.4877     C
H       0.6091   0.1984    0.936     H
H       0.6097   0.1109   0.1817     H
C       0.6106   0.8232   0.5868     C
H       0.6108   0.1414   0.9079     H
C       0.6115   0.0692   0.1813     C
C        0.614   0.3543   0.9417     C
C       0.6149     0.83   0.7169     C
C       0.6152   0.0621   0.3291     C
H       0.6156   0.4108   0.2962     H
C       0.6157   0.5551   0.8238     C
H        0.618    0.468    0.158     H
H       0.6189   0.4664   0.9705     H
H       0.6198   0.0555   0.2099     H
C       0.6258   0.3802   0.9858     C
N       0.6287   0.4717   0.3385     N
H       0.6304   0.2493   0.2188     H
C       0.6308   0.0076   0.5803     C
C       0.6314   0.8721  0.75351     C
C       0.6317   0.5976   0.5134     C
C       0.6348   0.5443   0.6601     C
H        0.637    0.315   0.9414     H
H       0.6405    0.253   0.0903     H
C       0.6413   0.8545  0.54762     C
H       0.6463   0.0276   0.5556     H
H       0.6495   0.3767   0.9216     H
N       0.6498   0.2206  0.34997     N
N       0.6517   0.2501  0.15474     N
C        0.653   0.7301   0.8488     C
C       0.6549   0.5155   0.6218     C
C       0.6552   0.6577   0.7328     C
H       0.6582   0.2702   0.2972     H
C       0.6593    0.577   0.4732     C
C       0.6601   0.4341   0.3102     C
H       0.6614   0.6806   0.9016     H
C       0.6629   0.9494  0.82128     C
H       0.6637   0.0561   0.1638     H
H       0.6658   0.1524   0.0436     H
Zn     0.66602  0.96958  0.39157    Zn
C       0.6672   0.6513   0.5824     C
H       0.6741   0.1727   0.4026     H
O       0.6751   0.9882   0.8526     O
O       0.6755   0.7954   0.6072     O
C       0.6771   0.6183  0.76959     C
H       0.6773    0.778   0.7962     H
C       0.6787   0.9511   0.6409     C
H       0.6793   0.1235   0.2692     H
C       0.6821   0.1129   0.9857     C
O       0.6825   0.8012   0.7019     O
H       0.6839   0.5604   0.6764     H
C       0.6944   0.2522  0.31809     C
C       0.6972   0.6259  0.53974     C
C       0.6975   0.6985  0.88066     C
C       0.7009   0.9136   0.4754     C
Zn     0.70127  0.73208  0.65743    Zn
C       0.7019    0.981    0.604     C
C       0.7039   0.1938  0.38125     C
C       0.7071   0.7569   0.8175     C
C        0.708   0.5431  0.83706     C
C       0.7097   0.1335  0.02592     C
Zn      0.7125  0.53087  0.37314    Zn
C       0.7153   0.0688   0.3166     C
H       0.7175   0.5123   0.6123     H
O       0.7189   0.0668   0.9216     O
O         0.72   0.5058   0.8684     O
H       0.7201   0.3318   0.0514     H
O       0.7222   0.6773   0.7098     O
C       0.7238   0.8874  0.76488     C
H        0.725   0.3717   0.2498     H
H       0.7263   0.9333   0.6567     H
O       0.7268   0.6721   0.6072     O
C       0.7307   0.1063  0.28288     C
O       0.7327   0.9446   0.4424     O
C       0.7339   0.3822   0.9993     C
H       0.7351   0.4831   0.0951     H
C       0.7363   0.8527   0.5354     C
C       0.7395    0.926   0.7988     C
C       0.7476   0.0847  0.95937     C
C       0.7524   0.5847  0.45937     C
C       0.7605    0.426   0.2988     C
C       0.7637   0.3527   0.0354     C
H       0.7649   0.9831   0.5951     H
C       0.7661   0.8822   0.4993     C
O       0.7673   0.4446   0.9424     O
C       0.7693   0.6063  0.78288     C
O       0.7732   0.1721   0.1072     O
H       0.7737   0.4333   0.1567     H
H        0.775   0.8717   0.7498     H
C       0.7762   0.3874  0.26488     C
O       0.7778   0.1773   0.2098     O
H       0.7799   0.8318   0.5514     H
O         0.78   0.0058   0.3684     O
O       0.7811   0.5668   0.4216     O
H       0.7825   0.0123   0.1123     H
C       0.7847   0.5688   0.8166     C
Zn      0.7875  0.03087  0.87314    Zn
C       0.7903   0.6335  0.52592     C
C        0.792   0.0431  0.33706     C
C       0.7929   0.2569   0.3175     C
C       0.7961   0.6938  0.88125     C
C       0.7981    0.481    0.104     C
Zn     0.79873  0.23208  0.15743    Zn
C       0.7991   0.4136   0.9754     C
C       0.8025   0.1985  0.38066     C
C       0.8028   0.1259  0.03974     C
C       0.8056   0.7522  0.81809     C
H       0.8161   0.0604   0.1764     H
O       0.8175   0.3012   0.2019     O
C       0.8179   0.6129   0.4857     C
H       0.8207   0.6235   0.7692     H
C       0.8213   0.4511   0.1409     C
H       0.8227    0.278   0.2962     H
C       0.8229   0.1183  0.26959     C
O       0.8245   0.2954   0.1072     O
O       0.8249   0.4882   0.3526     O
H       0.8259   0.6727   0.9026     H
C       0.8328   0.1513   0.0824     C
Zn     0.83398  0.46958  0.89157    Zn
H       0.8342   0.6524   0.5436     H
H       0.8363   0.5561   0.6638     H
C       0.8371   0.4494  0.32128     C
H       0.8386   0.1806   0.4016     H
C       0.8399   0.9341   0.8102     C
C       0.8407    0.077   0.9732     C
H       0.8418   0.7702   0.7972     H
C       0.8448   0.1577   0.2328     C
C       0.8451   0.0155   0.1218     C
C        0.847   0.2301   0.3488     C
N       0.8483   0.7501  0.65474     N
N       0.8502   0.7206  0.84997     N
H       0.8505   0.8767   0.4216     H
H       0.8537   0.5276   0.0556     H
C       0.8587   0.3545  0.04762     C
H       0.8595    0.753   0.5903     H
H        0.863    0.815   0.4414     H
C       0.8652   0.0443   0.1601     C
C       0.8683   0.0976   0.0134     C
C       0.8686   0.3721  0.25351     C
C       0.8692   0.5076   0.0803     C
H       0.8696   0.7493   0.7188     H
N       0.8713   0.9717   0.8385     N
C       0.8742   0.8802   0.4858     C
H       0.8802   0.5555   0.7099     H
H       0.8811   0.9664   0.4705     H
H        0.882    0.968    0.658     H
C       0.8843   0.0551   0.3238     C
H       0.8844   0.9108   0.7962     H
C       0.8848   0.5621   0.8291     C
C       0.8851     0.33   0.2169     C
C        0.886   0.8543   0.4417     C
C       0.8885   0.5692   0.6813     C
H       0.8892   0.6414   0.4079     H
C       0.8894   0.3232   0.0868     C
H       0.8903   0.6109   0.6817     H
H       0.8909   0.6984    0.436     H
C       0.8941   0.4154   0.9877     C
C       0.8944   0.7545  0.61556     C
C       0.8997   0.0926     0.29     C
C       0.9004   0.7523  0.69254     C
H        0.905   0.9722   0.0718     H
N       0.9082   0.0288   0.9101     N
H       0.9082   0.8016   0.5148     H
H       0.9132    0.955   0.5177     H
H       0.9149   0.9501   0.3563     H
C       0.9155   0.4478   0.1541     C
C       0.9161   0.0482   0.9491     C
N       0.9162   0.5275    0.858     N
C       0.9164   0.9409   0.4886     C
C       0.9185   0.9915   0.0975     C
H       0.9186   0.0353   0.4073     H
C       0.9218   0.6261   0.4705     C
C       0.9222    0.662   0.4303     C
O       0.9231   0.1515   0.0897     O
C        0.924   0.3858   0.0238     C
H       0.9256   0.4637   0.6485     H
H        0.928   0.8551   0.5451     H
C       0.9294   0.4341   0.3099     C
H       0.9294   0.5847    0.815     H
H       0.9305   0.9094   0.6707     H
H       0.9306   0.0925   0.0226     H
H        0.931   0.4278   0.1788     H
O       0.9317    0.169   0.2268     O
H       0.9327   0.9628   0.7024     H
C       0.9329   0.8405   0.5163     C
C       0.9346    0.951   0.6729     C
H       0.9382   0.5458   0.4398     H
H       0.9396   0.5519   0.6001     H
C       0.9452   0.3954    0.276     C
O       0.9459   0.2104   0.1538     O
H       0.9495   0.4519   0.3955     H
H       0.9507   0.6959   0.5104     H
H       0.9521   0.8545    0.434     H
C       0.9553   0.2365  0.34801     C
H       0.9566    0.334    0.507     H
C       0.9587   0.0491  0.17422     C
N       0.9601   0.4701   0.9279     N
H       0.9614   0.1006   0.2812     H
C       0.9634   0.5043   0.0936     C
H       0.9636   0.5384   0.3461     H
H       0.9638   0.4259   0.5479     H
H       0.9665   0.2395   0.2835     H
C       0.9679   0.9749   0.8501     C
C       0.9688   0.4455   0.9647     C
H         0.97    0.968   0.5929     H
H       0.9708   0.4667   0.6944     H
H       0.9717   0.5526   0.0223     H
C       0.9717   0.9646   0.3432     C
H       0.9721   0.0684   0.1999     H
C       0.9723   0.5671   0.4616     C
H       0.9727   0.9532   0.3135     H
O        0.973    0.326   0.2041     O
C       0.9735    0.029   0.3469     C
H       0.9736   0.0511   0.6427     H
H       0.9738    0.545   0.4874     H
H       0.9744   0.0433   0.9627     H
C       0.9753   0.0483   0.3933     C
H       0.9765   0.2358    0.412     H
O       0.9765   0.3249   0.0982     O
C       0.9784   0.4779   0.6651     C
H       0.9787     0.09   0.3951     H
C       0.9806   0.6593    0.504     C
H       0.9816   0.9397   0.4795     H
C       0.9827   0.5452   0.6627     C
H       0.9847   0.6369   0.5296     H
C       0.9865   0.4744   0.1305     C
H       0.9866   0.6691   0.4217     H
H       0.9875   0.3871   0.0319     H
C        0.988   0.0037   0.8885     C
C       0.9926   0.7612  0.61418     C
H        0.993   0.6148   0.7316     H
C       0.9936   0.5647   0.6165     C
Zn      0.9944  0.71418  0.84962    Zn
H       0.9976   0.6063   0.6159     H
H       0.9984   0.8403   0.5076     H
C       0.9986    0.759  0.69116     C
