data_I
_chemical_name_common  '/home/zhangsd/repos/MofS-CGCNN/ML/data/TSD/clean_cifs/CAVNOE_clean'
_cell_length_a 18.27900
_cell_length_b  7.33000
_cell_length_c 11.60100
_cell_angle_alpha 90.00000
_cell_angle_beta  90.00000
_cell_angle_gamma 90.00000
_space_group_name_H-M_alt      'P 1'


loop_
_space_group_symop_operation_xyz
  'x, y, z' 

loop_
_atom_site_label
_atom_site_fract_x
_atom_site_fract_y
_atom_site_fract_z
_atom_site_type_symbol
Sc         0.0      0.0      0.0    Sc
O          0.0     0.25    0.082     O
Sc         0.0      0.5      0.0    Sc
O          0.0     0.75    0.918     O
O      0.08196   0.0984   0.8892     O
O      0.08196   0.4016   0.8892     O
O      0.08196   0.5984   0.1108     O
O      0.08196   0.9016   0.1108     O
C       0.1099     0.25   0.8662     C
C       0.1099     0.75   0.1338     C
O       0.1503    0.141    0.279     O
O       0.1503    0.359    0.279     O
O       0.1503    0.641    0.721     O
O       0.1503    0.859    0.721     O
C       0.1827     0.25   0.8054     C
C       0.1827     0.75   0.1946     C
N       0.1904    0.078    0.191     N
N       0.1904    0.422    0.191     N
N       0.1904    0.578    0.809     N
N       0.1904    0.922    0.809     N
O       0.2096    0.153     0.09     O
O       0.2096    0.347     0.09     O
O       0.2096    0.653     0.91     O
O       0.2096    0.847     0.91     O
C        0.216    0.091   0.7764     C
C        0.216    0.409   0.7764     C
C        0.216    0.591   0.2236     C
C        0.216    0.909   0.2236     C
C        0.284    0.091   0.7236     C
C        0.284    0.409   0.7236     C
C        0.284    0.591   0.2764     C
C        0.284    0.909   0.2764     C
O       0.2904    0.153     0.41     O
O       0.2904    0.347     0.41     O
O       0.2904    0.653     0.59     O
O       0.2904    0.847     0.59     O
N       0.3096    0.078    0.309     N
N       0.3096    0.422    0.309     N
N       0.3096    0.578    0.691     N
N       0.3096    0.922    0.691     N
C       0.3173     0.25   0.6946     C
C       0.3173     0.75   0.3054     C
O       0.3497    0.141    0.221     O
O       0.3497    0.359    0.221     O
O       0.3497    0.641    0.779     O
O       0.3497    0.859    0.779     O
C       0.3901     0.25   0.6338     C
C       0.3901     0.75   0.3662     C
O      0.41804   0.0984   0.6108     O
O      0.41804   0.4016   0.6108     O
O      0.41804   0.5984   0.3892     O
O      0.41804   0.9016   0.3892     O
Sc         0.5      0.0      0.5    Sc
O          0.5     0.25    0.418     O
Sc         0.5      0.5      0.5    Sc
O          0.5     0.75    0.582     O
O      0.58196   0.0984   0.6108     O
O      0.58196   0.4016   0.6108     O
O      0.58196   0.5984   0.3892     O
O      0.58196   0.9016   0.3892     O
C       0.6099     0.25   0.6338     C
C       0.6099     0.75   0.3662     C
O       0.6503    0.141    0.221     O
O       0.6503    0.359    0.221     O
O       0.6503    0.641    0.779     O
O       0.6503    0.859    0.779     O
C       0.6827     0.25   0.6946     C
C       0.6827     0.75   0.3054     C
N       0.6904    0.078    0.309     N
N       0.6904    0.422    0.309     N
N       0.6904    0.578    0.691     N
N       0.6904    0.922    0.691     N
O       0.7096    0.153     0.41     O
O       0.7096    0.347     0.41     O
O       0.7096    0.653     0.59     O
O       0.7096    0.847     0.59     O
C        0.716    0.091   0.7236     C
C        0.716    0.409   0.7236     C
C        0.716    0.591   0.2764     C
C        0.716    0.909   0.2764     C
C        0.784    0.091   0.7764     C
C        0.784    0.409   0.7764     C
C        0.784    0.591   0.2236     C
C        0.784    0.909   0.2236     C
O       0.7904    0.153     0.09     O
O       0.7904    0.347     0.09     O
O       0.7904    0.653     0.91     O
O       0.7904    0.847     0.91     O
N       0.8096    0.078    0.191     N
N       0.8096    0.422    0.191     N
N       0.8096    0.578    0.809     N
N       0.8096    0.922    0.809     N
C       0.8173     0.25   0.8054     C
C       0.8173     0.75   0.1946     C
O       0.8497    0.141    0.279     O
O       0.8497    0.359    0.279     O
O       0.8497    0.641    0.721     O
O       0.8497    0.859    0.721     O
C       0.8901     0.25   0.8662     C
C       0.8901     0.75   0.1338     C
O      0.91804   0.0984   0.8892     O
O      0.91804   0.4016   0.8892     O
O      0.91804   0.5984   0.1108     O
O      0.91804   0.9016   0.1108     O
