data_I
_chemical_name_common  '/home/zhangsd/repos/MofS-CGCNN/ML/data/TSD/clean_cifs/CAVVUS_clean'
_cell_length_a 10.76660
_cell_length_b 16.46200
_cell_length_c 17.91200
_cell_angle_alpha 90.00000
_cell_angle_beta  91.09800
_cell_angle_gamma 90.00000
_space_group_name_H-M_alt      'P 1'


loop_
_space_group_symop_operation_xyz
  'x, y, z' 

loop_
_atom_site_label
_atom_site_fract_x
_atom_site_fract_y
_atom_site_fract_z
_atom_site_type_symbol
H       0.0039    0.947   0.7215     H
C       0.0195   0.8397   0.7739     C
H       0.0232   0.2969   0.9016     H
H       0.0291   0.1805   0.8304     H
C       0.0296   0.7796   0.1804     C
C       0.0347   0.7106   0.1369     C
H       0.0359   0.1482   0.1885     H
C       0.0431   0.8967   0.7198     C
O       0.0461   0.2898   0.1308     O
C       0.0461   0.7018   0.8313     C
O       0.0635  0.02364  0.59699     O
C       0.0774   0.7644   0.7731     C
O       0.0775   0.4942   0.1119     O
Zn     0.07851  0.55672  0.91113    Zn
O       0.0857   0.9314   0.2547     O
O       0.0969   0.6017  0.01119     O
C       0.1111    0.867   0.2844     C
C       0.1123   0.7894   0.2404     C
Zn     0.11572  0.95666  0.41616    Zn
O       0.1189    0.641  0.83677     O
C       0.1244     0.88   0.6628     C
C       0.1261   0.6517   0.1502     C
O       0.1356  0.90749  0.51658     O
O       0.1405   0.8609  0.35379     O
P      0.14551  0.56865   0.0855     P
P      0.15533  0.95375  0.59053     P
C       0.1615   0.7488   0.7181     C
C       0.1829   0.8049    0.662     C
C       0.1995   0.7296   0.2561     C
H       0.2046   0.6998   0.7185     H
C       0.2066   0.6619   0.2095     C
O        0.212   0.4797    0.897     O
O       0.2143  0.05436  0.41528     O
H       0.2325   0.1229   0.2812     H
H       0.2367   0.7921   0.6237     H
H       0.2472   0.2345   0.2027     H
H       0.2528   0.7345   0.2973     H
H       0.2633   0.2921   0.8763     H
H       0.2675   0.6229   0.2188     H
O       0.2857  0.55436  0.08472     O
O        0.288   0.9797    0.603     O
C       0.2934   0.1619   0.2905     C
H       0.2954   0.1998   0.7815     H
C       0.3005   0.2296   0.2439     C
C       0.3171   0.3049    0.838     C
C       0.3385   0.2488   0.7819     C
P      0.34467  0.45375  0.90947     P
P      0.35449  0.06865   0.4145     P
O       0.3595   0.3609  0.14621     O
O       0.3644  0.40749  0.98342     O
C       0.3739   0.1517   0.3498     C
C       0.3756     0.38   0.8372     C
O       0.3811    0.141  0.66323     O
Zn     0.38428  0.45666  0.08384    Zn
C       0.3877   0.2894   0.2596     C
C       0.3889    0.367   0.2156     C
O       0.4031   0.1017  0.48881     O
O       0.4143   0.4314   0.2453     O
Zn     0.42149  0.05672  0.58887    Zn
O       0.4225   0.9942   0.3881     O
C       0.4226   0.2644   0.7269     C
O       0.4365  0.52364  0.90301     O
C       0.4539   0.2018   0.6687     C
O       0.4539   0.7898   0.3692     O
C       0.4569   0.3967   0.7802     C
H       0.4641   0.6482   0.3115     H
C       0.4653   0.2106   0.3631     C
C       0.4704   0.2796   0.3196     C
H       0.4709   0.6805   0.6696     H
H       0.4768   0.7969   0.5984     H
C       0.4805   0.3397   0.7261     C
H       0.4961    0.447   0.7785     H
H       0.5039    0.553   0.2215     H
C       0.5195   0.6603   0.2739     C
H       0.5232   0.2031   0.4016     H
H       0.5291   0.3195   0.3304     H
C       0.5296   0.7204   0.6804     C
C       0.5347   0.7894   0.6369     C
H       0.5359   0.3518   0.6885     H
C       0.5431   0.6033   0.2198     C
O       0.5461   0.2102   0.6308     O
C       0.5461   0.7982   0.3313     C
O       0.5635  0.47636  0.09699     O
C       0.5774   0.7356   0.2731     C
O       0.5775   0.0058   0.6119     O
Zn     0.57851  0.94328  0.41113    Zn
O       0.5857   0.5686   0.7547     O
O       0.5969   0.8983  0.51119     O
C       0.6111    0.633   0.7844     C
C       0.6123   0.7106   0.7404     C
Zn     0.61572  0.54334  0.91616    Zn
O       0.6189    0.859  0.33677     O
C       0.6244     0.62   0.1628     C
C       0.6261   0.8483   0.6502     C
O       0.6356  0.59251  0.01658     O
O       0.6405   0.6391  0.85379     O
P      0.64551  0.93135   0.5855     P
P      0.65533  0.54625  0.09053     P
C       0.6615   0.7512   0.2181     C
C       0.6829   0.6951    0.162     C
C       0.6995   0.7704   0.7561     C
H       0.7046   0.8002   0.2185     H
C       0.7066   0.8381   0.7095     C
O        0.712   0.0203    0.397     O
O       0.7143  0.44564  0.91528     O
H       0.7325   0.3771   0.7812     H
H       0.7367   0.7079   0.1237     H
H       0.7472   0.2655   0.7027     H
H       0.7528   0.7655   0.7973     H
H       0.7633   0.2079   0.3763     H
H       0.7675   0.8771   0.7188     H
O       0.7857  0.94564  0.58472     O
O        0.788   0.5203    0.103     O
C       0.7934   0.3381   0.7905     C
H       0.7954   0.3002   0.2815     H
C       0.8005   0.2704   0.7439     C
C       0.8171   0.1951    0.338     C
C       0.8385   0.2512   0.2819     C
P      0.84467  0.04625  0.40947     P
P      0.85449  0.43135   0.9145     P
O       0.8595   0.1391  0.64621     O
O       0.8644  0.09251  0.48342     O
C       0.8739   0.3483   0.8498     C
C       0.8756     0.12   0.3372     C
O       0.8811    0.359  0.16323     O
Zn     0.88428  0.04334  0.58384    Zn
C       0.8877   0.2106   0.7596     C
C       0.8889    0.133   0.7156     C
O       0.9031   0.3983  0.98881     O
O       0.9143   0.0686   0.7453     O
Zn     0.92149  0.44328  0.08887    Zn
O       0.9225   0.5058   0.8881     O
C       0.9226   0.2356   0.2269     C
O       0.9365  0.97636  0.40301     O
C       0.9539   0.2982   0.1687     C
O       0.9539   0.7102   0.8692     O
C       0.9569   0.1033   0.2802     C
H       0.9641   0.8518   0.8115     H
C       0.9653   0.2894   0.8631     C
C       0.9704   0.2204   0.8196     C
H       0.9709   0.8195   0.1696     H
H       0.9768   0.7031   0.0984     H
C       0.9805   0.1603   0.2261     C
H       0.9961    0.053   0.2785     H
