data_I
_chemical_name_common  '/home/zhangsd/repos/MofS-CGCNN/ML/data/TSD/clean_cifs/CAXTEC_clean'
_cell_length_a 20.93570
_cell_length_b 20.93570
_cell_length_c 34.81260
_cell_angle_alpha 90.00000
_cell_angle_beta  90.00000
_cell_angle_gamma 120.00000
_space_group_name_H-M_alt      'P 1'


loop_
_space_group_symop_operation_xyz
  'x, y, z' 

loop_
_atom_site_label
_atom_site_fract_x
_atom_site_fract_y
_atom_site_fract_z
_atom_site_type_symbol
C          0.0   0.3644      0.5     C
C          0.0   0.4375      0.5     C
C          0.0   0.5625      0.5     C
C          0.0   0.6356      0.5     C
C      0.00143  0.50072  0.03467     C
O      0.00183  0.50092  0.16477     O
N      0.00406  0.37953  0.04384     N
N      0.00406  0.62454  0.04384     N
C      0.00873  0.44357  0.01914     C
C      0.00873  0.56517  0.01914     C
C      0.01753  0.50877  0.07987     C
O       0.0208  0.39161  0.84483     O
O       0.0208  0.62918  0.84483     O
O      0.02423  0.46167  0.09773     O
O      0.02423  0.56257  0.09773     O
O       0.0272   0.2498  0.52769     O
O       0.0272   0.7774  0.52769     O
C      0.03107  0.33333  0.83333     C
C      0.03107  0.69773  0.83333     C
O      0.03748  0.31254  0.17817     O
O      0.03748  0.72495  0.17817     O
N      0.03807  0.20873  0.80453     N
N      0.03807  0.82933  0.80453     N
N      0.04213  0.32927  0.37717     N
N      0.04213  0.71286  0.37717     N
N      0.04619   0.3374   0.2895     N
N      0.04619   0.7088   0.2895     N
C      0.05307  0.52653  0.81063     C
C      0.05343  0.44747  0.22837     C
C      0.05343  0.60597  0.22837     C
Al      0.0566  0.46322  0.15185    Al
Al      0.0566  0.59339  0.15185    Al
C       0.0572   0.4979   0.4856     C
C       0.0572   0.5593   0.4856     C
O      0.05828  0.35413   0.4885     O
O      0.05828  0.70415   0.4885     O
C       0.0607   0.2799   0.5617     C
C       0.0607   0.7808   0.5617     C
Al     0.07328  0.27673  0.48518    Al
Al     0.07328  0.79655  0.48518    Al
O      0.08353  0.44407  0.19436     O
O      0.08353  0.63947  0.19436     O
O      0.09835   0.1967  0.47998     O
O      0.09835  0.90165  0.47998     O
C       0.1015   0.3246  0.35247     C
C       0.1015   0.7769  0.35247     C
O       0.1041   0.3091  0.43106     O
O       0.1041    0.795  0.43106     O
C      0.10417  0.33333  0.83333     C
C      0.10417  0.77083  0.83333     C
C      0.10737  0.27613  0.81893     C
C      0.10737  0.83123  0.81893     C
C      0.11023  0.34207   0.3142     C
C      0.11023  0.76817   0.3142     C
O      0.11073  0.41687  0.13898     O
O      0.11073  0.69387  0.13898     O
C      0.11413  0.38677  0.10497     C
C      0.11413  0.72737  0.10497     C
N       0.1246    0.496   0.4712     N
N       0.1246   0.6286   0.4712     N
O      0.12833  0.35757  0.23561     O
O      0.12833  0.77077  0.23561     O
Al     0.12988  0.38994  0.18149    Al
Al     0.12988  0.73995  0.18149    Al
O      0.13663  0.56832  0.14665     O
C      0.14013  0.28027  0.14397     C
C      0.14013  0.85987  0.14397     C
C       0.1579   0.3158   0.4132     C
C       0.1579   0.8421   0.4132     C
N      0.16267  0.45793  0.86213     N
N      0.16267  0.70473  0.86213     N
C      0.16457  0.39053  0.84773     C
C      0.16457  0.77403  0.84773     C
O      0.16575   0.3315   0.4981     O
O      0.16575  0.83425   0.4981     O
C      0.16595   0.3319    0.368     C
C      0.16595  0.83405    0.368     C
C      0.16738  0.33477  0.29867     C
C      0.16738  0.83262  0.29867     C
O      0.16758  0.33517  0.16857     O
O      0.16758  0.83242  0.16857     O
C      0.16877  0.27613  0.81893     C
C      0.16877  0.89263  0.81893     C
N      0.17067  0.20873  0.80453     N
N      0.17067  0.96193  0.80453     N
C      0.17543  0.35087  0.25347     C
C      0.17543  0.82457  0.25347     C
C       0.1932   0.3864   0.5227     C
C       0.1932   0.8068   0.5227     C
O       0.1967  0.09835  0.52002     O
Al     0.20345  0.27673  0.48518    Al
Al     0.20345  0.92672  0.48518    Al
O        0.205   0.3091  0.43106     O
O        0.205   0.8959  0.43106     O
N      0.20873  0.03807  0.19547     N
N      0.20873  0.17067  0.19547     N
C       0.2192   0.2799   0.5617     C
C       0.2192   0.9393   0.5617     C
O       0.2226   0.2498  0.52769     O
O       0.2226   0.9728  0.52769     O
C       0.2231   0.3246  0.35247     C
C       0.2231   0.8985  0.35247     C
C      0.22597  0.39053  0.84773     C
C      0.22597  0.83543  0.84773     C
C      0.22917  0.33333  0.83333     C
C      0.22917  0.89583  0.83333     C
O      0.22923  0.35757  0.23561     O
O      0.22923  0.87167  0.23561     O
C      0.23183  0.34207   0.3142     C
C      0.23183  0.88977   0.3142     C
O      0.23498  0.46997  0.18669     O
O      0.23498  0.76502  0.18669     O
O       0.2498   0.0272  0.47231     O
O       0.2498   0.2226  0.47231     O
Al     0.26005  0.38994  0.18149    Al
Al     0.26005  0.87012  0.18149    Al
C      0.27263  0.38677  0.10497     C
C      0.27263  0.88587  0.10497     C
O      0.27505  0.31254  0.17817     O
O      0.27505  0.96252  0.17817     O
C      0.27613  0.10737  0.18107     C
C      0.27613  0.16877  0.18107     C
Al     0.27673  0.07328  0.51482    Al
Al     0.27673  0.20345  0.51482    Al
C       0.2799   0.0607   0.4383     C
C       0.2799   0.2192   0.4383     C
C      0.28027  0.14013  0.85603     C
N      0.28714  0.32927  0.37717     N
N      0.28714  0.95787  0.37717     N
N       0.2912   0.3374   0.2895     N
N       0.2912  0.95381   0.2895     N
N      0.29527  0.45793  0.86213     N
N      0.29527  0.83733  0.86213     N
O      0.29585  0.35413   0.4885     O
O      0.29585  0.94172   0.4885     O
C      0.30227  0.33333  0.83333     C
C      0.30227  0.96893  0.83333     C
O      0.30613  0.41687  0.13898     O
O      0.30613  0.88927  0.13898     O
O       0.3091   0.1041  0.56894     O
O       0.3091    0.205  0.56894     O
O      0.31254  0.03748  0.82183     O
O      0.31254  0.27505  0.82183     O
C       0.3158   0.1579   0.5868     C
C       0.3246   0.1015  0.64753     C
C       0.3246   0.2231  0.64753     C
N      0.32927  0.04213  0.62283     N
N      0.32927  0.28714  0.62283     N
O       0.3315  0.16575   0.5019     O
C       0.3319  0.16595    0.632     C
C      0.33333  0.03107  0.16667     C
C      0.33333  0.10417  0.16667     C
C      0.33333  0.22917  0.16667     C
C      0.33333  0.30227  0.16667     C
C      0.33477  0.16738  0.70133     C
O      0.33517  0.16758  0.83143     O
N       0.3374  0.04619   0.7105     N
N       0.3374   0.2912   0.7105     N
C      0.34207  0.11023   0.6858     C
C      0.34207  0.23183   0.6858     C
C      0.35087  0.17543  0.74653     C
O      0.35413  0.05828   0.5115     O
O      0.35413  0.29585   0.5115     O
O      0.35757  0.12833  0.76439     O
O      0.35757  0.22923  0.76439     O
O      0.36053  0.44407  0.19436     O
O      0.36053  0.91647  0.19436     O
C       0.3644      0.0      0.5     C
C       0.3644   0.3644      0.5     C
O      0.37082  0.39161  0.84483     O
O      0.37082   0.9792  0.84483     O
N       0.3714    0.496   0.4712     N
N       0.3714   0.8754   0.4712     N
N      0.37546  0.37953  0.04384     N
N      0.37546  0.99594  0.04384     N
N      0.37953  0.00406  0.95616     N
N      0.37953  0.37546  0.95616     N
C       0.3864   0.1932   0.4773     C
C      0.38677  0.11413  0.89503     C
C      0.38677  0.27263  0.89503     C
Al     0.38994  0.12988  0.81851    Al
Al     0.38994  0.26005  0.81851    Al
C      0.39053  0.16457  0.15227     C
C      0.39053  0.22597  0.15227     C
O      0.39161   0.0208  0.15517     O
O      0.39161  0.37082  0.15517     O
C      0.39403  0.44747  0.22837     C
C      0.39403  0.94657  0.22837     C
Al     0.40661  0.46322  0.15185    Al
Al     0.40661   0.9434  0.15185    Al
O      0.41687  0.11073  0.86102     O
O      0.41687  0.30613  0.86102     O
O      0.43168  0.56832  0.14665     O
O      0.43168  0.86337  0.14665     O
C      0.43483  0.44357  0.01914     C
C      0.43483  0.99127  0.01914     C
O      0.43743  0.46167  0.09773     O
O      0.43743  0.97577  0.09773     O
C       0.4375      0.0      0.5     C
C       0.4375   0.4375      0.5     C
C       0.4407   0.4979   0.4856     C
C       0.4407   0.9428   0.4856     C
C      0.44357  0.00873  0.98086     C
C      0.44357  0.43483  0.98086     C
O      0.44407  0.08353  0.80564     O
O      0.44407  0.36053  0.80564     O
C      0.44747  0.05343  0.77163     C
C      0.44747  0.39403  0.77163     C
N      0.45793  0.16267  0.13787     N
N      0.45793  0.29527  0.13787     N
O      0.46167  0.02423  0.90227     O
O      0.46167  0.43743  0.90227     O
Al     0.46322   0.0566  0.84815    Al
Al     0.46322  0.40661  0.84815    Al
O      0.46997  0.23498  0.81331     O
C      0.47347  0.52653  0.81063     C
C      0.47347  0.94693  0.81063     C
C      0.49123  0.50877  0.07987     C
C      0.49123  0.98247  0.07987     C
N        0.496   0.1246   0.5288     N
N        0.496   0.3714   0.5288     N
C       0.4979   0.0572   0.5144     C
C       0.4979   0.4407   0.5144     C
O      0.49908  0.50092  0.16477     O
O      0.49908  0.99817  0.16477     O
C      0.49928  0.50072  0.03467     C
C      0.49928  0.99857  0.03467     C
C      0.50072  0.00143  0.96533     C
C      0.50072  0.49928  0.96533     C
O      0.50092  0.00183  0.83523     O
O      0.50092  0.49908  0.83523     O
C       0.5021   0.5593   0.4856     C
C       0.5021   0.9428   0.4856     C
N        0.504   0.6286   0.4712     N
N        0.504   0.8754   0.4712     N
C      0.50877  0.01753  0.92013     C
C      0.50877  0.49123  0.92013     C
C      0.52653  0.05307  0.18937     C
C      0.52653  0.47347  0.18937     C
O      0.53003  0.76502  0.18669     O
Al     0.53678  0.59339  0.15185    Al
Al     0.53678   0.9434  0.15185    Al
O      0.53833  0.56257  0.09773     O
O      0.53833  0.97577  0.09773     O
N      0.54207  0.70473  0.86213     N
N      0.54207  0.83733  0.86213     N
C      0.55253  0.60597  0.22837     C
C      0.55253  0.94657  0.22837     C
O      0.55593  0.63947  0.19436     O
O      0.55593  0.91647  0.19436     O
C      0.55643  0.56517  0.01914     C
C      0.55643  0.99127  0.01914     C
C       0.5593   0.0572   0.5144     C
C       0.5593   0.5021   0.5144     C
C       0.5625      0.0      0.5     C
C       0.5625   0.5625      0.5     C
O      0.56257  0.02423  0.90227     O
O      0.56257  0.53833  0.90227     O
C      0.56517  0.00873  0.98086     C
C      0.56517  0.55643  0.98086     C
O      0.56832  0.13663  0.85335     O
O      0.56832  0.43168  0.85335     O
O      0.58313  0.69387  0.13898     O
O      0.58313  0.88927  0.13898     O
Al     0.59339   0.0566  0.84815    Al
Al     0.59339  0.53678  0.84815    Al
C      0.60597  0.05343  0.77163     C
C      0.60597  0.55253  0.77163     C
O      0.60839  0.62918  0.84483     O
O      0.60839   0.9792  0.84483     O
C      0.60947  0.77403  0.84773     C
C      0.60947  0.83543  0.84773     C
Al     0.61006  0.73995  0.18149    Al
Al     0.61006  0.87012  0.18149    Al
C      0.61323  0.72737  0.10497     C
C      0.61323  0.88587  0.10497     C
C       0.6136   0.8068   0.5227     C
N      0.62047  0.62454  0.04384     N
N      0.62047  0.99594  0.04384     N
N      0.62454  0.00406  0.95616     N
N      0.62454  0.62047  0.95616     N
N       0.6286   0.1246   0.5288     N
N       0.6286    0.504   0.5288     N
O      0.62918   0.0208  0.15517     O
O      0.62918  0.60839  0.15517     O
C       0.6356      0.0      0.5     C
C       0.6356   0.6356      0.5     C
O      0.63947  0.08353  0.80564     O
O      0.63947  0.55593  0.80564     O
O      0.64243  0.77077  0.23561     O
O      0.64243  0.87167  0.23561     O
O      0.64587  0.70415   0.4885     O
O      0.64587  0.94172   0.4885     O
C      0.64913  0.82457  0.25347     C
C      0.65793  0.76817   0.3142     C
C      0.65793  0.88977   0.3142     C
N       0.6626   0.7088   0.2895     N
N       0.6626  0.95381   0.2895     N
O      0.66483  0.83242  0.16857     O
C      0.66523  0.83262  0.29867     C
C      0.66667  0.69773  0.83333     C
C      0.66667  0.77083  0.83333     C
C      0.66667  0.89583  0.83333     C
C      0.66667  0.96893  0.83333     C
C       0.6681  0.83405    0.368     C
O       0.6685  0.83425   0.4981     O
N      0.67073  0.71286  0.37717     N
N      0.67073  0.95787  0.37717     N
C       0.6754   0.7769  0.35247     C
C       0.6754   0.8985  0.35247     C
C       0.6842   0.8421   0.4132     C
O      0.68746  0.72495  0.17817     O
O      0.68746  0.96252  0.17817     O
O       0.6909    0.795  0.43106     O
O       0.6909   0.8959  0.43106     O
O      0.69387  0.11073  0.86102     O
O      0.69387  0.58313  0.86102     O
C      0.69773  0.03107  0.16667     C
C      0.69773  0.66667  0.16667     C
O      0.70415  0.05828   0.5115     O
O      0.70415  0.64587   0.5115     O
N      0.70473  0.16267  0.13787     N
N      0.70473  0.54207  0.13787     N
N       0.7088  0.04619   0.7105     N
N       0.7088   0.6626   0.7105     N
N      0.71286  0.04213  0.62283     N
N      0.71286  0.67073  0.62283     N
C      0.71973  0.85987  0.14397     C
C       0.7201   0.7808   0.5617     C
C       0.7201   0.9393   0.5617     C
Al     0.72327  0.79655  0.48518    Al
Al     0.72327  0.92672  0.48518    Al
C      0.72387  0.83123  0.81893     C
C      0.72387  0.89263  0.81893     C
O      0.72495  0.03748  0.82183     O
O      0.72495  0.68746  0.82183     O
C      0.72737  0.11413  0.89503     C
C      0.72737  0.61323  0.89503     C
Al     0.73995  0.12988  0.81851    Al
Al     0.73995  0.61006  0.81851    Al
O       0.7502   0.7774  0.52769     O
O       0.7502   0.9728  0.52769     O
O      0.76502  0.23498  0.81331     O
O      0.76502  0.53003  0.81331     O
C      0.76817  0.11023   0.6858     C
C      0.76817  0.65793   0.6858     C
O      0.77077  0.12833  0.76439     O
O      0.77077  0.64243  0.76439     O
C      0.77083  0.10417  0.16667     C
C      0.77083  0.66667  0.16667     C
C      0.77403  0.16457  0.15227     C
C      0.77403  0.60947  0.15227     C
C       0.7769   0.1015  0.64753     C
C       0.7769   0.6754  0.64753     C
O       0.7774   0.0272  0.47231     O
O       0.7774   0.7502  0.47231     O
C       0.7808   0.0607   0.4383     C
C       0.7808   0.7201   0.4383     C
N      0.79127  0.82933  0.80453     N
N      0.79127  0.96193  0.80453     N
O        0.795   0.1041  0.56894     O
O        0.795   0.6909  0.56894     O
Al     0.79655  0.07328  0.51482    Al
Al     0.79655  0.72327  0.51482    Al
O       0.8033  0.90165  0.47998     O
C       0.8068   0.1932   0.4773     C
C       0.8068   0.6136   0.4773     C
C      0.82457  0.17543  0.74653     C
C      0.82457  0.64913  0.74653     C
N      0.82933  0.03807  0.19547     N
N      0.82933  0.79127  0.19547     N
C      0.83123  0.10737  0.18107     C
C      0.83123  0.72387  0.18107     C
O      0.83242  0.16758  0.83143     O
O      0.83242  0.66483  0.83143     O
C      0.83262  0.16738  0.70133     C
C      0.83262  0.66523  0.70133     C
C      0.83405  0.16595    0.632     C
C      0.83405   0.6681    0.632     C
O      0.83425  0.16575   0.5019     O
O      0.83425   0.6685   0.5019     O
C      0.83543  0.22597  0.15227     C
C      0.83543  0.60947  0.15227     C
N      0.83733  0.29527  0.13787     N
N      0.83733  0.54207  0.13787     N
C       0.8421   0.1579   0.5868     C
C       0.8421   0.6842   0.5868     C
C      0.85987  0.14013  0.85603     C
C      0.85987  0.71973  0.85603     C
O      0.86337  0.43168  0.85335     O
Al     0.87012  0.26005  0.81851    Al
Al     0.87012  0.61006  0.81851    Al
O      0.87167  0.22923  0.76439     O
O      0.87167  0.64243  0.76439     O
N       0.8754   0.3714   0.5288     N
N       0.8754    0.504   0.5288     N
C      0.88587  0.27263  0.89503     C
C      0.88587  0.61323  0.89503     C
O      0.88927  0.30613  0.86102     O
O      0.88927  0.58313  0.86102     O
C      0.88977  0.23183   0.6858     C
C      0.88977  0.65793   0.6858     C
C      0.89263  0.16877  0.18107     C
C      0.89263  0.72387  0.18107     C
C      0.89583  0.22917  0.16667     C
C      0.89583  0.66667  0.16667     C
O       0.8959    0.205  0.56894     O
O       0.8959   0.6909  0.56894     O
C       0.8985   0.2231  0.64753     C
C       0.8985   0.6754  0.64753     C
O      0.90165  0.09835  0.52002     O
O      0.90165   0.8033  0.52002     O
O      0.91647  0.36053  0.80564     O
O      0.91647  0.55593  0.80564     O
Al     0.92672  0.20345  0.51482    Al
Al     0.92672  0.72327  0.51482    Al
C       0.9393   0.2192   0.4383     C
C       0.9393   0.7201   0.4383     C
O      0.94172  0.29585   0.5115     O
O      0.94172  0.64587   0.5115     O
C       0.9428   0.4407   0.5144     C
C       0.9428   0.5021   0.5144     C
Al      0.9434  0.40661  0.84815    Al
Al      0.9434  0.53678  0.84815    Al
C      0.94657  0.39403  0.77163     C
C      0.94657  0.55253  0.77163     C
C      0.94693  0.47347  0.18937     C
N      0.95381   0.2912   0.7105     N
N      0.95381   0.6626   0.7105     N
N      0.95787  0.28714  0.62283     N
N      0.95787  0.67073  0.62283     N
N      0.96193  0.17067  0.19547     N
N      0.96193  0.79127  0.19547     N
O      0.96252  0.27505  0.82183     O
O      0.96252  0.68746  0.82183     O
C      0.96893  0.30227  0.16667     C
C      0.96893  0.66667  0.16667     C
O       0.9728   0.2226  0.47231     O
O       0.9728   0.7502  0.47231     O
O      0.97577  0.43743  0.90227     O
O      0.97577  0.53833  0.90227     O
O       0.9792  0.37082  0.15517     O
O       0.9792  0.60839  0.15517     O
C      0.98247  0.49123  0.92013     C
C      0.99127  0.43483  0.98086     C
C      0.99127  0.55643  0.98086     C
N      0.99594  0.37546  0.95616     N
N      0.99594  0.62047  0.95616     N
O      0.99817  0.49908  0.83523     O
C      0.99857  0.49928  0.96533     C
