data_I
_chemical_name_common  '/home/zhangsd/repos/MofS-CGCNN/ML/data/TSD/clean_cifs/CAYKEU_clean'
_cell_length_a 11.52880
_cell_length_b 12.35650
_cell_length_c 21.86100
_cell_angle_alpha 90.00000
_cell_angle_beta  90.00000
_cell_angle_gamma 117.80800
_space_group_name_H-M_alt      'P 1'


loop_
_space_group_symop_operation_xyz
  'x, y, z' 

loop_
_atom_site_label
_atom_site_fract_x
_atom_site_fract_y
_atom_site_fract_z
_atom_site_type_symbol
O       0.0003   0.2512   0.6515     O
O       0.0003   0.2512   0.8485     O
C       0.0004   0.6834    0.051     C
C       0.0004   0.6834    0.449     C
C        0.002   0.7756   0.0952     C
C        0.002   0.7756   0.4048     C
C       0.0058   0.5126   0.5325     C
C       0.0058   0.5126   0.9675     C
O       0.0064   0.8732   0.0765     O
O       0.0064   0.8732   0.4235     O
C       0.0075    0.424   0.5718     C
C       0.0075    0.424   0.9282     C
C       0.0084   0.7064   0.5123     C
C       0.0084   0.7064   0.9877     C
C       0.0111   0.6246   0.5524     C
C       0.0111   0.6246   0.9476     C
H       0.0119   0.7788   0.5267     H
H       0.0119   0.7788   0.9733     H
H       0.0143   0.4388   0.6137     H
H       0.0143   0.4388   0.8863     H
S      0.01988  0.65964  0.63205     S
S      0.01988  0.65964  0.86795     S
O       0.0319   0.7808    0.637     O
O       0.0319   0.7808    0.863     O
H       0.0353   0.1884     0.25     H
O       0.0365   0.1202     0.25     O
Pr     0.04248      0.0  0.65343    Pr
Pr     0.04248      0.0  0.84657    Pr
O       0.0837   0.1202     0.75     O
Pr     0.08946  0.81312     0.25    Pr
O       0.1025   0.4342   0.1577     O
O       0.1025   0.4342   0.3423     O
O       0.1319    0.651   0.6562     O
O       0.1319    0.651   0.8438     O
O       0.1332   0.1268   0.0765     O
O       0.1332   0.1268   0.4235     O
H       0.1531   0.1884     0.75     H
O       0.1597      0.0   0.1889     O
O       0.1597      0.0   0.3111     O
H       0.1933      0.0   0.1543     H
H       0.1933      0.0   0.3457     H
C       0.2264   0.2244   0.0952     C
C       0.2264   0.2244   0.4048     C
H       0.2331   0.2212   0.5267     H
H       0.2331   0.2212   0.9733     H
O       0.2509   0.2512   0.1515     O
O       0.2509   0.2512   0.3485     O
O       0.2511   0.2192    0.637     O
O       0.2511   0.2192    0.863     O
Pr     0.27634  0.18688     0.25    Pr
C        0.302   0.2936   0.5123     C
C        0.302   0.2936   0.9877     C
C        0.317   0.3166    0.051     C
C        0.317   0.3166    0.449     C
O       0.3317   0.4342   0.6577     O
O       0.3317   0.4342   0.8423     O
S      0.36024  0.34036  0.63205     S
S      0.36024  0.34036  0.86795     S
C       0.3865   0.3754   0.5524     C
C       0.3865   0.3754   0.9476     C
C       0.4165    0.424   0.0718     C
C       0.4165    0.424   0.4282     C
H       0.4245   0.4388   0.1137     H
H       0.4245   0.4388   0.3863     H
O       0.4809    0.349   0.6562     O
O       0.4809    0.349   0.8438     O
C       0.4932   0.4874   0.5325     C
C       0.4932   0.4874   0.9675     C
C       0.5068   0.5126   0.0325     C
C       0.5068   0.5126   0.4675     C
O       0.5191    0.651   0.1562     O
O       0.5191    0.651   0.3438     O
H       0.5755   0.5612   0.6137     H
H       0.5755   0.5612   0.8863     H
C       0.5835    0.576   0.5718     C
C       0.5835    0.576   0.9282     C
C       0.6135   0.6246   0.0524     C
C       0.6135   0.6246   0.4476     C
S      0.63976  0.65964  0.13205     S
S      0.63976  0.65964  0.36795     S
O       0.6683   0.5658   0.1577     O
O       0.6683   0.5658   0.3423     O
C        0.683   0.6834    0.551     C
C        0.683   0.6834    0.949     C
C        0.698   0.7064   0.0123     C
C        0.698   0.7064   0.4877     C
Pr     0.72366  0.81312     0.75    Pr
O       0.7489   0.7808    0.137     O
O       0.7489   0.7808    0.363     O
O       0.7491   0.7488   0.6515     O
O       0.7491   0.7488   0.8485     O
H       0.7669   0.7788   0.0267     H
H       0.7669   0.7788   0.4733     H
C       0.7736   0.7756   0.5952     C
C       0.7736   0.7756   0.9048     C
H       0.8067      0.0   0.6543     H
H       0.8067      0.0   0.8457     H
O       0.8403      0.0   0.6889     O
O       0.8403      0.0   0.8111     O
H       0.8469   0.8116     0.25     H
O       0.8668   0.8732   0.5765     O
O       0.8668   0.8732   0.9235     O
O       0.8681    0.349   0.1562     O
O       0.8681    0.349   0.3438     O
O       0.8975   0.5658   0.6577     O
O       0.8975   0.5658   0.8423     O
Pr     0.91054  0.18688     0.75    Pr
O       0.9163   0.8798     0.25     O
Pr     0.95752     -0.0  0.15343    Pr
Pr     0.95752     -0.0  0.34657    Pr
O       0.9635   0.8798     0.75     O
H       0.9647   0.8116     0.75     H
O       0.9681   0.2192    0.137     O
O       0.9681   0.2192    0.363     O
S      0.98012  0.34036  0.13205     S
S      0.98012  0.34036  0.36795     S
H       0.9857   0.5612   0.1137     H
H       0.9857   0.5612   0.3863     H
H       0.9881   0.2212   0.0267     H
H       0.9881   0.2212   0.4733     H
C       0.9889   0.3754   0.0524     C
C       0.9889   0.3754   0.4476     C
C       0.9916   0.2936   0.0123     C
C       0.9916   0.2936   0.4877     C
C       0.9925    0.576   0.0718     C
C       0.9925    0.576   0.4282     C
O       0.9936   0.1268   0.5765     O
O       0.9936   0.1268   0.9235     O
C       0.9942   0.4874   0.0325     C
C       0.9942   0.4874   0.4675     C
C        0.998   0.2244   0.5952     C
C        0.998   0.2244   0.9048     C
C       0.9996   0.3166    0.551     C
C       0.9996   0.3166    0.949     C
O       0.9997   0.7488   0.1515     O
O       0.9997   0.7488   0.3485     O
