data_I
_chemical_name_common  '/home/zhangsd/repos/MofS-CGCNN/ML/data/TSD/clean_cifs/CAZNEY_clean'
_cell_length_a 10.93810
_cell_length_b 13.51960
_cell_length_c 34.32600
_cell_angle_alpha 99.06190
_cell_angle_beta  90.00000
_cell_angle_gamma 113.86200
_space_group_name_H-M_alt      'P 1'


loop_
_space_group_symop_operation_xyz
  'x, y, z' 

loop_
_atom_site_label
_atom_site_fract_x
_atom_site_fract_y
_atom_site_fract_z
_atom_site_type_symbol
Co         0.0      0.5      0.5    Co
H       0.0315   0.8976   0.5882     H
C      0.04167  0.73714   0.5342     C
H       0.0598   0.5378   0.9118     H
H       0.0598   0.6008   0.6216     H
O      0.06702  0.25344  0.47055     O
O      0.07408  0.50496  0.55529     O
O      0.07555   0.6699   0.5125     O
H       0.0808   0.6142   0.8554     H
C      0.11071  0.88982  0.59276     C
O      0.11524  0.44948  0.96315     O
H       0.1229   0.6892   0.6866     H
H       0.1339   0.1024   0.9118     H
C      0.13578  0.60196  0.63414     C
C      0.13821  0.81322  0.56788     C
Co     0.14222  0.36642  0.00282    Co
C      0.14299  0.56598  0.90139     C
H       0.1496   0.5196   0.1204     H
H       0.1541    0.604   0.4165     H
C       0.1555   0.6136  0.86812     C
C      0.16899  0.49598   0.5718     C
H        0.171    0.993   0.8582     H
C      0.17436  0.65632  0.67316     C
H       0.1749    0.608    0.184     H
O      0.17798  0.50896  0.47406     O
H        0.178    0.007   0.6418     H
O      0.18642  0.25344  0.97055     O
H       0.1916   0.7348   0.7588     H
C       0.1989   0.9564  0.62472     C
C      0.20799  0.55038  0.61399     C
O      0.20802  0.44424  0.05613     O
H       0.2134   0.6858    0.361     H
C      0.22089  0.11018  0.90724     C
Co      0.2242  0.36642  0.50282    Co
H       0.2291    0.868   0.8209     H
C      0.23084  0.60608  0.40436     C
C      0.23369  0.50358  0.95442     C
C       0.2347   0.5542  0.13335     C
O      0.23622  0.44424  0.55613     O
C       0.2425   0.0436  0.87528     C
C       0.2499   0.6076  0.17133     C
C      0.25072  0.55944  0.91946     C
C      0.25497  0.80294  0.57479     C
H       0.2605   0.8254   0.7326     H
C       0.2666   0.6558  0.37128     C
C      0.26989  0.50358  0.45442     C
H        0.274     0.75   0.5584     H
C      0.27649  0.78038  0.74957     C
H       0.2784    0.958   0.7935     H
C      0.27972  0.66004  0.85399     C
O      0.28225   0.7081  0.82132     O
C      0.28611  0.66102  0.69129     C
H       0.2885   0.7404   0.2951     H
C      0.30453  0.26286   0.9658     C
C      0.30689  0.91718  0.80951     C
C      0.30872  0.55944  0.41946     C
C      0.31694  0.94648  0.63076     C
C       0.3195   0.5542  0.63335     C
H       0.3204    0.042   0.7065     H
C      0.32499  0.18678  0.93212     C
C      0.32699  0.49598   0.0718     C
O      0.33098  0.50896  0.97406     O
O      0.33424  0.44948  0.46315     O
O      0.33687  0.71374  0.72863     O
C      0.34239  0.55038  0.11399     C
H       0.3455   0.8882   0.2521     H
C       0.3456   0.8706  0.60588     C
C       0.3577   0.6076  0.67133     C
H       0.3611    0.132   0.6791     H
H       0.3622   0.8264   0.3333     H
H         0.37   0.5196   0.6204     H
C      0.37046  0.05352  0.86924     C
C      0.37421  0.78102  0.31011     C
C      0.37479  0.85238  0.78453     C
C      0.37491  0.66102  0.19129     C
C      0.37524  0.60608  0.90436     C
O      0.37687  0.71374  0.22863     O
C      0.38032  0.66004  0.35399     C
C       0.3892   0.6558  0.87128     C
C      0.38971  0.08282  0.69049     C
H       0.4019   0.9716    0.292     H
O      0.40565   0.3301   0.9875     O
O      0.40625   0.9909  0.84026     O
C      0.40681  0.78102  0.81011     C
O      0.41535   0.0091  0.65974     O
C      0.42299  0.56598  0.40139     C
C      0.42476  0.92952  0.26991     C
O      0.42585   0.7081  0.32132     O
H        0.426   0.8642   0.6098     H
H       0.4303   0.0284    0.208     H
O      0.43088  0.50496  0.05529     O
H       0.4331    0.608    0.684     H
H       0.4337   0.3108   0.8134     H
H       0.4351   0.1746   0.7674     H
H       0.4382   0.8642   0.1098     H
H       0.4499    0.604   0.9165     H
H       0.4519   0.7404   0.7951     H
C      0.45203  0.19706  0.92521     C
H       0.4568   0.2652   0.7412     H
H       0.4573   0.1118   0.2479     H
C       0.4581   0.6136  0.36812     C
H        0.459   0.3992   0.8784     H
H       0.4642   0.8264   0.8333     H
C      0.46618  0.60196  0.13414     C
H       0.4666   0.3858   0.6446     H
O       0.4712      0.0     0.75     O
H       0.4724   0.6858    0.861     H
C        0.475   0.1294  0.89412     C
H        0.476     0.75   0.0584     H
C      0.47759  0.85238  0.28453     C
H        0.478   0.5378   0.4118     H
C      0.48196  0.65632  0.17316     C
C      0.49524  0.07048  0.23009     C
C      0.49611  0.21962  0.75043     C
Co         0.5      0.5      0.0    Co
C      0.50389  0.78038  0.24957     C
C      0.50476  0.92952  0.76991     C
C      0.51804  0.34368  0.82684     C
H        0.522   0.4622   0.5882     H
C      0.52241  0.14762  0.71547     C
H        0.524     0.25   0.9416     H
C        0.525   0.8706  0.10588     C
H       0.5276   0.3142    0.139     H
O       0.5288      0.0     0.25     O
H       0.5334   0.6142   0.3554     H
C      0.53382  0.39804  0.86586     C
H       0.5358   0.1736   0.1667     H
H        0.541   0.6008   0.1216     H
C       0.5419   0.3864  0.63188     C
H       0.5427   0.8882   0.7521     H
H       0.5432   0.7348   0.2588     H
C      0.54797  0.80294  0.07479     C
H       0.5481   0.2596   0.2049     H
H       0.5501    0.396   0.0835     H
H       0.5618   0.1358   0.8902     H
H       0.5649   0.8254   0.2326     H
H       0.5663   0.6892   0.1866     H
H       0.5669    0.392    0.316     H
O      0.56912  0.49504  0.94471     O
H       0.5697   0.9716    0.792     H
H        0.574   0.1358   0.3902     H
O      0.57415   0.2919  0.67868     O
C      0.57524  0.07048  0.73009     C
C      0.57701  0.43402  0.59861     C
O      0.58465   0.9909  0.34026     O
C      0.59319  0.21898  0.18989     C
O      0.59375   0.0091  0.15974     O
O      0.59435   0.6699   0.0125     O
H       0.5981   0.0284    0.708     H
C      0.61029  0.91718  0.30951     C
C       0.6108   0.3442  0.12872     C
C      0.61968  0.33996  0.64601     C
O      0.62313  0.28626  0.77137     O
C      0.62476  0.39392  0.09564     C
C      0.62509  0.33898  0.80871     C
C      0.62521  0.14762  0.21547     C
C      0.62579  0.21898  0.68989     C
C      0.62954  0.94648  0.13076     C
H         0.63   0.4804   0.3796     H
H       0.6378   0.1736   0.6667     H
H       0.6389    0.868   0.3209     H
C       0.6423   0.3924  0.32867     C
C       0.6544   0.1294  0.39412     C
H       0.6545   0.1118   0.7479     H
C      0.65761  0.44962  0.88601     C
O      0.66313  0.28626  0.27137     O
O      0.66576  0.55052  0.53685     O
O      0.66902  0.49104  0.02594     O
C      0.67301  0.50402   0.9282     C
C      0.67501  0.81322  0.06788     C
H       0.6796    0.958   0.2935     H
C       0.6805   0.4458  0.36665     C
C      0.68306  0.05352  0.36924     C
C      0.69128  0.44056  0.58054     C
C      0.69311  0.08282  0.19049     C
C      0.69547  0.73714   0.0342     C
H       0.7115   0.2596   0.7049     H
C      0.71389  0.33898  0.30871     C
O      0.71775   0.2919  0.17868     O
C      0.72028  0.33996  0.14601     C
H       0.7216    0.042   0.2065     H
C      0.72351  0.21962  0.25043     C
H        0.726     0.25   0.4416     H
C      0.73011  0.49642  0.54558     C
C       0.7334   0.3442  0.62872     C
H       0.7395   0.1746   0.2674     H
C      0.74503  0.19706  0.42521     C
C      0.74928  0.44056  0.08054     C
C       0.7501   0.3924  0.82867     C
C       0.7575   0.9564  0.12472     C
O      0.76378  0.55576  0.44387     O
C       0.7653   0.4458  0.86665     C
C      0.76631  0.49642  0.04558     C
C      0.76916  0.39392  0.59564     C
H       0.7709    0.132   0.1791     H
Co      0.7758  0.63358  0.49718    Co
C      0.77911  0.88982  0.09276     C
H       0.7866   0.3142    0.639     H
O      0.79198  0.55576  0.94387     O
C      0.79201  0.44962  0.38601     C
C       0.8011   0.0436  0.37528     C
H       0.8084   0.2652   0.2412     H
O      0.81358  0.74656  0.02945     O
H        0.822    0.993   0.3582     H
O      0.82202  0.49104  0.52594     O
H       0.8251    0.392    0.816     H
C      0.82564  0.34368  0.32684     C
H        0.829    0.007   0.1418     H
C      0.83101  0.50402   0.4282     C
C       0.8445   0.3864  0.13188     C
H       0.8459    0.396   0.5835     H
H       0.8504   0.4804   0.8796     H
C      0.85701  0.43402  0.09861     C
Co     0.85778  0.63358  0.99718    Co
C      0.86179  0.18678  0.43212     C
C      0.86422  0.39804  0.36586     C
H       0.8661   0.8976   0.0882     H
H       0.8771   0.3108   0.3134     H
O      0.88476  0.55052  0.03685     O
C      0.88929  0.11018  0.40724     C
H       0.9192   0.3858   0.1446     H
O      0.92445   0.3301   0.4875     O
O      0.92592  0.49504  0.44471     O
O      0.93298  0.74656  0.52945     O
H       0.9402   0.3992   0.3784     H
H       0.9402   0.4622   0.0882     H
C      0.95833  0.26286   0.4658     C
H       0.9685   0.1024   0.4118     H
