data_I
_chemical_name_common  '/home/zhangsd/repos/MofS-CGCNN/ML/data/TSD/clean_cifs/CEHLAD_clean'
_cell_length_a 13.69290
_cell_length_b 13.69290
_cell_length_c 50.66400
_cell_angle_alpha 90.00000
_cell_angle_beta  90.00000
_cell_angle_gamma 90.00000
_space_group_name_H-M_alt      'P 1'


loop_
_space_group_symop_operation_xyz
  'x, y, z' 

loop_
_atom_site_label
_atom_site_fract_x
_atom_site_fract_y
_atom_site_fract_z
_atom_site_type_symbol
C       0.0043    0.054   0.5346     C
Zn     0.00475  0.41549  0.38233    Zn
C       0.0068   0.7977  0.06348     C
Zn     0.01201  0.86198  0.50532    Zn
O       0.0148   0.6148  0.11498     O
O       0.0177   0.5368  0.65941     O
C       0.0249   0.2598  0.58486     C
O       0.0272   0.9572  0.96825     O
C       0.0357   0.6514  0.09239     C
O       0.0368   0.4823  0.90941     O
H       0.0379   0.1604   0.4347     H
O       0.0384   0.6147  0.62197     O
O       0.0428   0.9728  0.53175     O
C       0.0439   0.1183   0.5571     C
Zn     0.05397  0.26897  0.33189    Zn
C        0.054   0.0043   0.4654     C
O       0.0584   0.2082  0.97468     O
O       0.0614    0.659  0.85249     O
H       0.0614   0.7793   0.0537     H
C       0.0628   0.5963  0.64526     C
O       0.0658   0.9131  0.02201     O
O       0.0706   0.3109  0.40347     O
H       0.0729   0.3369   0.9399     H
Zn     0.08451  0.50475  0.13233    Zn
O       0.0869   0.9342  0.47799     O
C       0.0929   0.1255  0.42955     C
C       0.0963   0.4372  0.89526     C
O       0.1001   0.1789  0.02976     O
O       0.1003   0.6247  0.07741     O
C       0.1059   0.2304  0.59911     C
C       0.1136   0.2443  0.39189     C
O       0.1147   0.4616  0.87197     O
O       0.1148   0.4852  0.36498     O
C       0.1183   0.0439   0.4429     C
C       0.1237   0.3099  0.93017     C
O       0.1247   0.3997  0.32741     O
C       0.1255   0.0929  0.57045     C
H       0.1255   0.2665   0.6137     H
O       0.1315   0.2402   0.3675     O
C       0.1346   0.1753  0.96356     C
Zn     0.13802  0.98799  0.99468    Zn
C       0.1387    0.692  0.86433     C
H       0.1392   0.2873   0.0667     H
O       0.1471   0.6866  0.88826     O
C       0.1476   0.6503   0.6563     C
C        0.148   0.1583  0.40806     C
C       0.1503   0.3524   0.9063     C
C       0.1514   0.4643  0.34239     C
C       0.1583    0.148  0.59194     C
O        0.159   0.4386  0.10249     O
H       0.1604   0.0379   0.5653     H
H       0.1631   0.5729   0.6899     H
H       0.1638   0.7432   0.6256     H
C       0.1714   0.2282  0.93966     C
C       0.1753   0.1346  0.03644     C
O       0.1789   0.1001  0.97024     O
O       0.1866   0.3529  0.13826     O
C       0.1886   0.7271  0.64209     C
O       0.1891   0.5706  0.15347     O
C       0.1901   0.6237  0.68017     C
C       0.1913   0.2521  0.07365     C
C        0.192   0.3613  0.11433     C
C       0.2023   0.9932  0.43652     C
O       0.2082   0.0584  0.02532     O
H       0.2127   0.6392   0.8167     H
C       0.2203   0.7339  0.84762     C
H       0.2207   0.9386   0.4463     H
C       0.2271   0.3114  0.89209     C
C       0.2282   0.1714  0.06034     C
C       0.2304   0.1059  0.40089     C
Zn     0.23103  0.55397  0.08189    Zn
H       0.2335   0.6255   0.3637     H
C       0.2339   0.2797  0.09762     C
O       0.2402   0.1315   0.6325     O
C       0.2402   0.5249  0.33486     C
H       0.2432   0.3362   0.8756     H
C       0.2443   0.1136  0.60811     C
C       0.2479   0.6913  0.82365     C
C       0.2521   0.1913  0.92635     C
C       0.2557   0.6136  0.14189     C
H       0.2568   0.8362   0.8744     H
C       0.2598   0.0249  0.41514     C
O       0.2598   0.6315   0.1175     O
C       0.2661   0.7797  0.65238     C
H       0.2665   0.1255   0.3863     H
Zn     0.26897  0.05397  0.66811    Zn
C       0.2696   0.6059  0.34911     C
C       0.2718   0.6714  0.68966     C
C       0.2729   0.8114  0.85791     C
H       0.2793   0.4386   0.3037     H
C       0.2797   0.2339  0.90238     C
H       0.2873   0.1392   0.9333     H
O       0.2918   0.5584  0.72468     O
C       0.2977   0.4932  0.31348     C
C        0.308   0.8613  0.63567     C
C       0.3087   0.7521  0.67635     C
C       0.3099   0.1237  0.06983     C
O       0.3109   0.0706  0.59653     O
C       0.3114   0.2271  0.10791     C
O       0.3134   0.8529  0.61174     O
O       0.3211   0.6001  0.77976     O
C       0.3247   0.6346  0.71356     C
C       0.3286   0.7282  0.81034     C
H       0.3362   0.2432   0.1244     H
H       0.3369   0.0729   0.0601     H
H       0.3396   0.5379   0.1847     H
O        0.341   0.9386  0.64751     O
C       0.3417    0.648  0.15806     C
C       0.3486   0.9643  0.40761     C
C       0.3497   0.8524   0.8437     C
C        0.352   0.6583  0.34194     C
C       0.3524   0.1503   0.0937     C
O       0.3529   0.1866  0.86174     O
H       0.3608   0.7873   0.6833     H
C       0.3613    0.192  0.88567     C
Zn     0.36198  0.48799  0.75532    Zn
C       0.3654   0.6753  0.78644     C
O       0.3685   0.7402   0.3825     O
C       0.3745   0.5929  0.17955     C
H       0.3745   0.7665   0.1363     H
O       0.3753   0.8997  0.42259     O
C       0.3763   0.8099  0.81983     C
C       0.3817   0.5439   0.3071     C
O       0.3852   0.9852  0.38502     O
O       0.3853   0.9616  0.87803     O
C       0.3864   0.7443  0.35811     C
C       0.3941   0.7304  0.15089     C
O       0.3997   0.1247  0.67259     O
O       0.3999   0.6789  0.72024     O
C       0.4037   0.9372  0.85474     C
C       0.4071   0.6255  0.32045     C
O       0.4131   0.4342  0.27201     O
Zn     0.41549  0.00475  0.61767    Zn
H       0.4271   0.8369   0.8101     H
O       0.4294   0.8109  0.34653     O
O       0.4342   0.4131  0.72799     O
C       0.4372   0.0963  0.10474     C
O       0.4386    0.159  0.89751     O
H       0.4386   0.2793   0.6963     H
O       0.4416   0.7082  0.77532     O
C        0.446   0.5043   0.2846     C
Zn     0.44603  0.76897  0.41811    Zn
C       0.4561   0.6183   0.1929     C
O       0.4572   0.4728  0.21825     O
O       0.4616   0.1147  0.12803     O
H       0.4621   0.6604   0.3153     H
O       0.4632   0.9823  0.84059     O
C       0.4643   0.1514  0.65761     C
O       0.4728   0.4572  0.78175     O
C       0.4751   0.7598  0.16514     C
O       0.4823   0.0368  0.09059     O
O       0.4852   0.1148  0.63502     O
Zn     0.48799  0.36198  0.24468    Zn
C       0.4932   0.2977  0.68652     C
Zn     0.49525  0.91549  0.36767    Zn
C       0.4957    0.554   0.2154     C
C       0.5043    0.446   0.7154     C
Zn     0.50475  0.08451  0.86767    Zn
C       0.5068   0.7023  0.18652     C
Zn     0.51201  0.63802  0.74468    Zn
O       0.5148   0.8852  0.13502     O
O       0.5177   0.9632  0.59059     O
C       0.5249   0.2402  0.66514     C
O       0.5272   0.5428  0.28175     O
C       0.5357   0.8486  0.15761     C
O       0.5368   0.0177  0.34059     O
H       0.5379   0.3396   0.8153     H
O       0.5384   0.8853  0.62803     O
O       0.5428   0.5272  0.71825     O
C       0.5439   0.3817   0.6929     C
Zn     0.55397  0.23103  0.91811    Zn
C        0.554   0.4957   0.7846     C
O       0.5584   0.2918  0.27532     O
H       0.5614   0.7207   0.1963     H
O       0.5614    0.841  0.39751     O
C       0.5628   0.9037  0.60474     C
O       0.5658   0.5869  0.22799     O
O       0.5706   0.1891  0.84653     O
H       0.5729   0.1631   0.3101     H
Zn     0.58451  0.99525  0.11767    Zn
O       0.5869   0.5658  0.77201     O
C       0.5929   0.3745  0.82045     C
C       0.5963   0.0628  0.35474     C
O       0.6001   0.3211  0.22024     O
O       0.6003   0.8753  0.17259     O
C       0.6059   0.2696  0.65089     C
C       0.6136   0.2557  0.85811     C
O       0.6147   0.0384  0.37803     O
O       0.6148   0.0148  0.88502     O
C       0.6183   0.4561   0.8071     C
C       0.6237   0.1901  0.31983     C
O       0.6247   0.1003  0.92259     O
H       0.6255   0.2335   0.6363     H
C       0.6255   0.4071  0.67955     C
O       0.6315   0.2598   0.8825     O
C       0.6346   0.3247  0.28644     C
Zn     0.63802  0.51201  0.25532    Zn
C       0.6387    0.808  0.38567     C
H       0.6392   0.2127   0.1833     H
O       0.6471   0.8134  0.36174     O
C       0.6476   0.8497   0.5937     C
C        0.648   0.3417  0.84194     C
C       0.6503   0.1476   0.3437     C
C       0.6514   0.0357  0.90761     C
C       0.6583    0.352  0.65806     C
O        0.659   0.0614  0.14751     O
H       0.6604   0.4621   0.6847     H
H       0.6631   0.9271   0.5601     H
H       0.6638   0.7568   0.6244     H
C       0.6714   0.2718  0.31034     C
C       0.6753   0.3654  0.21356     C
O       0.6789   0.3999  0.27976     O
O       0.6866   0.1471  0.11174     O
C       0.6886   0.7729  0.60791     C
O       0.6891   0.9294  0.09653     O
C       0.6901   0.8763  0.56983     C
C       0.6913   0.2479  0.17635     C
C        0.692   0.1387  0.13567     C
C       0.7023   0.5068  0.81348     C
O       0.7082   0.4416  0.22468     O
H       0.7127   0.8608   0.4333     H
C       0.7203   0.7661  0.40238     C
H       0.7207   0.5614   0.8037     H
C       0.7271   0.1886  0.35791     C
C       0.7282   0.3286  0.18966     C
C       0.7304   0.3941  0.84911     C
Zn     0.73103  0.94603  0.16811    Zn
H       0.7335   0.8745   0.8863     H
C       0.7339   0.2203  0.15238     C
O       0.7402   0.3685   0.6175     O
C       0.7402   0.9751  0.91514     C
H       0.7432   0.1638   0.3744     H
C       0.7443   0.3864  0.64189     C
C       0.7479   0.8087  0.42635     C
C       0.7521   0.3087  0.32365     C
C       0.7557   0.8864  0.10811     C
H       0.7568   0.6638   0.3756     H
C       0.7598   0.4751  0.83486     C
O       0.7598   0.8685   0.1325     O
C       0.7661   0.7203  0.59762     C
H       0.7665   0.3745   0.8637     H
Zn     0.76897  0.44603  0.58189    Zn
C       0.7696   0.8941  0.90089     C
C       0.7718   0.8286  0.56034     C
C       0.7729   0.6886  0.39209     C
H       0.7793   0.0614   0.9463     H
C       0.7797   0.2661  0.34762     C
H       0.7873   0.3608   0.3167     H
O       0.7918   0.9416  0.52532     O
C       0.7977   0.0068  0.93652     C
C        0.808   0.6387  0.61433     C
C       0.8087   0.7479  0.57365     C
C       0.8099   0.3763  0.18017     C
O       0.8109   0.4294  0.65347     O
C       0.8114   0.2729  0.14209     C
O       0.8134   0.6471  0.63826     O
O       0.8211   0.8999  0.47024     O
C       0.8247   0.8654  0.53644     C
C       0.8286   0.7718  0.43966     C
H       0.8362   0.2568   0.1256     H
H       0.8369   0.4271   0.1899     H
H       0.8396   0.9621   0.0653     H
O        0.841   0.5614  0.60249     O
C       0.8417    0.852  0.09194     C
C       0.8486   0.5357  0.84239     C
C       0.8497   0.6476   0.4063     C
C        0.852   0.8417  0.90806     C
C       0.8524   0.3497   0.1563     C
O       0.8529   0.3134  0.38826     O
H       0.8608   0.7127   0.5667     H
C       0.8613    0.308  0.36433     C
Zn     0.86198  0.01201  0.49468    Zn
C       0.8654   0.8247  0.46356     C
O       0.8685   0.7598   0.8675     O
H       0.8745   0.7335   0.1137     H
C       0.8745   0.9071  0.07045     C
O       0.8753   0.6003  0.82741     O
C       0.8763   0.6901  0.43017     C
C       0.8817   0.9561   0.9429     C
O       0.8852   0.5148  0.86498     O
O       0.8853   0.5384  0.37197     O
C       0.8864   0.7557  0.89189     C
C       0.8941   0.7696  0.09911     C
O       0.8997   0.3753  0.57741     O
O       0.8999   0.8211  0.52976     O
C       0.9037   0.5628  0.39526     C
C       0.9071   0.8745  0.92955     C
O       0.9131   0.0658  0.97799     O
Zn     0.91549  0.49525  0.63233    Zn
H       0.9271   0.6631   0.4399     H
O       0.9294   0.6891  0.90347     O
O       0.9342   0.0869  0.52201     O
C       0.9372   0.4037  0.14526     C
H       0.9386   0.2207   0.5537     H
O       0.9386    0.341  0.35249     O
O       0.9416   0.7918  0.47468     O
C        0.946   0.9957   0.9654     C
Zn     0.94603  0.73103  0.83189    Zn
C       0.9561   0.8817   0.0571     C
O       0.9572   0.0272  0.03175     O
O       0.9616   0.3853  0.12197     O
H       0.9621   0.8396   0.9347     H
O       0.9632   0.5177  0.40941     O
C       0.9643   0.3486  0.59239     C
O       0.9728   0.0428  0.46825     O
C       0.9751   0.7402  0.08486     C
O       0.9823   0.4632  0.15941     O
O       0.9852   0.3852  0.61498     O
Zn     0.98799  0.13802  0.00532    Zn
C       0.9932   0.2023  0.56348     C
Zn     0.99525  0.58451  0.88233    Zn
C       0.9957    0.946   0.0346     C
