data_I
_chemical_name_common  '/home/zhangsd/repos/MofS-CGCNN/ML/data/TSD/clean_cifs/CEKHIL_clean'
_cell_length_a 10.15200
_cell_length_b 17.95300
_cell_length_c 18.06200
_cell_angle_alpha 90.00000
_cell_angle_beta  94.62000
_cell_angle_gamma 90.00000
_space_group_name_H-M_alt      'P 1'


loop_
_space_group_symop_operation_xyz
  'x, y, z' 

loop_
_atom_site_label
_atom_site_fract_x
_atom_site_fract_y
_atom_site_fract_z
_atom_site_type_symbol
C      0.00899  0.14279  0.04803     C
C       0.0168  0.19448  0.33164     C
H       0.0229   0.1214   0.8028     H
C      0.02611   0.1285  0.91467     C
C      0.02851  0.61565  0.15725     C
C       0.0322  0.66142  0.81824     C
H        0.035   0.2046   0.3819     H
C      0.05077  0.61986  0.02561     C
N       0.0688   0.6431   0.8937     N
C       0.0947  0.16782  0.21215     C
H       0.1141   0.1429   0.9228     H
C       0.1157  0.68773  0.69884     C
C       0.1168  0.18617  0.28708     C
O       0.1229   0.1704    0.059     O
H       0.1354   0.6099    0.899     H
C       0.1393  0.66994  0.77322     C
O       0.1481   0.6101   0.2977     O
C      0.16001  0.59417  0.16946     C
H       0.1654   0.1601   0.1833     H
C      0.18227  0.59838  0.03782     C
O       0.2006   0.7261   0.5883     O
C       0.2134  0.58465  0.24763     C
H       0.2256   0.6636   0.7937     H
C        0.228   0.6987  0.65034     C
H       0.2337   0.5926   0.9979     H
C      0.23689  0.58553  0.10974     C
C       0.2594   0.1906  0.32087     C
Co     0.27432  0.75069  0.48809    Co
O       0.2776   0.2047   0.3885     O
N       0.3209   0.5441   0.2588     N
H       0.3249   0.5712   0.1179     H
O       0.3409   0.6787    0.677     O
O        0.353   0.1796   0.2803     O
H       0.3735   0.6276   0.3777     H
H       0.3795   0.5528   0.2249     H
C        0.384  0.52569  0.33035     C
C       0.3988   0.5784  0.38641     C
O       0.4004   0.8358   0.5214     O
H       0.4105   0.4185   0.3026     H
C       0.4243  0.45293  0.34091     C
O       0.4362   0.6758   0.5096     O
C       0.4543  0.55503  0.45843     C
H       0.4584   0.9655   0.4873     H
C       0.4649   0.8516  0.58063     C
C       0.4689  0.60798  0.51979     C
O       0.4845   0.0861    0.418     O
C       0.4875  0.43065  0.41088     C
Co      0.4907  0.19537  0.37142    Co
O       0.4987   0.3078   0.3689     O
C       0.4991   0.9804  0.53288     C
C       0.5009   0.4804  0.46712     C
O       0.5013   0.8078   0.6311     O
Co      0.5093  0.69537  0.62858    Co
C       0.5125  0.93065  0.58912     C
O       0.5155   0.5861    0.582     O
C       0.5311  0.10798  0.48021     C
C       0.5351   0.3516  0.41937     C
H       0.5416   0.4655   0.5127     H
C       0.5457  0.05503  0.54157     C
O       0.5638   0.1758   0.4904     O
C       0.5757  0.95293  0.65909     C
H       0.5895   0.9185   0.6974     H
O       0.5996   0.3358   0.4786     O
C       0.6012   0.0784  0.61359     C
C        0.616  0.02569  0.66965     C
H       0.6205   0.0528   0.7751     H
H       0.6265   0.1276   0.6223     H
O        0.647   0.6796   0.7197     O
O       0.6591   0.1787    0.323     O
H       0.6751   0.0712   0.8821     H
N       0.6791   0.0441   0.7412     N
O       0.7224   0.7047   0.6115     O
Co     0.72568  0.25069  0.51191    Co
C       0.7406   0.6906  0.67913     C
C      0.76311  0.08553  0.89026     C
H       0.7663   0.0926   0.0021     H
C        0.772   0.1987  0.34966     C
H       0.7744   0.1636   0.2063     H
C       0.7866  0.08465  0.75237     C
O       0.7994   0.2261   0.4117     O
C      0.81773  0.09838  0.96218     C
H       0.8346   0.6601   0.8167     H
C      0.83999  0.09417  0.83054     C
O       0.8519   0.1101   0.7023     O
C       0.8607  0.16994  0.22678     C
H       0.8646   0.1099    0.101     H
O       0.8771   0.6704    0.941     O
C       0.8832  0.68617  0.71292     C
C       0.8843  0.18773  0.30116     C
H       0.8859   0.6429   0.0772     H
C       0.9053  0.66782  0.78785     C
N       0.9312   0.1431   0.1063     N
C      0.94923  0.11986  0.97439     C
H        0.965   0.7046   0.6181     H
C       0.9678  0.16142  0.18176     C
C      0.97149  0.11565  0.84275     C
C      0.97389   0.6285  0.08533     C
H       0.9771   0.6214   0.1972     H
C       0.9832  0.69448  0.66836     C
C      0.99101  0.64279  0.95197     C
