data_I
_chemical_name_common  '/home/zhangsd/repos/MofS-CGCNN/ML/data/TSD/clean_cifs/CIPCUB_clean'
_cell_length_a 13.40710
_cell_length_b 15.79400
_cell_length_c 17.81470
_cell_angle_alpha 93.02100
_cell_angle_beta  90.00000
_cell_angle_gamma 90.00000
_space_group_name_H-M_alt      'P 1'


loop_
_space_group_symop_operation_xyz
  'x, y, z' 

loop_
_atom_site_label
_atom_site_fract_x
_atom_site_fract_y
_atom_site_fract_z
_atom_site_type_symbol
H       0.0095   0.0882   0.5408     H
Cd     0.01316  0.74651  0.26068    Cd
C       0.0177   0.8711   0.7213     C
C       0.0198   0.8666   0.7981     C
H       0.0269   0.1026   0.1732     H
C       0.0271   0.8789   0.5628     C
C       0.0384   0.8834   0.4861     C
C       0.0498   0.0779   0.3916     C
C       0.0517   0.0813   0.3179     C
O       0.0723   0.3217   0.8361     O
H       0.0858    0.816   0.8853     H
C       0.0869   0.8191   0.8333     C
C       0.0909    0.824   0.6805     C
O       0.0923   0.8074   0.1584     O
O       0.0928   0.1729   0.6688     O
C       0.0966   0.8305   0.6015     C
H       0.0988   0.0472   0.4152     H
H       0.1007   0.0511   0.2908     H
O       0.1027   0.6793    0.347     O
O       0.1073     0.38   0.7289     O
H       0.1082   0.4262   0.9456     H
C       0.1142   0.3794   0.7993     C
C       0.1171   0.8476    0.449     C
H       0.1178   0.9131   0.0599     H
O       0.1224   0.1081   0.7748     O
O       0.1245   0.8714   0.2678     O
H       0.1278   0.8555   0.3982     H
C       0.1311   0.8678   0.2002     C
C       0.1342   0.1165   0.7061     C
O       0.1388    0.615   0.2383     O
C       0.1481   0.6228   0.3065     C
C       0.1521   0.4607   0.9208     C
N       0.1583   0.7735    0.716     N
C       0.1588   0.7743   0.7895     C
C       0.1598   0.9504   0.0869     C
I      0.16028  0.04104  0.93957     I
I      0.16865  0.54402  0.07529     I
C       0.1694   0.4475   0.8437     C
N       0.1715   0.7885   0.5636     N
C       0.1795      0.8   0.4887     C
C       0.1815   0.9384   0.1592     C
H       0.1975   0.6189   0.4525     H
H       0.1991   0.1141   0.5626     H
C       0.2011   0.5254   0.9589     C
C       0.2013   0.0198   0.0533     C
C       0.2055   0.0566   0.6632     C
H       0.2081   0.7444   0.8135     H
C       0.2159   0.5647   0.3477     C
C       0.2296   0.0709   0.5878     C
Ag     0.23038  0.70157  0.13086    Ag
C       0.2317   0.5768   0.4246     C
H       0.2319   0.7731    0.463     H
C       0.2338   0.5014   0.8082     C
H       0.2365   0.9822   0.7482     H
H        0.243   0.4944   0.7565     H
C        0.249   0.9911   0.1982     C
C        0.251   0.9911   0.6982     C
H        0.257   0.4944   0.2565     H
H       0.2635   0.9822   0.2482     H
C       0.2662   0.5014   0.3082     C
H       0.2681   0.7731    0.963     H
C       0.2683   0.5768   0.9246     C
Ag     0.26962  0.70157  0.63086    Ag
C       0.2704   0.0709   0.0878     C
C       0.2841   0.5647   0.8477     C
H       0.2919   0.7444   0.3135     H
C       0.2945   0.0566   0.1632     C
C       0.2987   0.0198   0.5533     C
C       0.2989   0.5254   0.4589     C
H       0.3009   0.1141   0.0626     H
H       0.3025   0.6189   0.9525     H
C       0.3185   0.9384   0.6592     C
C       0.3205      0.8   0.9887     C
N       0.3285   0.7885   0.0636     N
C       0.3306   0.4475   0.3437     C
I      0.33135  0.54402  0.57529     I
I      0.33972  0.04104  0.43957     I
C       0.3402   0.9504   0.5869     C
C       0.3412   0.7743   0.2895     C
N       0.3417   0.7735    0.216     N
C       0.3479   0.4607   0.4208     C
C       0.3519   0.6228   0.8065     C
O       0.3612    0.615   0.7383     O
C       0.3658   0.1165   0.2061     C
C       0.3689   0.8678   0.7002     C
H       0.3722   0.8555   0.8982     H
O       0.3755   0.8714   0.7678     O
O       0.3776   0.1081   0.2748     O
H       0.3822   0.9131   0.5599     H
C       0.3829   0.8476    0.949     C
C       0.3858   0.3794   0.2993     C
H       0.3918   0.4262   0.4456     H
O       0.3927     0.38   0.2289     O
O       0.3973   0.6793    0.847     O
H       0.3993   0.0511   0.7908     H
H       0.4012   0.0472   0.9152     H
C       0.4034   0.8305   0.1015     C
O       0.4072   0.1729   0.1688     O
O       0.4077   0.8074   0.6584     O
C       0.4091    0.824   0.1805     C
C       0.4131   0.8191   0.3333     C
H       0.4142    0.816   0.3853     H
O       0.4277   0.3217   0.3361     O
C       0.4483   0.0813   0.8179     C
C       0.4502   0.0779   0.8916     C
C       0.4616   0.8834   0.9861     C
C       0.4729   0.8789   0.0628     C
H       0.4731   0.1026   0.6732     H
C       0.4802   0.8666   0.2981     C
C       0.4823   0.8711   0.2213     C
Cd     0.48684  0.74651  0.76068    Cd
H       0.4905   0.0882   0.0408     H
H       0.5095   0.9118   0.9592     H
Cd     0.51316  0.25349  0.23932    Cd
C       0.5177   0.1289   0.7787     C
C       0.5198   0.1334   0.7019     C
H       0.5269   0.8974   0.3268     H
C       0.5271   0.1211   0.9372     C
C       0.5384   0.1166   0.0139     C
C       0.5498   0.9221   0.1084     C
C       0.5517   0.9187   0.1821     C
O       0.5723   0.6783   0.6639     O
H       0.5858    0.184   0.6147     H
C       0.5869   0.1809   0.6667     C
C       0.5909    0.176   0.8195     C
O       0.5923   0.1926   0.3416     O
O       0.5928   0.8271   0.8312     O
C       0.5966   0.1695   0.8985     C
H       0.5988   0.9528   0.0848     H
H       0.6007   0.9489   0.2092     H
O       0.6027   0.3207    0.153     O
O       0.6073     0.62   0.7711     O
H       0.6082   0.5738   0.5544     H
C       0.6142   0.6206   0.7007     C
C       0.6171   0.1524    0.051     C
H       0.6178   0.0869   0.4401     H
O       0.6224   0.8919   0.7252     O
O       0.6245   0.1286   0.2322     O
H       0.6278   0.1445   0.1018     H
C       0.6311   0.1322   0.2998     C
C       0.6342   0.8835   0.7939     C
O       0.6388    0.385   0.2617     O
C       0.6481   0.3772   0.1935     C
C       0.6521   0.5393   0.5792     C
N       0.6583   0.2265    0.784     N
C       0.6588   0.2257   0.7105     C
C       0.6598   0.0496   0.4131     C
I      0.66028  0.95896  0.56043     I
I      0.66865  0.45598  0.42471     I
C       0.6694   0.5525   0.6563     C
N       0.6715   0.2115   0.9364     N
C       0.6795      0.2   0.0113     C
C       0.6815   0.0616   0.3408     C
H       0.6975   0.3811   0.0475     H
H       0.6991   0.8859   0.9374     H
C       0.7011   0.4746   0.5411     C
C       0.7013   0.9802   0.4467     C
C       0.7055   0.9434   0.8368     C
H       0.7081   0.2556   0.6865     H
C       0.7159   0.4353   0.1523     C
C       0.7296   0.9291   0.9122     C
Ag     0.73038  0.29843  0.36914    Ag
C       0.7317   0.4232   0.0754     C
H       0.7319   0.2269    0.037     H
C       0.7338   0.4986   0.6918     C
H       0.7365   0.0178   0.7518     H
H        0.743   0.5056   0.7435     H
C        0.749   0.0089   0.3018     C
C        0.751   0.0089   0.8018     C
H        0.757   0.5056   0.2435     H
H       0.7635   0.0178   0.2518     H
C       0.7662   0.4986   0.1918     C
H       0.7681   0.2269    0.537     H
C       0.7683   0.4232   0.5754     C
Ag     0.76962  0.29843  0.86914    Ag
C       0.7704   0.9291   0.4122     C
C       0.7841   0.4353   0.6523     C
H       0.7919   0.2556   0.1865     H
C       0.7945   0.9434   0.3368     C
C       0.7987   0.9802   0.9467     C
C       0.7989   0.4746   0.0411     C
H       0.8009   0.8859   0.4374     H
H       0.8025   0.3811   0.5475     H
C       0.8185   0.0616   0.8408     C
C       0.8205      0.2   0.5113     C
N       0.8285   0.2115   0.4364     N
C       0.8306   0.5525   0.1563     C
I      0.83135  0.45598  0.92471     I
I      0.83972  0.95896  0.06043     I
C       0.8402   0.0496   0.9131     C
C       0.8412   0.2257   0.2105     C
N       0.8417   0.2265    0.284     N
C       0.8479   0.5393   0.0792     C
C       0.8519   0.3772   0.6935     C
O       0.8612    0.385   0.7617     O
C       0.8658   0.8835   0.2939     C
C       0.8689   0.1322   0.7998     C
H       0.8722   0.1445   0.6018     H
O       0.8755   0.1286   0.7322     O
O       0.8776   0.8919   0.2252     O
H       0.8822   0.0869   0.9401     H
C       0.8829   0.1524    0.551     C
C       0.8858   0.6206   0.2007     C
H       0.8918   0.5738   0.0544     H
O       0.8927     0.62   0.2711     O
O       0.8973   0.3207    0.653     O
H       0.8993   0.9489   0.7092     H
H       0.9012   0.9528   0.5848     H
C       0.9034   0.1695   0.3985     C
O       0.9072   0.8271   0.3312     O
O       0.9077   0.1926   0.8416     O
C       0.9091    0.176   0.3195     C
C       0.9131   0.1809   0.1667     C
H       0.9142    0.184   0.1147     H
O       0.9277   0.6783   0.1639     O
C       0.9483   0.9187   0.6821     C
C       0.9502   0.9221   0.6084     C
C       0.9616   0.1166   0.5139     C
C       0.9729   0.1211   0.4372     C
H       0.9731   0.8974   0.8268     H
C       0.9802   0.1334   0.2019     C
C       0.9823   0.1289   0.2787     C
Cd     0.98684  0.25349  0.73932    Cd
H       0.9905   0.9118   0.4592     H
