data_I
_chemical_name_common  '/home/zhangsd/repos/MofS-CGCNN/ML/data/TSD/clean_cifs/CISLUN_clean'
_cell_length_a 12.95170
_cell_length_b 14.73300
_cell_length_c 20.05200
_cell_angle_alpha 90.00000
_cell_angle_beta  129.25600
_cell_angle_gamma 90.00000
_space_group_name_H-M_alt      'P 1'


loop_
_space_group_symop_operation_xyz
  'x, y, z' 

loop_
_atom_site_label
_atom_site_fract_x
_atom_site_fract_y
_atom_site_fract_z
_atom_site_type_symbol
C       0.0018   0.6008   0.2616     C
C       0.0018   0.8992   0.7616     C
C       0.0041   0.6784   0.2225     C
C       0.0041   0.8216   0.7225     C
H        0.069   0.1931   0.3338     H
H        0.069   0.3069   0.8338     H
C       0.1128   0.5818   0.3452     C
C       0.1128   0.9182   0.8452     C
H       0.1139   0.5311   0.3733     H
H       0.1139   0.9689   0.8733     H
C       0.1158   0.7329   0.2682     C
C       0.1158   0.7671   0.7682     C
H        0.116   0.7147   0.7424     H
H        0.116   0.7853   0.2424     H
C       0.1174   0.0438   0.2872     C
C       0.1174   0.4562   0.7872     C
N        0.126   0.5412   0.7675     N
N        0.126   0.9588   0.2675     N
C       0.2218   0.6384   0.3868     C
C       0.2218   0.8616   0.8868     C
N       0.2255   0.7124   0.3496     N
N       0.2255   0.7876   0.8496     N
N       0.2334   0.0733   0.3603     N
N       0.2334   0.4267   0.8603     N
N       0.2495   0.5675   0.8314     N
N       0.2495   0.9325   0.3314     N
N       0.2818   0.1579   0.5454     N
N       0.2818   0.3421   0.0454     N
H       0.2961   0.6246    0.443     H
H       0.2961   0.8754    0.943     H
N       0.3139   0.0022   0.3863     N
N       0.3139   0.4978   0.8863     N
H       0.3343    0.628   0.7477     H
H       0.3343    0.872   0.2477     H
H       0.3372   0.6692   0.6385     H
H       0.3372   0.8308   0.1385     H
C        0.359   0.6868   0.7463     C
C        0.359   0.8132   0.2463     C
C       0.3619   0.7106   0.6814     C
C       0.3619   0.7894   0.1814     C
N       0.3709   0.1433   0.5482     N
N       0.3709   0.3567   0.0482     N
N       0.3716   0.7265   0.0462     N
N       0.3716   0.7735   0.5462     N
Cu     0.38656  0.70816  0.90237    Cu
Cu     0.38656  0.79184  0.40237    Cu
N       0.3904   0.7448   0.8072     N
N       0.3904   0.7552   0.3072     N
N       0.3953   0.6751    0.004     N
N       0.3953   0.8249    0.504     N
C       0.4031   0.7012    0.181     C
C       0.4031   0.7988    0.681     C
C       0.4099    0.674   0.1129     C
C       0.4099    0.826   0.6129     C
C       0.4334   0.6713   0.3092     C
C       0.4334   0.8287   0.8092     C
C       0.4396   0.6426   0.2458     C
C       0.4396   0.8574   0.7458     C
N       0.4459   0.5958   0.0439     N
N       0.4459   0.9042   0.5439     N
N       0.4556   0.5927   0.1136     N
N       0.4556   0.9073   0.6136     N
H       0.4593   0.6319   0.3537     H
H       0.4593   0.8681   0.8537     H
N       0.4613   0.1264   0.5503     N
N       0.4613   0.3736   0.0503     N
H       0.4682   0.5841   0.2473     H
H       0.4682   0.9159   0.7473     H
Cu         0.5      0.0      0.5    Cu
Cu         0.5      0.5      0.0    Cu
H       0.5318   0.0841   0.2527     H
H       0.5318   0.4159   0.7527     H
N       0.5387   0.6264   0.9497     N
N       0.5387   0.8736   0.4497     N
H       0.5407   0.1319   0.1463     H
H       0.5407   0.3681   0.6463     H
N       0.5444   0.0927   0.3864     N
N       0.5444   0.4073   0.8864     N
N       0.5541   0.0958   0.4561     N
N       0.5541   0.4042   0.9561     N
C       0.5604   0.1426   0.2542     C
C       0.5604   0.3574   0.7542     C
C       0.5666   0.1713   0.1908     C
C       0.5666   0.3287   0.6908     C
C       0.5901    0.174   0.3871     C
C       0.5901    0.326   0.8871     C
C       0.5969   0.2012    0.319     C
C       0.5969   0.2988    0.819     C
N       0.6047   0.1751    0.496     N
N       0.6047   0.3249    0.996     N
N       0.6096   0.2448   0.6928     N
N       0.6096   0.2552   0.1928     N
Cu     0.61344  0.20816  0.59763    Cu
Cu     0.61344  0.29184  0.09763    Cu
N       0.6284   0.2265   0.4538     N
N       0.6284   0.2735   0.9538     N
N       0.6291   0.6433   0.9518     N
N       0.6291   0.8567   0.4518     N
C       0.6381   0.2106   0.8186     C
C       0.6381   0.2894   0.3186     C
C        0.641   0.1868   0.7537     C
C        0.641   0.3132   0.2537     C
H       0.6628   0.1692   0.8615     H
H       0.6628   0.3308   0.3615     H
H       0.6657    0.128   0.7523     H
H       0.6657    0.372   0.2523     H
N       0.6861   0.5022   0.1137     N
N       0.6861   0.9978   0.6137     N
H       0.7039   0.1246    0.057     H
H       0.7039   0.3754    0.557     H
N       0.7182   0.6579   0.9546     N
N       0.7182   0.8421   0.4546     N
N       0.7505   0.0675   0.6686     N
N       0.7505   0.4325   0.1686     N
N       0.7666   0.5733   0.1397     N
N       0.7666   0.9267   0.6397     N
N       0.7745   0.2124   0.1504     N
N       0.7745   0.2876   0.6504     N
C       0.7782   0.1384   0.1132     C
C       0.7782   0.3616   0.6132     C
N        0.874   0.0412   0.7325     N
N        0.874   0.4588   0.2325     N
C       0.8826   0.5438   0.2128     C
C       0.8826   0.9562   0.7128     C
H        0.884   0.2147   0.7576     H
H        0.884   0.2853   0.2576     H
C       0.8842   0.2329   0.2318     C
C       0.8842   0.2671   0.7318     C
H       0.8861   0.0311   0.1267     H
H       0.8861   0.4689   0.6267     H
C       0.8872   0.0818   0.1548     C
C       0.8872   0.4182   0.6548     C
H        0.931   0.6931   0.1662     H
H        0.931   0.8069   0.6662     H
C       0.9959   0.1784   0.2775     C
C       0.9959   0.3216   0.7775     C
C       0.9982   0.1008   0.2384     C
C       0.9982   0.3992   0.7384     C
