data_I
_chemical_name_common  '/home/zhangsd/repos/MofS-CGCNN/ML/data/TSD/clean_cifs/CIZLEE_clean'
_cell_length_a  6.59500
_cell_length_b  9.16530
_cell_length_c 14.19580
_cell_angle_alpha 85.87300
_cell_angle_beta  82.16600
_cell_angle_gamma 74.73400
_space_group_name_H-M_alt      'P 1'


loop_
_space_group_symop_operation_xyz
  'x, y, z' 

loop_
_atom_site_label
_atom_site_fract_x
_atom_site_fract_y
_atom_site_fract_z
_atom_site_type_symbol
O        0.034   0.3646   0.2461     O
Cd     0.05851  0.11128   0.2754    Cd
O       0.0839   0.1059   0.4299     O
C       0.1555   0.5765   0.7652     C
H       0.1583   0.1642   0.4386     H
H       0.1696   0.8866    0.082     H
N       0.1817   0.8543   0.2631     N
N       0.2101    0.791   0.1011     N
H       0.2111   0.3627   0.6535     H
N       0.2147   0.7685   0.3448     N
C       0.2221   0.4083   0.7896     C
O       0.2233   0.3733   0.0461     O
C       0.2246    0.755   0.1929     C
H        0.241   0.7193   0.0595     H
C       0.2425   0.3168   0.7138     C
Cd     0.24604  0.87754  0.48855    Cd
O       0.2557   0.9578   0.6407     O
C       0.2599   0.3434   0.8792     C
C        0.265   0.4319   0.9639     C
N        0.273   0.6256   0.3257     N
N       0.2818    0.612   0.2311     N
O        0.295   0.6507   0.7481     O
C       0.3076   0.1601   0.7228     C
O       0.3131   0.5554   0.9491     O
C       0.3184   0.1835   0.8903     C
C       0.3263   0.0741   0.6358     C
H       0.3383   0.1371   0.9516     H
C       0.3467   0.0946   0.8124     C
O       0.3592   0.8582   0.8984     O
O       0.4056   0.1267   0.5588     O
O        0.412   0.1436   0.2314     O
Cd     0.41306  0.38552  0.16468    Cd
C        0.435   0.9251   0.8283     C
C        0.565   0.0749   0.1717     C
Cd     0.58694  0.61448  0.83532    Cd
O        0.588   0.8564   0.7686     O
O       0.5944   0.8733   0.4412     O
O       0.6408   0.1418   0.1016     O
C       0.6533   0.9054   0.1876     C
H       0.6617   0.8629   0.0484     H
C       0.6737   0.9259   0.3642     C
C       0.6816   0.8165   0.1097     C
O       0.6869   0.4446   0.0509     O
C       0.6924   0.8399   0.2772     C
O        0.705   0.3493   0.2519     O
N       0.7182    0.388   0.7689     N
N        0.727   0.3744   0.6743     N
C        0.735   0.5681   0.0361     C
C       0.7401   0.6566   0.1208     C
O       0.7443   0.0422   0.3593     O
Cd     0.75396  0.12246  0.51145    Cd
C       0.7575   0.6832   0.2862     C
H        0.759   0.2807   0.9405     H
C       0.7754    0.245   0.8071     C
O       0.7767   0.6267   0.9539     O
C       0.7779   0.5917   0.2104     C
N       0.7853   0.2315   0.6552     N
H       0.7889   0.6373   0.3465     H
N       0.7899    0.209   0.8989     N
N       0.8183   0.1457   0.7369     N
H       0.8304   0.1134    0.918     H
H       0.8417   0.8358   0.5614     H
C       0.8445   0.4235   0.2348     C
O       0.9161   0.8941   0.5701     O
Cd     0.94149  0.88872   0.7246    Cd
O        0.966   0.6354   0.7539     O
