data_I
_chemical_name_common  '/home/zhangsd/repos/MofS-CGCNN/ML/data/TSD/clean_cifs/CODSUL_clean'
_cell_length_a 12.15600
_cell_length_b 18.59000
_cell_length_c 21.02400
_cell_angle_alpha 74.05000
_cell_angle_beta  75.94000
_cell_angle_gamma 75.58000
_space_group_name_H-M_alt      'P 1'


loop_
_space_group_symop_operation_xyz
  'x, y, z' 

loop_
_atom_site_label
_atom_site_fract_x
_atom_site_fract_y
_atom_site_fract_z
_atom_site_type_symbol
C          0.0    0.273   0.7859     C
C          0.0    0.727   0.2141     C
H       0.0019   0.2296   0.9746     H
H       0.0027   0.1292   0.5204     H
H       0.0049    0.858   0.3783     H
C       0.0094   0.1722   0.1113     C
O       0.0095   0.5463   0.6847     O
H       0.0117   0.8491   0.8414     H
H       0.0171   0.7742   0.1901     H
C       0.0245   0.8287   0.5141     C
H       0.0348   0.1755   0.4462     H
C        0.044   0.5913   0.2331     C
H       0.0451   0.1784   0.2826     H
H       0.0478   0.8015   0.3301     H
Cd     0.05035  0.66086  0.64253    Cd
C       0.0539   0.7557   0.4895     C
C       0.0563   0.4139   0.7171     C
H       0.0579   0.7969   0.9056     H
C       0.0582   0.1103   0.0757     C
N       0.0648   0.6877   0.5303     N
H       0.0659    0.203   0.1042     H
C        0.067   0.8173   0.3657     C
H       0.0682   0.1901   0.9155     H
C        0.071   0.6611   0.1978     C
C       0.0736   0.1973   0.9585     C
N       0.0742   0.7531   0.4236     N
N       0.0751   0.0374   0.1026     N
N       0.0858   0.1251    0.005     N
C       0.0894   0.4878   0.6824     C
H       0.0923   0.8371   0.5245     H
H       0.0931   0.5468   0.2237     H
C       0.0956   0.6352   0.4889     C
C       0.0962   0.2762   0.7343     C
C       0.0997   0.6766   0.4212     C
H       0.1134   0.5279   0.5468     H
C       0.1179   0.5566   0.5027     C
C        0.118   0.0014   0.0487     C
C       0.1238   0.0558   0.9883     C
C       0.1241   0.3463   0.7002     C
C       0.1253   0.1715   0.2739     C
C       0.1303   0.6399    0.368     C
H       0.1348   0.6673   0.3235     H
H       0.1348   0.9805   0.5093     H
O       0.1377   0.6523   0.7343     O
N       0.1378   0.2745   0.3302     N
H       0.1394   0.8879   0.0899     H
O       0.1447   0.7536   0.6514     O
C       0.1463   0.9245   0.0496     C
C       0.1469   0.5218   0.4498     C
H       0.1512   0.3923   0.3698     H
C       0.1533   0.5622   0.3841     C
C       0.1581   0.0348   0.9282     C
H       0.1582   0.0874   0.2248     H
H       0.1585   0.0714   0.8878     H
H       0.1612   0.2865   0.9152     H
H       0.1629   0.4688   0.4587     H
H       0.1637   0.8956   0.3059     H
C        0.165   0.7165   0.7091     C
C       0.1717   0.2049   0.7167     C
C       0.1733    0.665   0.1419     C
H       0.1737   0.5359   0.3498     H
C       0.1742   0.2384   0.9479     C
O       0.1746    0.143   0.7602     O
H       0.1757   0.2497   0.9901     H
C       0.1786   0.8479   0.3388     C
C       0.1812   0.2156   0.2954     C
C       0.1849   0.9039   0.9889     C
H       0.1884   0.3487   0.6656     H
H       0.1885   0.0165   0.3964     H
O        0.191   0.4902    0.653     O
C       0.1915   0.9596   0.9285     C
O       0.1918   0.7277   0.1067     O
C       0.1934   0.1173   0.2396     C
H       0.2019   0.8588   0.3756     H
H       0.2067   0.8544   0.6837     H
H       0.2069   0.8525   0.9878     H
C       0.2131   0.9714   0.4904     C
C        0.215   0.7508   0.7484     C
H       0.2193   0.9447   0.8879     H
C       0.2227   0.3564   0.3728     C
H       0.2275   0.3345   0.4193     H
C       0.2278   0.2956   0.3392     C
C       0.2294   0.8264    0.724     C
H       0.2308    0.122   0.5647     H
O       0.2333   0.2097   0.6584     O
O       0.2393   0.6038    0.132     O
H       0.2406   0.6589   0.8261     H
C       0.2451   0.9927   0.4224     C
O       0.2461   0.9829   0.6867     O
C       0.2482   0.7096   0.8097     C
H       0.2547   0.7793   0.2708     H
H       0.2602   0.1126   0.4902     H
H       0.2658   0.1895   0.5054     H
H       0.2686   0.9223   0.5792     H
C       0.2777   0.8605   0.7595     C
C       0.2788   0.7931   0.3058     C
C       0.2789    0.135   0.5213     C
H       0.2806   0.8793   0.1602     H
H       0.2848   0.1752   0.8849     H
H       0.2862    0.382   0.3513     H
O       0.2885   0.6445   0.9438     O
C       0.2891    0.192   0.9239     C
C       0.2912    0.937   0.5327     C
C       0.2923   0.7442   0.8461     C
C        0.296   0.9408   0.7337     C
H       0.2989   0.7468   0.3393     H
C       0.3005   0.2037   0.2839     C
H        0.307    0.147   0.9591     H
C       0.3121   0.1067   0.2268     C
C       0.3124   0.8172   0.8202     C
H       0.3148   0.2716   0.7833     H
C       0.3188   0.7037   0.9145     C
N       0.3304   0.2539   0.3113     N
Cd     0.33727  0.08374  0.68953    Cd
C       0.3463   0.8971    0.159     C
H       0.3491    0.838   0.8429     H
H       0.3556     0.07   0.2034     H
C       0.3596   0.9798   0.3911     C
O       0.3599   0.9635   0.7584     O
H       0.3611   0.9573   0.0646     H
Cd     0.36246    0.663  0.04426    Cd
H       0.3663   0.2203   0.0455     H
C        0.368   0.1498   0.2484     C
O       0.3709   0.7336   0.9411     O
C       0.3729   0.2944   0.7859     C
N        0.379   0.8278    0.277     N
H       0.3812   0.9937   0.3445     H
N       0.3815   0.2356    0.906     N
H       0.3815   0.6191   0.2022     H
H       0.3933   0.0276   0.8449     H
C       0.3937   0.9443   0.1029     C
H       0.3998   0.3573   0.6896     H
C       0.3998   0.8762   0.2149     C
C       0.4006    0.106   0.5269     C
H       0.4057   0.8086   0.4124     H
C       0.4083   0.9258   0.5002     C
H        0.409   0.1286    0.396     H
C       0.4133   0.2812   0.8434     C
H       0.4211   0.2475   0.4165     H
C       0.4249   0.3449   0.7303     C
C       0.4384    0.199   0.0204     C
N       0.4394   0.0749   0.5848     N
H       0.4409   0.1461   0.0239     H
C       0.4413   0.9451   0.4319     C
C       0.4427   0.6392   0.2049     C
C       0.4463   0.2604   0.3138     C
H       0.4475   0.7678   0.6166     H
H       0.4482   0.1428   0.2393     H
C       0.4493   0.2408   0.9479     C
H         0.45   0.7344   0.3844     H
H       0.4511   0.3139   0.3023     H
H       0.4519   0.5891   0.3014     H
H       0.4558   0.8873   0.6253     H
C       0.4581   0.0464   0.8435     C
C       0.4593   0.8305   0.3118     C
H       0.4613   0.2207   0.6092     H
C       0.4638   0.7841   0.3809     C
N       0.4682   0.1249   0.7242     N
C       0.4772   0.2234   0.3833     C
N       0.4793   0.7132   0.0842     N
C       0.4795   0.1381   0.4032     C
H       0.4831   0.9929   0.9381     H
C       0.4843   0.6226    0.264     C
C       0.4885   0.9737   0.1008     C
N       0.4901   0.1063   0.4743     N
C       0.4956   0.9051   0.2137     C
H       0.4979   0.7638   0.7195     H
C        0.498   0.6881   0.1487     C
H       0.4989   0.7962   0.9617     H
H       0.5011   0.2038   0.0383     H
C        0.502   0.3119   0.8513     C
H       0.5021   0.2362   0.2805     H
C       0.5044   0.0949   0.7863     C
N       0.5099   0.8937   0.5257     N
C       0.5115   0.0263   0.8992     C
C       0.5157   0.3774    0.736     C
H       0.5169   0.0071   0.0619     H
C       0.5205   0.8619   0.5968     C
N       0.5207   0.2868   0.9158     N
C       0.5228   0.7766   0.6167     C
N       0.5318   0.8751   0.2758     N
C       0.5362   0.2159   0.6191     C
H       0.5387   0.7793   0.3908     H
C       0.5407   0.1695   0.6882     C
C       0.5419   0.9536   0.1565     C
H       0.5442   0.1127   0.3747     H
H       0.5481   0.4109   0.6986     H
H       0.5489   0.6861   0.6977     H
H         0.55   0.2656   0.6156     H
C       0.5507   0.7592   0.0521     C
H       0.5518   0.8572   0.7607     H
H       0.5525   0.2322   0.3834     H
C       0.5537   0.7396   0.6862     C
C       0.5573   0.3608   0.7951     C
C       0.5587   0.0549   0.5681     C
H       0.5591   0.8539   0.9761     H
N       0.5606   0.9251   0.4152     N
C       0.5616    0.801   0.9796     C
C       0.5751   0.6551   0.2697     C
H       0.5789   0.7525   0.5835     H
C       0.5867   0.7188   0.1566     C
H        0.591   0.8714    0.604     H
C       0.5917   0.0742   0.4998     C
H       0.5943   0.1914   0.5876     H
C       0.5994    0.894   0.4731     C
C       0.6002   0.1238   0.7851     C
H       0.6002   0.6427   0.3104     H
C       0.6063   0.0557   0.8971     C
H       0.6067   0.9724   0.1551     H
H       0.6185   0.3809   0.7978     H
N       0.6185   0.7644    0.094     N
H       0.6188   0.0063   0.6555     H
N        0.621   0.1722    0.723     N
C       0.6271   0.7056   0.2141     C
O       0.6291   0.2664   0.0589     O
C        0.632   0.8502   0.7516     C
H       0.6337   0.7797   0.9545     H
Cd     0.63754    0.337  0.95574    Cd
H       0.6389   0.0427   0.9354     H
O       0.6401   0.0365   0.2416     O
C       0.6404   0.0202   0.6089     C
H       0.6444     0.93   0.7966     H
H       0.6509    0.162   0.1571     H
C       0.6537   0.1029    0.841     C
Cd     0.66273  0.91626  0.31047    Cd
N       0.6696   0.7461   0.6887     N
C       0.6812   0.2963   0.0855     C
H       0.6852   0.7284   0.2167     H
C       0.6876   0.1828   0.1798     C
C       0.6879   0.8933   0.7732     C
H        0.693    0.853   0.0409     H
C       0.6995   0.7963   0.7161     C
H       0.7011   0.2532   0.6607     H
C        0.704   0.0592   0.2663     C
C       0.7077   0.2558   0.1539     C
C       0.7088    0.063   0.4673     C
C       0.7109    0.808   0.0761     C
O       0.7115   0.3555   0.0562     O
H       0.7138    0.618   0.6487     H
H       0.7152   0.8248   0.1151     H
H       0.7194   0.1207   0.8398     H
C       0.7211    0.865   0.4787     C
C       0.7212   0.2069   0.6942     C
C       0.7223   0.1395   0.2405     C
H       0.7314   0.0777   0.4208     H
H       0.7342   0.8105   0.4946     H
H       0.7398   0.8874   0.5098     H
H       0.7453   0.2207   0.7292     H
C       0.7518   0.2904   0.1903     C
O       0.7539   0.0171   0.3133     O
C       0.7549   0.0073   0.5776     C
H       0.7594   0.3411   0.1739     H
O       0.7607   0.3962    0.868     O
O       0.7667   0.7903   0.3416     O
H       0.7692    0.878   0.4353     H
C       0.7706   0.1736    0.276     C
C       0.7722   0.7044   0.6608     C
H       0.7725   0.6655   0.5807     H
C       0.7773   0.6436   0.6272     C
H       0.7807   0.0553   0.1121     H
C        0.785   0.2492   0.2516     C
C       0.7869   0.0286   0.5096     C
H       0.7931   0.1475   0.0122     H
H       0.7933   0.1456   0.3163     H
H       0.7981   0.1412   0.6244     H
C       0.8066   0.8827   0.7604     C
O       0.8082   0.2723   0.8933     O
C       0.8085   0.0404   0.0715     C
O        0.809   0.5098    0.347     O
H       0.8115   0.9835   0.6036     H
H       0.8116   0.6513   0.3344     H
C       0.8151   0.0961   0.0111     C
C       0.8188   0.7844   0.7046     C
C       0.8214   0.1521   0.6612     C
H       0.8243   0.7503   0.0099     H
O       0.8254    0.857   0.2398     O
C       0.8258   0.7616   0.0521     C
H       0.8263   0.4641   0.6502     H
C       0.8267    0.335   0.8581     C
C       0.8283   0.7951   0.2833     C
C        0.835   0.2835   0.2909     C
H       0.8363   0.1044   0.6941     H
H       0.8371   0.5312   0.5413     H
H       0.8388   0.7135   0.0848     H
H       0.8415   0.9286   0.1122     H
H       0.8418   0.9126   0.7752     H
C       0.8419   0.9652   0.0718     C
C       0.8467   0.4378   0.6159     C
H       0.8488   0.6077   0.6302     H
C       0.8531   0.4782   0.5502     C
C       0.8537   0.0755   0.9504     C
O       0.8553   0.2464   0.3486     O
H       0.8606   0.1121   0.9101     H
N       0.8622   0.7255   0.6698     N
O       0.8623   0.3477   0.2657     O
H       0.8652   0.0195   0.4907     H
H       0.8652   0.3327   0.6765     H
C       0.8697   0.3601    0.632     C
C       0.8747   0.8285   0.7261     C
C       0.8759   0.6537   0.2998     C
C       0.8762   0.9442   0.0117     C
C        0.882   0.9986   0.9513     C
C       0.8821   0.4434   0.4973     C
H       0.8866   0.4721   0.4532     H
C       0.9003   0.3234   0.5788     C
C       0.9038   0.7238   0.2657     C
C       0.9044   0.3648   0.5111     C
H       0.9069   0.4532   0.7763     H
H       0.9077   0.1629   0.4755     H
C       0.9106   0.5122   0.3176     C
N       0.9142   0.8749    0.995     N
N       0.9249   0.9626   0.8974     N
N       0.9258   0.2469   0.5764     N
C       0.9264   0.8027   0.0415     C
C        0.929   0.3389   0.8022     C
H       0.9318   0.8099   0.0845     H
C        0.933   0.1827   0.6343     C
H       0.9341    0.797   0.8958     H
N       0.9352   0.3123   0.4697     N
C       0.9418   0.8897   0.9243     C
H       0.9421   0.2031   0.0944     H
C       0.9437   0.5861   0.2829     C
C       0.9461   0.2443   0.5105     C
Cd     0.94965  0.33914  0.35747    Cd
H       0.9522   0.1985   0.6699     H
H       0.9549   0.8216   0.7174     H
C        0.956   0.4087   0.7669     C
H       0.9652   0.8245   0.5538     H
C       0.9755   0.1713   0.4859     C
H       0.9829   0.2258   0.8099     H
H       0.9883   0.1509   0.1586     H
O       0.9905   0.4537   0.3153     O
C       0.9906   0.8278   0.8887     C
H       0.9951    0.142   0.6217     H
H       0.9973   0.8708   0.4796     H
H       0.9981   0.7704   0.0254     H
