data_I
_chemical_name_common  '/home/zhangsd/repos/MofS-CGCNN/ML/data/TSD/clean_cifs/COGNAO_clean'
_cell_length_a 22.90790
_cell_length_b 22.90790
_cell_length_c 22.90790
_cell_angle_alpha 90.00000
_cell_angle_beta  90.00000
_cell_angle_gamma 90.00000
_space_group_name_H-M_alt      'P 1'


loop_
_space_group_symop_operation_xyz
  'x, y, z' 

loop_
_atom_site_label
_atom_site_fract_x
_atom_site_fract_y
_atom_site_fract_z
_atom_site_type_symbol
C       0.0007   0.1902   0.2291     C
C       0.0007   0.3098   0.7291     C
H       0.0088    0.702   0.2323     H
H       0.0088    0.798   0.7323     H
C       0.0127   0.1551    0.726     C
C       0.0127   0.3449    0.226     C
C       0.0236   0.6599   0.8884     C
C       0.0236   0.8401   0.3884     C
H       0.0247   0.1516   0.7656     H
H       0.0247   0.3484   0.2656     H
C       0.0278   0.6723   0.3666     C
C       0.0278   0.8277   0.8666     C
C         0.03   0.1622   0.1184     C
C         0.03   0.3378   0.6184     C
H       0.0354   0.6606   0.9282     H
H       0.0354   0.8394   0.4282     H
C        0.036   0.1678    0.627     C
C        0.036   0.3322    0.127     C
H       0.0407   0.1552    0.079     H
H       0.0407   0.3448    0.579     H
C       0.0427   0.6891   0.3119     C
C       0.0427   0.8109   0.8119     C
C       0.0462   0.6491   0.7884     C
C       0.0462   0.8509   0.2884     C
C       0.0536   0.1662    0.683     C
C       0.0536   0.3338    0.183     C
C       0.0567   0.1751    0.217     C
C       0.0567   0.3249    0.717     C
H       0.0574   0.6675   0.3953     H
H       0.0574   0.8325   0.8953     H
C       0.0638   0.6514   0.8452     C
C       0.0638   0.8486   0.3452     C
H        0.064   0.1743   0.5972     H
H        0.064   0.3257   0.0972     H
H       0.0718   0.5354   0.8394     H
H       0.0718   0.9646   0.3394     H
C        0.072   0.1625   0.1621     C
C        0.072   0.3375   0.6621     C
H       0.0742   0.6433   0.7584     H
H       0.0742   0.8567   0.2584     H
H        0.079   0.0407   0.1552     H
H        0.079   0.4593   0.6552     H
H       0.0849   0.1735   0.2473     H
H       0.0849   0.3265   0.7473     H
H       0.0972    0.064   0.3257     H
H       0.0972    0.436   0.8257     H
C       0.1035   0.7077   0.2961     C
C       0.1035   0.7923   0.7961     C
H       0.1047   0.5574   0.6675     H
H       0.1047   0.9426   0.1675     H
O       0.1089   0.7344   0.2471     O
O       0.1089   0.7656   0.7471     O
C       0.1116   0.5236   0.8401     C
C       0.1116   0.9764   0.3401     C
C       0.1172   0.1759   0.6977     C
C       0.1172   0.3241   0.1977     C
C       0.1184     0.03   0.1622     C
C       0.1184     0.47   0.6622     C
C        0.127    0.036   0.3322     C
C        0.127    0.464   0.8322     C
O       0.1304   0.1741   0.7519     O
O       0.1304   0.3259   0.2519     O
C       0.1334   0.5278   0.6723     C
C       0.1334   0.9722   0.1723     C
P      0.14049  0.64049  0.85951     P
P      0.14049  0.85951  0.35951     P
O       0.1431   0.6979   0.3341     O
O       0.1431   0.8021   0.8341     O
H       0.1433   0.7416   0.9258     H
H       0.1433   0.7584   0.4258     H
P      0.14817  0.14817  0.14817     P
P      0.14817  0.35183  0.64817     P
C       0.1491   0.7116   0.9538     C
C       0.1491   0.7884   0.4538     C
C       0.1514   0.6548   0.9362     C
C       0.1514   0.8452   0.4362     C
H       0.1516   0.7344   0.5247     H
H       0.1516   0.7656   0.0247     H
O       0.1534   0.1789   0.6602     O
O       0.1534   0.3211   0.1602     O
C       0.1548   0.5638   0.8486     C
C       0.1548   0.9362   0.3486     C
C       0.1551    0.726   0.0127     C
C       0.1551    0.774   0.5127     C
H       0.1552    0.079   0.0407     H
H       0.1552    0.421   0.5407     H
C       0.1599   0.6116   0.9764     C
C       0.1599   0.8884   0.4764     C
O       0.1602   0.1534   0.3211     O
O       0.1602   0.3466   0.8211     O
H       0.1606   0.5718   0.9646     H
H       0.1606   0.9282   0.4646     H
C       0.1621    0.072   0.1625     C
C       0.1621    0.428   0.6625     C
C       0.1622   0.1184     0.03     C
C       0.1622   0.3816     0.53     C
C       0.1625   0.1621    0.072     C
C       0.1625   0.3379    0.572     C
O       0.1659   0.6431   0.6979     O
O       0.1659   0.8569   0.1979     O
C       0.1662    0.683   0.0536     C
C       0.1662    0.817   0.5536     C
H       0.1675   0.1047   0.9426     H
H       0.1675   0.3953   0.4426     H
C       0.1678    0.627    0.036     C
C       0.1678    0.873    0.536     C
C       0.1723   0.1334   0.9722     C
C       0.1723   0.3666   0.4722     C
H       0.1735   0.2473   0.0849     H
H       0.1735   0.2527   0.5849     H
O       0.1741   0.7481   0.6304     O
O       0.1741   0.7519   0.1304     O
H       0.1743   0.5972    0.064     H
H       0.1743   0.9028    0.564     H
Zn       0.175  0.72626   0.7118    Zn
Zn       0.175  0.77374   0.2118    Zn
C       0.1751    0.217   0.0567     C
C       0.1751    0.283   0.5567     C
C       0.1759   0.6977   0.1172     C
C       0.1759   0.8023   0.6172     C
O       0.1781   0.6781   0.8219     O
O       0.1781   0.8219   0.3219     O
O       0.1789   0.6602   0.1534     O
O       0.1789   0.8398   0.6534     O
C        0.183   0.0536   0.3338     C
C        0.183   0.4464   0.8338     C
O       0.1866   0.1866   0.1866     O
O       0.1866   0.3134   0.6866     O
C       0.1881   0.5427   0.6891     C
C       0.1881   0.9573   0.1891     C
C       0.1891   0.1881   0.9573     C
C       0.1891   0.3119   0.4573     C
C       0.1902   0.2291   0.0007     C
C       0.1902   0.2709   0.5007     C
C       0.1977   0.1172   0.3241     C
C       0.1977   0.3828   0.8241     C
O       0.1979   0.1659   0.8569     O
O       0.1979   0.3341   0.3569     O
H        0.202   0.2323   0.4912     H
H        0.202   0.2677   0.9912     H
C       0.2039   0.6035   0.7077     C
C       0.2039   0.8965   0.2077     C
C       0.2077   0.2039   0.8965     C
C       0.2077   0.2961   0.3965     C
C       0.2116   0.5462   0.8509     C
C       0.2116   0.9538   0.3509     C
Zn      0.2118    0.175  0.77374    Zn
Zn      0.2118    0.325  0.27374    Zn
C        0.217   0.0567   0.1751     C
C        0.217   0.4433   0.6751     C
C        0.226   0.0127   0.3449     C
C        0.226   0.4873   0.8449     C
H       0.2262   0.2262   0.2262     H
H       0.2262   0.2738   0.7262     H
Zn     0.22626   0.7118    0.325    Zn
Zn     0.22626   0.7882    0.825    Zn
C       0.2291   0.0007   0.1902     C
C       0.2291   0.4993   0.6902     C
H       0.2323   0.0088    0.702     H
H       0.2323   0.4912    0.202     H
O       0.2344   0.2471   0.3911     O
O       0.2344   0.2529   0.8911     O
H       0.2344   0.5247   0.3484     H
H       0.2344   0.9753   0.8484     H
H       0.2416   0.5742   0.8567     H
H       0.2416   0.9258   0.3567     H
O       0.2471   0.1089   0.7344     O
O       0.2471   0.3911   0.2344     O
H       0.2473   0.0849   0.1735     H
H       0.2473   0.4151   0.6735     H
O       0.2481   0.6304   0.3259     O
O       0.2481   0.8696   0.8259     O
O       0.2486   0.7486   0.7514     O
O       0.2486   0.7514   0.2514     O
O       0.2514   0.2486   0.7514     O
O       0.2514   0.2514   0.2514     O
O       0.2519   0.1304   0.3259     O
O       0.2519   0.3696   0.8259     O
H       0.2527   0.5849   0.1735     H
H       0.2527   0.9151   0.6735     H
O       0.2529   0.6089   0.7344     O
O       0.2529   0.8911   0.2344     O
H       0.2584   0.0742   0.8567     H
H       0.2584   0.4258   0.3567     H
H       0.2656   0.0247   0.3484     H
H       0.2656   0.4753   0.8484     H
O       0.2656   0.7471   0.3911     O
O       0.2656   0.7529   0.8911     O
H       0.2677   0.5088    0.702     H
H       0.2677   0.9912    0.202     H
C       0.2709   0.5007   0.1902     C
C       0.2709   0.9993   0.6902     C
Zn     0.27374   0.2118    0.325    Zn
Zn     0.27374   0.2882    0.825    Zn
H       0.2738   0.7262   0.2262     H
H       0.2738   0.7738   0.7262     H
C        0.274   0.5127   0.3449     C
C        0.274   0.9873   0.8449     C
C        0.283   0.5567   0.1751     C
C        0.283   0.9433   0.6751     C
Zn      0.2882    0.675  0.77374    Zn
Zn      0.2882    0.825  0.27374    Zn
C       0.2884   0.0462   0.8509     C
C       0.2884   0.4538   0.3509     C
C       0.2923   0.7039   0.8965     C
C       0.2923   0.7961   0.3965     C
C       0.2961   0.1035   0.7077     C
C       0.2961   0.3965   0.2077     C
H        0.298   0.7323   0.4912     H
H        0.298   0.7677   0.9912     H
O       0.3021   0.6659   0.8569     O
O       0.3021   0.8341   0.3569     O
C       0.3023   0.6172   0.3241     C
C       0.3023   0.8828   0.8241     C
C       0.3098   0.7291   0.0007     C
C       0.3098   0.7709   0.5007     C
C       0.3109   0.6881   0.9573     C
C       0.3109   0.8119   0.4573     C
C       0.3119   0.0427   0.6891     C
C       0.3119   0.4573   0.1891     C
O       0.3134   0.6866   0.1866     O
O       0.3134   0.8134   0.6866     O
C        0.317   0.5536   0.3338     C
C        0.317   0.9464   0.8338     C
O       0.3211   0.1602   0.1534     O
O       0.3211   0.3398   0.6534     O
O       0.3219   0.1781   0.8219     O
O       0.3219   0.3219   0.3219     O
C       0.3241   0.1977   0.1172     C
C       0.3241   0.3023   0.6172     C
C       0.3249    0.717   0.0567     C
C       0.3249    0.783   0.5567     C
Zn       0.325  0.22626   0.7118    Zn
Zn       0.325  0.27374   0.2118    Zn
H       0.3257   0.0972    0.064     H
H       0.3257   0.4028    0.564     H
O       0.3259   0.2481   0.6304     O
O       0.3259   0.2519   0.1304     O
H       0.3265   0.7473   0.0849     H
H       0.3265   0.7527   0.5849     H
C       0.3277   0.6334   0.9722     C
C       0.3277   0.8666   0.4722     C
C       0.3322    0.127    0.036     C
C       0.3322    0.373    0.536     C
H       0.3325   0.6047   0.9426     H
H       0.3325   0.8953   0.4426     H
C       0.3338    0.183   0.0536     C
C       0.3338    0.317   0.5536     C
O       0.3341   0.1431   0.6979     O
O       0.3341   0.3569   0.1979     O
C       0.3375   0.6621    0.072     C
C       0.3375   0.8379    0.572     C
C       0.3378   0.6184     0.03     C
C       0.3378   0.8816     0.53     C
C       0.3379    0.572   0.1625     C
C       0.3379    0.928   0.6625     C
H       0.3394   0.0718   0.9646     H
H       0.3394   0.4282   0.4646     H
O       0.3398   0.6534   0.3211     O
O       0.3398   0.8466   0.8211     O
C       0.3401   0.1116   0.9764     C
C       0.3401   0.3884   0.4764     C
H       0.3448    0.579   0.0407     H
H       0.3448    0.921   0.5407     H
C       0.3449    0.226   0.0127     C
C       0.3449    0.274   0.5127     C
C       0.3452   0.0638   0.8486     C
C       0.3452   0.4362   0.3486     C
O       0.3466   0.6789   0.6602     O
O       0.3466   0.8211   0.1602     O
H       0.3484   0.2344   0.5247     H
H       0.3484   0.2656   0.0247     H
C       0.3486   0.1548   0.9362     C
C       0.3486   0.3452   0.4362     C
C       0.3509   0.2116   0.9538     C
C       0.3509   0.2884   0.4538     C
P      0.35183  0.64817  0.14817     P
P      0.35183  0.85183  0.64817     P
H       0.3567   0.2416   0.9258     H
H       0.3567   0.2584   0.4258     H
O       0.3569   0.1979   0.3341     O
O       0.3569   0.3021   0.8341     O
P      0.35951  0.14049  0.85951     P
P      0.35951  0.35951  0.35951     P
C       0.3666   0.0278   0.6723     C
C       0.3666   0.4722   0.1723     C
O       0.3696   0.6741   0.7519     O
O       0.3696   0.8259   0.2519     O
C        0.373    0.536   0.3322     C
C        0.373    0.964   0.8322     C
C       0.3816     0.53   0.1622     C
C       0.3816     0.97   0.6622     C
C       0.3828   0.6759   0.6977     C
C       0.3828   0.8241   0.1977     C
C       0.3884   0.0236   0.8401     C
C       0.3884   0.4764   0.3401     C
O       0.3911   0.2344   0.2471     O
O       0.3911   0.2656   0.7471     O
H       0.3953   0.0574   0.6675     H
H       0.3953   0.4426   0.1675     H
C       0.3965   0.2077   0.2961     C
C       0.3965   0.2923   0.7961     C
H       0.4028    0.564   0.3257     H
H       0.4028    0.936   0.8257     H
H       0.4151   0.6735   0.2473     H
H       0.4151   0.8265   0.7473     H
H        0.421   0.5407   0.1552     H
H        0.421   0.9593   0.6552     H
H       0.4258   0.1433   0.7584     H
H       0.4258   0.3567   0.2584     H
C        0.428   0.6625   0.1621     C
C        0.428   0.8375   0.6621     C
H       0.4282   0.0354   0.8394     H
H       0.4282   0.4646   0.3394     H
H        0.436   0.6743   0.5972     H
H        0.436   0.8257   0.0972     H
C       0.4362   0.1514   0.8452     C
C       0.4362   0.3486   0.3452     C
H       0.4426   0.1675   0.3953     H
H       0.4426   0.3325   0.8953     H
C       0.4433   0.6751    0.217     C
C       0.4433   0.8249    0.717     C
C       0.4464   0.6662    0.683     C
C       0.4464   0.8338    0.183     C
C       0.4538   0.1491   0.7884     C
C       0.4538   0.3509   0.2884     C
C       0.4573   0.1891   0.3119     C
C       0.4573   0.3109   0.8119     C
H       0.4593   0.6552    0.079     H
H       0.4593   0.8448    0.579     H
C        0.464   0.6678    0.627     C
C        0.464   0.8322    0.127     C
H       0.4646   0.1606   0.9282     H
H       0.4646   0.3394   0.4282     H
C         0.47   0.6622   0.1184     C
C         0.47   0.8378   0.6184     C
C       0.4722   0.1723   0.3666     C
C       0.4722   0.3277   0.8666     C
H       0.4753   0.6516   0.7656     H
H       0.4753   0.8484   0.2656     H
C       0.4764   0.1599   0.8884     C
C       0.4764   0.3401   0.3884     C
C       0.4873   0.6551    0.726     C
C       0.4873   0.8449    0.226     C
H       0.4912    0.202   0.2323     H
H       0.4912    0.298   0.7323     H
C       0.4993   0.6902   0.2291     C
C       0.4993   0.8098   0.7291     C
C       0.5007   0.1902   0.2709     C
C       0.5007   0.3098   0.7709     C
H       0.5088    0.702   0.2677     H
H       0.5088    0.798   0.7677     H
C       0.5127   0.1551    0.774     C
C       0.5127   0.3449    0.274     C
C       0.5236   0.6599   0.6116     C
C       0.5236   0.8401   0.1116     C
H       0.5247   0.1516   0.7344     H
H       0.5247   0.3484   0.2344     H
C       0.5278   0.6723   0.1334     C
C       0.5278   0.8277   0.6334     C
C         0.53   0.1622   0.3816     C
C         0.53   0.3378   0.8816     C
H       0.5354   0.6606   0.5718     H
H       0.5354   0.8394   0.0718     H
C        0.536   0.1678    0.873     C
C        0.536   0.3322    0.373     C
H       0.5407   0.1552    0.421     H
H       0.5407   0.3448    0.921     H
C       0.5427   0.6891   0.1881     C
C       0.5427   0.8109   0.6881     C
C       0.5462   0.6491   0.7116     C
C       0.5462   0.8509   0.2116     C
C       0.5536   0.1662    0.817     C
C       0.5536   0.3338    0.317     C
C       0.5567   0.1751    0.283     C
C       0.5567   0.3249    0.783     C
H       0.5574   0.6675   0.1047     H
H       0.5574   0.8325   0.6047     H
C       0.5638   0.6514   0.6548     C
C       0.5638   0.8486   0.1548     C
H        0.564   0.1743   0.9028     H
H        0.564   0.3257   0.4028     H
H       0.5718   0.5354   0.6606     H
H       0.5718   0.9646   0.1606     H
C        0.572   0.1625   0.3379     C
C        0.572   0.3375   0.8379     C
H       0.5742   0.6433   0.7416     H
H       0.5742   0.8567   0.2416     H
H        0.579   0.0407   0.3448     H
H        0.579   0.4593   0.8448     H
H       0.5849   0.1735   0.2527     H
H       0.5849   0.3265   0.7527     H
H       0.5972    0.064   0.1743     H
H       0.5972    0.436   0.6743     H
C       0.6035   0.7077   0.2039     C
C       0.6035   0.7923   0.7039     C
H       0.6047   0.5574   0.8325     H
H       0.6047   0.9426   0.3325     H
O       0.6089   0.7344   0.2529     O
O       0.6089   0.7656   0.7529     O
C       0.6116   0.5236   0.6599     C
C       0.6116   0.9764   0.1599     C
C       0.6172   0.1759   0.8023     C
C       0.6172   0.3241   0.3023     C
C       0.6184     0.03   0.3378     C
C       0.6184     0.47   0.8378     C
C        0.627    0.036   0.1678     C
C        0.627    0.464   0.6678     C
O       0.6304   0.1741   0.7481     O
O       0.6304   0.3259   0.2481     O
C       0.6334   0.5278   0.8277     C
C       0.6334   0.9722   0.3277     C
P      0.64049  0.64049  0.64049     P
P      0.64049  0.85951  0.14049     P
O       0.6431   0.6979   0.1659     O
O       0.6431   0.8021   0.6659     O
H       0.6433   0.7416   0.5742     H
H       0.6433   0.7584   0.0742     H
P      0.64817  0.14817  0.35183     P
P      0.64817  0.35183  0.85183     P
C       0.6491   0.7116   0.5462     C
C       0.6491   0.7884   0.0462     C
C       0.6514   0.6548   0.5638     C
C       0.6514   0.8452   0.0638     C
H       0.6516   0.7344   0.9753     H
H       0.6516   0.7656   0.4753     H
O       0.6534   0.1789   0.8398     O
O       0.6534   0.3211   0.3398     O
C       0.6548   0.5638   0.6514     C
C       0.6548   0.9362   0.1514     C
C       0.6551    0.726   0.4873     C
C       0.6551    0.774   0.9873     C
H       0.6552    0.079   0.4593     H
H       0.6552    0.421   0.9593     H
C       0.6599   0.6116   0.5236     C
C       0.6599   0.8884   0.0236     C
O       0.6602   0.1534   0.1789     O
O       0.6602   0.3466   0.6789     O
H       0.6606   0.5718   0.5354     H
H       0.6606   0.9282   0.0354     H
C       0.6621    0.072   0.3375     C
C       0.6621    0.428   0.8375     C
C       0.6622   0.1184     0.47     C
C       0.6622   0.3816     0.97     C
C       0.6625   0.1621    0.428     C
C       0.6625   0.3379    0.928     C
O       0.6659   0.6431   0.8021     O
O       0.6659   0.8569   0.3021     O
C       0.6662    0.683   0.4464     C
C       0.6662    0.817   0.9464     C
H       0.6675   0.1047   0.5574     H
H       0.6675   0.3953   0.0574     H
C       0.6678    0.627    0.464     C
C       0.6678    0.873    0.964     C
C       0.6723   0.1334   0.5278     C
C       0.6723   0.3666   0.0278     C
H       0.6735   0.2473   0.4151     H
H       0.6735   0.2527   0.9151     H
O       0.6741   0.7481   0.8696     O
O       0.6741   0.7519   0.3696     O
H       0.6743   0.5972    0.436     H
H       0.6743   0.9028    0.936     H
Zn       0.675  0.72626   0.7882    Zn
Zn       0.675  0.77374   0.2882    Zn
C       0.6751    0.217   0.4433     C
C       0.6751    0.283   0.9433     C
C       0.6759   0.6977   0.3828     C
C       0.6759   0.8023   0.8828     C
O       0.6781   0.6781   0.6781     O
O       0.6781   0.8219   0.1781     O
O       0.6789   0.6602   0.3466     O
O       0.6789   0.8398   0.8466     O
C        0.683   0.0536   0.1662     C
C        0.683   0.4464   0.6662     C
O       0.6866   0.1866   0.3134     O
O       0.6866   0.3134   0.8134     O
C       0.6881   0.5427   0.8109     C
C       0.6881   0.9573   0.3109     C
C       0.6891   0.1881   0.5427     C
C       0.6891   0.3119   0.0427     C
C       0.6902   0.2291   0.4993     C
C       0.6902   0.2709   0.9993     C
C       0.6977   0.1172   0.1759     C
C       0.6977   0.3828   0.6759     C
O       0.6979   0.1659   0.6431     O
O       0.6979   0.3341   0.1431     O
H        0.702   0.2323   0.0088     H
H        0.702   0.2677   0.5088     H
C       0.7039   0.6035   0.7923     C
C       0.7039   0.8965   0.2923     C
C       0.7077   0.2039   0.6035     C
C       0.7077   0.2961   0.1035     C
C       0.7116   0.5462   0.6491     C
C       0.7116   0.9538   0.1491     C
Zn      0.7118    0.175  0.72626    Zn
Zn      0.7118    0.325  0.22626    Zn
C        0.717   0.0567   0.3249     C
C        0.717   0.4433   0.8249     C
C        0.726   0.0127   0.1551     C
C        0.726   0.4873   0.6551     C
H       0.7262   0.2262   0.2738     H
H       0.7262   0.2738   0.7738     H
Zn     0.72626   0.7118    0.175    Zn
Zn     0.72626   0.7882    0.675    Zn
C       0.7291   0.0007   0.3098     C
C       0.7291   0.4993   0.8098     C
H       0.7323   0.0088    0.798     H
H       0.7323   0.4912    0.298     H
O       0.7344   0.2471   0.1089     O
O       0.7344   0.2529   0.6089     O
H       0.7344   0.5247   0.1516     H
H       0.7344   0.9753   0.6516     H
H       0.7416   0.5742   0.6433     H
H       0.7416   0.9258   0.1433     H
O       0.7471   0.1089   0.7656     O
O       0.7471   0.3911   0.2656     O
H       0.7473   0.0849   0.3265     H
H       0.7473   0.4151   0.8265     H
O       0.7481   0.6304   0.1741     O
O       0.7481   0.8696   0.6741     O
O       0.7486   0.7486   0.7486     O
O       0.7486   0.7514   0.2486     O
O       0.7514   0.2486   0.7486     O
O       0.7514   0.2514   0.2486     O
O       0.7519   0.1304   0.1741     O
O       0.7519   0.3696   0.6741     O
H       0.7527   0.5849   0.3265     H
H       0.7527   0.9151   0.8265     H
O       0.7529   0.6089   0.7656     O
O       0.7529   0.8911   0.2656     O
H       0.7584   0.0742   0.6433     H
H       0.7584   0.4258   0.1433     H
H       0.7656   0.0247   0.1516     H
H       0.7656   0.4753   0.6516     H
O       0.7656   0.7471   0.1089     O
O       0.7656   0.7529   0.6089     O
H       0.7677   0.5088    0.798     H
H       0.7677   0.9912    0.298     H
C       0.7709   0.5007   0.3098     C
C       0.7709   0.9993   0.8098     C
Zn     0.77374   0.2118    0.175    Zn
Zn     0.77374   0.2882    0.675    Zn
H       0.7738   0.7262   0.2738     H
H       0.7738   0.7738   0.7738     H
C        0.774   0.5127   0.1551     C
C        0.774   0.9873   0.6551     C
C        0.783   0.5567   0.3249     C
C        0.783   0.9433   0.8249     C
Zn      0.7882    0.675  0.72626    Zn
Zn      0.7882    0.825  0.22626    Zn
C       0.7884   0.0462   0.6491     C
C       0.7884   0.4538   0.1491     C
C       0.7923   0.7039   0.6035     C
C       0.7923   0.7961   0.1035     C
C       0.7961   0.1035   0.7923     C
C       0.7961   0.3965   0.2923     C
H        0.798   0.7323   0.0088     H
H        0.798   0.7677   0.5088     H
O       0.8021   0.6659   0.6431     O
O       0.8021   0.8341   0.1431     O
C       0.8023   0.6172   0.1759     C
C       0.8023   0.8828   0.6759     C
C       0.8098   0.7291   0.4993     C
C       0.8098   0.7709   0.9993     C
C       0.8109   0.6881   0.5427     C
C       0.8109   0.8119   0.0427     C
C       0.8119   0.0427   0.8109     C
C       0.8119   0.4573   0.3109     C
O       0.8134   0.6866   0.3134     O
O       0.8134   0.8134   0.8134     O
C        0.817   0.5536   0.1662     C
C        0.817   0.9464   0.6662     C
O       0.8211   0.1602   0.3466     O
O       0.8211   0.3398   0.8466     O
O       0.8219   0.1781   0.6781     O
O       0.8219   0.3219   0.1781     O
C       0.8241   0.1977   0.3828     C
C       0.8241   0.3023   0.8828     C
C       0.8249    0.717   0.4433     C
C       0.8249    0.783   0.9433     C
Zn       0.825  0.22626   0.7882    Zn
Zn       0.825  0.27374   0.2882    Zn
H       0.8257   0.0972    0.436     H
H       0.8257   0.4028    0.936     H
O       0.8259   0.2481   0.8696     O
O       0.8259   0.2519   0.3696     O
H       0.8265   0.7473   0.4151     H
H       0.8265   0.7527   0.9151     H
C       0.8277   0.6334   0.5278     C
C       0.8277   0.8666   0.0278     C
C       0.8322    0.127    0.464     C
C       0.8322    0.373    0.964     C
H       0.8325   0.6047   0.5574     H
H       0.8325   0.8953   0.0574     H
C       0.8338    0.183   0.4464     C
C       0.8338    0.317   0.9464     C
O       0.8341   0.1431   0.8021     O
O       0.8341   0.3569   0.3021     O
C       0.8375   0.6621    0.428     C
C       0.8375   0.8379    0.928     C
C       0.8378   0.6184     0.47     C
C       0.8378   0.8816     0.97     C
C       0.8379    0.572   0.3375     C
C       0.8379    0.928   0.8375     C
H       0.8394   0.0718   0.5354     H
H       0.8394   0.4282   0.0354     H
O       0.8398   0.6534   0.1789     O
O       0.8398   0.8466   0.6789     O
C       0.8401   0.1116   0.5236     C
C       0.8401   0.3884   0.0236     C
H       0.8448    0.579   0.4593     H
H       0.8448    0.921   0.9593     H
C       0.8449    0.226   0.4873     C
C       0.8449    0.274   0.9873     C
C       0.8452   0.0638   0.6514     C
C       0.8452   0.4362   0.1514     C
O       0.8466   0.6789   0.8398     O
O       0.8466   0.8211   0.3398     O
H       0.8484   0.2344   0.9753     H
H       0.8484   0.2656   0.4753     H
C       0.8486   0.1548   0.5638     C
C       0.8486   0.3452   0.0638     C
C       0.8509   0.2116   0.5462     C
C       0.8509   0.2884   0.0462     C
P      0.85183  0.64817  0.35183     P
P      0.85183  0.85183  0.85183     P
H       0.8567   0.2416   0.5742     H
H       0.8567   0.2584   0.0742     H
O       0.8569   0.1979   0.1659     O
O       0.8569   0.3021   0.6659     O
P      0.85951  0.14049  0.64049     P
P      0.85951  0.35951  0.14049     P
C       0.8666   0.0278   0.8277     C
C       0.8666   0.4722   0.3277     C
O       0.8696   0.6741   0.7481     O
O       0.8696   0.8259   0.2481     O
C        0.873    0.536   0.1678     C
C        0.873    0.964   0.6678     C
C       0.8816     0.53   0.3378     C
C       0.8816     0.97   0.8378     C
C       0.8828   0.6759   0.8023     C
C       0.8828   0.8241   0.3023     C
C       0.8884   0.0236   0.6599     C
C       0.8884   0.4764   0.1599     C
O       0.8911   0.2344   0.2529     O
O       0.8911   0.2656   0.7529     O
H       0.8953   0.0574   0.8325     H
H       0.8953   0.4426   0.3325     H
C       0.8965   0.2077   0.2039     C
C       0.8965   0.2923   0.7039     C
H       0.9028    0.564   0.1743     H
H       0.9028    0.936   0.6743     H
H       0.9151   0.6735   0.2527     H
H       0.9151   0.8265   0.7527     H
H        0.921   0.5407   0.3448     H
H        0.921   0.9593   0.8448     H
H       0.9258   0.1433   0.7416     H
H       0.9258   0.3567   0.2416     H
C        0.928   0.6625   0.3379     C
C        0.928   0.8375   0.8379     C
H       0.9282   0.0354   0.6606     H
H       0.9282   0.4646   0.1606     H
H        0.936   0.6743   0.9028     H
H        0.936   0.8257   0.4028     H
C       0.9362   0.1514   0.6548     C
C       0.9362   0.3486   0.1548     C
H       0.9426   0.1675   0.1047     H
H       0.9426   0.3325   0.6047     H
C       0.9433   0.6751    0.283     C
C       0.9433   0.8249    0.783     C
C       0.9464   0.6662    0.817     C
C       0.9464   0.8338    0.317     C
C       0.9538   0.1491   0.7116     C
C       0.9538   0.3509   0.2116     C
C       0.9573   0.1891   0.1881     C
C       0.9573   0.3109   0.6881     C
H       0.9593   0.6552    0.421     H
H       0.9593   0.8448    0.921     H
C        0.964   0.6678    0.873     C
C        0.964   0.8322    0.373     C
H       0.9646   0.1606   0.5718     H
H       0.9646   0.3394   0.0718     H
C         0.97   0.6622   0.3816     C
C         0.97   0.8378   0.8816     C
C       0.9722   0.1723   0.1334     C
C       0.9722   0.3277   0.6334     C
H       0.9753   0.6516   0.7344     H
H       0.9753   0.8484   0.2344     H
C       0.9764   0.1599   0.6116     C
C       0.9764   0.3401   0.1116     C
C       0.9873   0.6551    0.774     C
C       0.9873   0.8449    0.274     C
H       0.9912    0.202   0.2677     H
H       0.9912    0.298   0.7677     H
C       0.9993   0.6902   0.2709     C
C       0.9993   0.8098   0.7709     C
