data_I
_chemical_name_common  '/home/zhangsd/repos/MofS-CGCNN/ML/data/TSD/clean_cifs/COPXOV_clean'
_cell_length_a 13.39970
_cell_length_b 13.66990
_cell_length_c 46.33900
_cell_angle_alpha 97.66330
_cell_angle_beta  90.00000
_cell_angle_gamma 119.34800
_space_group_name_H-M_alt      'P 1'


loop_
_space_group_symop_operation_xyz
  'x, y, z' 

loop_
_atom_site_label
_atom_site_fract_x
_atom_site_fract_y
_atom_site_fract_z
_atom_site_type_symbol
H       0.0007   0.1978   0.6827     H
C      0.00221  0.86782  0.84946     C
C      0.00354  0.51228   0.0386     C
C      0.00377  0.59854  0.96061     C
H       0.0051   0.0304   0.6947     H
N      0.00582  0.80324  0.95824     N
C      0.00645   0.3543  0.87903     C
H       0.0081   0.0826   0.7271     H
C      0.01018  0.81456  0.82254     C
H       0.0107   0.2122    0.459     H
Co      0.0131   0.9641  0.95622    Co
C      0.01447  0.48514  0.67751     C
C      0.01883  0.25906  0.87914     C
H        0.021   0.7664   0.7624     H
C       0.0236   0.0778  0.21173     C
H       0.0248   0.2598    0.715     H
H       0.0253   0.0304   0.1947     H
H       0.0318   0.4554   0.6344     H
N      0.03357  0.12914  0.95665     N
H       0.0367   0.5338   0.7211     H
O      0.03718  0.08196  0.59084     O
C      0.03767  0.72234  0.20572     C
C      0.04043  0.62946  0.21349     C
O      0.04478  0.08196  0.09084     O
C       0.0457   0.7486  0.04477     C
O       0.0472  0.89554  0.46668     O
H       0.0482   0.1036   0.1492     H
Co       0.049   0.0359  0.54378    Co
C      0.05235   0.9335  0.90345     C
H       0.0531   0.9544   0.7821     H
C       0.0541   0.2712  0.23056     C
C       0.0542   0.0778  0.71173     C
H       0.0554   0.1036   0.6492     H
C      0.05598  0.85376  0.04475     C
H       0.0576    0.532   0.7811     H
C       0.0596   0.2482  0.69774     C
C      0.06099  0.46998  0.78606     C
C      0.06138  0.34656   0.9567     C
C       0.0617   0.1956  0.20463     C
H       0.0647   0.9112   0.1167     H
H       0.0665   0.6534   0.1214     H
C      0.06734  0.87988  0.87449     C
H       0.0678   0.3412   0.2247     H
C      0.06969  0.29158  0.80146     C
C      0.07234  0.48268  0.65259     C
H       0.0738     0.57   0.0342     H
H       0.0745   0.0826   0.2271     H
C      0.07473  0.53006  0.70457     C
H       0.0748    0.218   0.3814     H
H       0.0755   0.2318   0.8072     H
C      0.07725   0.4605  0.95658     C
C      0.07962  0.85484  0.12097     C
C      0.08407  0.22134  0.45789     C
C      0.08597  0.77154   0.8216     C
C       0.0876   0.2882  0.03539     C
H       0.0898    0.521   0.8792     H
C      0.09155   0.3895  0.03372     C
H       0.0948    0.737   0.8038     H
H       0.0951   0.4528   0.1141     H
N      0.09557  0.12914  0.45665     N
H       0.0987   0.0456   0.7179     H
C      0.09883  0.79186  0.95343     C
C      0.10101  0.45922   0.8795     C
C      0.10153  0.69366  0.95405     C
H       0.1021    0.397   0.3812     H
C      0.10675   0.9111  0.48949     C
H       0.1069   0.3198   0.6912     H
H       0.1102   0.6342   0.2184     H
H       0.1108   0.2868   0.2458     H
H       0.1112   0.7416   0.0458     H
C      0.11303  0.56086  0.32541     C
O      0.11344  0.97242   0.5126     O
H       0.1137   0.3782   0.1341     H
C      0.11885   0.0665  0.59655     C
H       0.1204   0.4926   0.1479     H
H        0.123   0.3924   0.6003     H
H       0.1267   0.7704   0.4473     H
H       0.1268   0.8894   0.1997     H
H       0.1294   0.9164   0.0458     H
C      0.12965   0.2781  0.88057     C
H       0.1297    0.283   0.5319     H
C       0.1339   0.1956  0.70463     C
C      0.13439  0.13218  0.65054     C
H       0.1346   0.9158   0.3846     H
O      0.13652  0.98708  0.92204     O
C       0.1367   0.4546   0.1312     C
C      0.13727  0.22134  0.95789     C
H       0.1375   0.7508   0.3861     H
C      0.13961  0.83282  0.20495     C
H       0.1397   0.5132   0.5985     H
C      0.14012  0.83404  0.87294     C
O      0.14102  0.02758   0.9874     O
H       0.1432    0.218   0.8814     H
C      0.14845   0.2781  0.38057     C
C      0.14857  0.77914  0.84661     C
H       0.1492   0.5174   0.9529     H
O      0.14944  0.01292  0.57796     O
O      0.15166  0.10446  0.03332     O
H       0.1533    0.283   0.0319     H
H       0.1535   0.0888   0.3833     H
C      0.15433  0.32926  0.95759     C
H       0.1563   0.2318   0.3072     H
O       0.1573  0.56918  0.34977     O
H       0.1583   0.4502   0.0288     H
H       0.1618   0.3902    0.458     H
H       0.1621   0.3998   0.3049     H
O      0.16457  0.58628  0.30257     O
N      0.16539  0.48258  0.79249     N
H       0.1656    0.855   0.9494     H
C      0.16573  0.38666  0.38079     C
C       0.1669   0.3932  0.80015     C
H        0.168   0.6904   0.9501     H
O      0.17445  0.62806  0.41536     O
C      0.17493  0.32926  0.45759     C
H        0.176   0.2868   0.7458     H
C       0.1781   0.7874  0.46319     C
C       0.1785   0.4706  0.60008     C
C      0.17938  0.85496  0.48844     C
H       0.1797    0.763   0.2903     H
H       0.1829   0.8404   0.8896     H
C      0.18746  0.12012  0.62551     C
C       0.1877   0.8834  0.12668     C
C       0.1886   0.2482  0.19774     C
C      0.18999  0.52058  0.65457     C
C      0.19219  0.56978  0.70709     C
C      0.19562  0.18544  0.67746     C
C      0.19565   0.0889  0.01051     C
H       0.1971   0.1978   0.1827     H
H       0.1986   0.9382   0.2902     H
H          0.2   0.8266    0.132     H
C       0.2006   0.2882  0.53539     C
C      0.20132  0.91284   0.3808     C
H       0.2015   0.2122    0.959     H
C      0.20222  0.14624  0.45525     C
N      0.20258  0.19676  0.54176     N
C      0.20387  0.81374  0.38183     C
N      0.20814  0.47728  0.88043     N
H       0.2129   0.3198   0.1912     H
H        0.213   0.0836   0.4542     H
C       0.2171   0.2712  0.73056     C
H       0.2188   0.0842   0.1154     H
C      0.22093  0.38666  0.88079     C
C      0.22189  0.29158  0.30146     C
O      0.22223  0.66326  0.75594     O
H       0.2238   0.4766   0.5837     H
C      0.22478  0.14516  0.37903     C
C      0.22526  0.72732  0.84478     C
C       0.2263   0.3932  0.30015     C
H       0.2284   0.3902    0.958     H
H        0.235   0.2598    0.215     H
H       0.2374   0.1106   0.3003     H
H       0.2377   0.3998   0.8049     H
C      0.24023  0.25906  0.37914     C
C       0.2472   0.5622  0.68218     C
C      0.24738  0.86136  0.21082     C
O      0.24771   0.7001  0.86761     O
H       0.2504   0.9176   0.5299     H
C      0.25276  0.87532   0.5127     C
C      0.25279  0.82478  0.28985     C
H       0.2528   0.4766   0.0837     H
C      0.25366  0.74532  0.46164     C
C        0.254   0.5166  0.62734     C
H       0.2546   0.2336   0.7376     H
C      0.25489  0.61378  0.73674     C
H       0.2555   0.6406   0.1074     H
H       0.2604   0.0618   0.2098     H
O      0.26041  0.59602  0.24256     O
H       0.2606   0.5858   0.1841     H
C      0.26161  0.68462   0.4331     C
O      0.26223  0.71736  0.82059     O
C       0.2626   0.5166  0.12734     C
H       0.2626   0.8056   0.2154     H
C      0.26371  0.93042  0.28988     C
H       0.2645   0.3782   0.6341     H
N      0.26914  0.47728  0.38043     N
H       0.2694   0.3924   0.1003     H
H       0.2734   0.3412   0.7247     H
H       0.2754   0.6732   0.1415     H
C      0.28518  0.34656   0.4567     C
C      0.28848  0.08716   0.1192     C
C      0.29007  0.99194  0.12582     C
Co     0.29064  0.64284     0.38    Co
H       0.2919   0.4502   0.5288     H
C       0.2921   0.4706  0.10008     C
H       0.2949    0.397   0.8812     H
C       0.2958   0.6402  0.12452     C
N      0.29709  0.80338  0.37697     N
C       0.2971   0.2514  0.45523     C
C      0.29795   0.3895  0.53372     C
C      0.29813  0.00806  0.37418     C
H       0.3027   0.7206   0.5569     H
C       0.3043   0.1166  0.37332     C
C      0.30608  0.16596  0.62706     C
H       0.3063    0.845    0.016     H
C      0.30679  0.16718  0.29505     C
H       0.3068   0.6838   0.6229     H
C      0.30697  0.20814  0.54657     C
H       0.3106    0.145   0.5506     H
C      0.31443  0.22846   0.6784     C
C        0.315   0.5622  0.18218     C
C      0.31533  0.27766  0.29428     C
N      0.31719  0.48258  0.29249     N
C       0.3179   0.4546   0.6312     C
H       0.3182   0.6928   0.0339     H
Co     0.31888  0.64344  0.78988    Co
C      0.32442  0.14504  0.01156     C
Co     0.32456  0.64344  0.28988    Co
H       0.3252   0.5858   0.6841     H
H       0.3289    0.761   0.0649     H
C      0.32895   0.7705  0.48577     C
C      0.32909  0.83398  0.51183     C
C      0.33059  0.52058  0.15457     C
H       0.3328   0.0824   0.9701     H
C      0.33329  0.06958  0.21012     C
O      0.33561  0.59602  0.74256     O
H       0.3401   0.9258    0.046     H
O      0.34029  0.69786  0.92608     O
N      0.34155   0.8073  0.28922     N
H       0.3425   0.1596   0.6104     H
H       0.3439   0.9128   0.5716     H
C       0.3444   0.6402  0.62452     C
C      0.34511  0.97562  0.21058     C
C      0.34785   0.3543  0.37903     C
Co      0.3522  0.64284     0.88    Co
H       0.3563   0.2296   0.0527     H
O      0.35757  0.69786  0.42608     O
H       0.3577   0.4528   0.6141     H
H       0.3578    0.263   0.6962     H
C      0.35821  0.45922   0.3795     C
C      0.35889  0.61378  0.23674     C
H       0.3628   0.7438   0.9844     H
H       0.3682   0.5174   0.4529     H
C       0.3692   0.9034  0.02899     C
C      0.36943  0.22086  0.65339     C
C      0.36949  0.02438  0.28942     C
H       0.3696   0.2584   0.4542     H
C        0.371   0.7482  0.04949     C
H       0.3722   0.4926   0.6479     H
H       0.3734   0.1734    0.368     H
H       0.3735   0.5132   0.0985     H
H       0.3746   0.6928   0.5339     H
H        0.377   0.6838   0.1229     H
C       0.3772   0.7482  0.54949     C
C      0.37744  0.12468   0.9873     C
C      0.37759  0.56978  0.20709     C
H       0.3789   0.8866   0.7884     H
H        0.381   0.7438   0.4844     H
C      0.38325   0.4605  0.45658     C
H       0.3851   0.6406   0.6074     H
C      0.38602  0.13864  0.28918     C
H       0.3867   0.2492   0.1139     H
C      0.39013  0.18626  0.11817     C
C      0.39046  0.89472  0.37041     C
C       0.3907   0.2126  0.03681     C
C      0.39394  0.99628  0.36875     C
C      0.39766  0.00372  0.13125     C
H       0.3978   0.6732   0.6415     H
H       0.4036   0.9428    0.136     H
C      0.40523  0.40146  0.53939     C
C      0.40787  0.30634  0.54595     C
C      0.40899  0.46998  0.28606     C
H       0.4103   0.9912   0.9467     H
C      0.41034  0.48268  0.15259     C
C      0.41097  0.37054  0.28651     C
C       0.4117   0.8582  0.53809     C
O      0.41188  0.56918  0.84977     O
H       0.4127   0.9678   0.0192     H
H       0.4131   0.3466   0.3786     H
C       0.4134    0.946  0.56177     C
H       0.4143   0.0742    0.454     H
H       0.4167    0.237   0.2097     H
H       0.4179   0.7206   0.0569     H
H       0.4191   0.0088   0.5533     H
O      0.42171  0.58628  0.80257     O
C      0.42301  0.68462   0.9331     C
H       0.4236   0.4554   0.1344     H
C      0.42801  0.17522  0.21015     C
H       0.4311   0.0872   0.9284     H
H       0.4312    0.521   0.3792     H
H       0.4321    0.761   0.5649     H
H       0.4335   0.8896   0.8668     H
O      0.44103  0.66326  0.25594     O
C      0.44155   0.7705  0.98577     C
C       0.4441    0.897  0.28859     C
H       0.4449   0.0322   0.4808     H
C       0.4465   0.8582  0.03809     C
C      0.44783  0.56086  0.82541     C
O      0.45239   0.7001  0.36761     O
C       0.4529    0.897  0.78859     C
O      0.45361  0.62806  0.91536     O
O      0.45513  0.71736  0.32059     O
C      0.45533  0.53006  0.20457     C
H       0.4561   0.8896   0.3668     H
C       0.4563   0.9948   0.2118     C
H        0.457   0.1944   0.2846     H
H       0.4608   0.0572    0.364     H
H       0.4613    0.155    0.484     H
C       0.4615   0.0052   0.2882     C
H       0.4649    0.935   0.7129     H
N      0.46575   0.8073  0.78922     N
C       0.4658   0.0966  0.47101     C
C       0.4674    0.054  0.93823     C
H       0.4701    0.935   0.2129     H
C      0.47067  0.48514  0.17751     C
H       0.4744    0.532   0.2811     H
H        0.476   0.3658   0.2816     H
H       0.4776   0.3096   0.5499     H
H       0.4782   0.9724   0.5755     H
C      0.49126  0.48772   0.4614     C
C      0.49166  0.74532  0.96164     C
H       0.4923   0.1134   0.7116     H
N      0.49371  0.19662  0.12303     N
H       0.4942   0.9724   0.0755     H
C      0.49511  0.16602  0.98817     C
C      0.49574  0.10528  0.12959     C
H       0.4962     0.57   0.5342     H
H       0.4971   0.5338   0.2211     H
C      0.49794  0.27268  0.65522     C
C      0.50206  0.72732  0.34478     C
H       0.5029   0.4662   0.7789     H
H       0.5038     0.43   0.4658     H
C      0.50426  0.89472  0.87041     C
C      0.50489  0.83398  0.01183     C
H       0.5058   0.0276   0.9245     H
N      0.50629  0.80338  0.87697     N
H       0.5077   0.8866   0.2884     H
C      0.50834  0.25468  0.03836     C
C      0.50874  0.51228   0.5386     C
H       0.5218   0.0276   0.4245     H
H       0.5224   0.6904   0.4501     H
H        0.524   0.6342   0.7184     H
H       0.5256    0.468   0.7189     H
C      0.52933  0.51486  0.82249     C
H       0.5299    0.065   0.7871     H
C       0.5326    0.946  0.06177     C
C       0.5342   0.9034  0.52899     C
N      0.53425   0.1927  0.21078     N
H       0.5351    0.065   0.2871     H
C       0.5385   0.9948   0.7118     C
H       0.5387    0.845    0.516     H
H       0.5392   0.9428    0.636     H
H        0.543   0.8056   0.7154     H
C       0.5437   0.0052   0.7882     C
H       0.5439   0.1104   0.6332     H
C      0.54467  0.46994  0.79543     C
O      0.54487  0.28264  0.67941     O
O      0.54639  0.37194  0.08464     O
C       0.5471    0.103  0.21141     C
O      0.54761   0.2999  0.63239     O
C      0.55217  0.43914  0.17459     C
C       0.5535   0.1418  0.96191     C
H       0.5551   0.9678   0.5192     H
C       0.5559    0.103  0.71141     C
C      0.55845   0.2295  0.01423     C
O      0.55897  0.33674  0.74406     O
H       0.5665   0.1104   0.1332     H
H       0.5679    0.239   0.4351     H
H       0.5688    0.479   0.6208     H
H       0.5689   0.9128   0.0716     H
C      0.57199  0.82478  0.78985     C
H       0.5764   0.5446   0.8656     H
C      0.57699  0.31538   0.0669     C
O      0.57829  0.41372  0.19743     O
H       0.5809   0.9912   0.4467     H
H       0.5821   0.2794   0.9431     H
H       0.5833    0.763   0.7903     H
H       0.5857   0.9258    0.546     H
C       0.5866    0.054  0.43823     C
H       0.5869   0.6534   0.6214     H
H       0.5873   0.0322   0.9808     H
O      0.58812  0.43082  0.15023     O
C       0.5883   0.1418  0.46191     C
C      0.58903  0.62946  0.71349     C
C      0.58966  0.51732  0.84741     C
H       0.5897   0.0088   0.0533     H
C      0.59101  0.53002  0.71394     C
C      0.59213  0.69366  0.45405     C
C      0.59477  0.59854  0.46061     C
H       0.5964   0.0572    0.864     H
H       0.6022   0.3268   0.3585     H
C      0.60234  0.99628  0.86875     C
C      0.60606  0.00372  0.63125     C
C       0.6093   0.7874  0.96319     C
C      0.60954  0.10528  0.62959     C
C      0.60987  0.81374  0.88183     C
H       0.6133   0.7508   0.8861     H
C      0.61398  0.86136  0.71082     C
H       0.6149   0.3594   0.3926     H
C      0.61675   0.5395  0.54342     C
H        0.619   0.2562   0.5156     H
H       0.6211   0.1134   0.2116     H
C      0.62241  0.43022  0.79291     C
C      0.62256  0.87532   0.0127     C
C       0.6228   0.2518  0.45051     C
H        0.623   0.3162   0.8771     H
H       0.6254   0.3072   0.4661     H
H       0.6265   0.4868   0.9015     H
H       0.6266   0.8266    0.632     H
H       0.6278   0.5074   0.3521     H
C        0.629   0.2518  0.95051     C
H       0.6304   0.7416   0.5458     H
C      0.63051  0.97562  0.71058     C
C      0.63057  0.77914  0.34661     C
C       0.6308   0.0966  0.97101     C
H       0.6318   0.4826   0.5471     H
H       0.6372   0.2562   0.0156     H
C      0.64111  0.38622  0.76326     C
C      0.64179  0.54078   0.6205     C
H       0.6422    0.737   0.3038     H
H       0.6423   0.5472   0.3859     H
O      0.64243  0.30214  0.57392     O
H       0.6437   0.7704   0.9473     H
Co      0.6478  0.35716     0.12    Co
C      0.65215   0.6457  0.62097     C
C      0.65489  0.02438  0.78942     C
C       0.6556   0.3598  0.37548     C
H       0.6561   0.0872   0.4284     H
H       0.6575   0.8404   0.3896     H
N      0.65845   0.1927  0.71078     N
O      0.65971  0.30214  0.07392     O
H       0.6599   0.0742    0.954     H
O      0.66439  0.40398  0.25744     O
C      0.66671  0.93042  0.78988     C
H       0.6672   0.9176   0.0299     H
C      0.66941  0.47942  0.84543     C
C      0.67091  0.16602  0.48817     C
C      0.67105   0.2295  0.51423     C
H       0.6711    0.239   0.9351     H
H       0.6748   0.4142   0.3159     H
Co     0.67544  0.35656  0.71012    Co
C      0.67558  0.85496  0.98844     C
Co     0.68112  0.35656  0.21012    Co
H       0.6818   0.3072   0.9661     H
C       0.6821   0.5454   0.3688     C
N      0.68281  0.51742  0.70751     N
C      0.68467  0.72234  0.70572     C
C        0.685   0.4378  0.81782     C
C      0.68557  0.77154   0.3216     C
H       0.6894    0.855   0.4494     H
C      0.69303  0.79186  0.45343     C
H       0.6932   0.3162   0.3771     H
C      0.69321  0.83282  0.70495     C
H       0.6937    0.155    0.984     H
C      0.69392  0.83404  0.37294     C
C       0.6957   0.8834  0.62668     C
H       0.6973   0.2794   0.4431     H
C      0.70187  0.99194  0.62582     C
C      0.70205   0.6105  0.46628     C
C       0.7029   0.7486  0.54477     C
N      0.70291  0.19662  0.62303     N
C       0.7042   0.3598  0.87548     C
H       0.7051    0.603   0.1188     H
C       0.7079   0.5294  0.89992     C
H       0.7081   0.5498   0.4712     H
Co     0.70936  0.35716     0.62    Co
C      0.70993  0.00806  0.87418     C
C      0.71152  0.91284   0.8808     C
C      0.71482  0.65344   0.5433     C
H       0.7246   0.3268   0.8585     H
H       0.7266   0.6588   0.2753     H
H       0.7306   0.6076   0.8997     H
N      0.73086  0.52272  0.61957     N
H       0.7355   0.6218   0.3659     H
C      0.73629  0.06958  0.71012     C
H       0.7374   0.1944   0.7846     H
C       0.7374   0.4834  0.87266     C
O      0.73777  0.28264  0.17941     O
C      0.73839  0.31538   0.5669     C
H       0.7394   0.4142   0.8159     H
O      0.73959  0.40398  0.75744     O
H       0.7396   0.9382   0.7902     H
H       0.7445   0.3594   0.8926     H
C      0.74511  0.38622  0.26326     C
H       0.7454   0.7664   0.2624     H
C        0.746   0.4834  0.37266     C
C      0.74634  0.25468  0.53836     C
H       0.7472   0.5234   0.9163     H
C      0.74721  0.17522  0.71015     C
C      0.74724  0.12468   0.4873     C
H       0.7496   0.0824   0.4701     H
O      0.75229   0.2999  0.13239     O
C      0.75262  0.13864  0.78918     C
C       0.7528   0.4378  0.31782     C
C      0.75977  0.74094  0.62086     C
H       0.7623   0.6002   0.1951     H
H       0.7626   0.8894   0.6997     H
H        0.765   0.7402    0.785     H
H       0.7716   0.6098    0.042     H
C       0.7737   0.6068  0.69985     C
C      0.77474  0.27268  0.15522     C
C      0.77522  0.85484  0.62097     C
H       0.7762   0.5234   0.4163     H
O      0.77777  0.33674  0.24406     O
C      0.77811  0.70842  0.69854     C
C      0.77907  0.61334  0.11921     C
H       0.7812   0.9158   0.8846     H
C       0.7829   0.7288  0.26944     C
H        0.787   0.9164   0.5458     H
H       0.7871   0.6802   0.8088     H
N      0.79186  0.52272  0.11957     N
C      0.79613  0.18626  0.61817     C
N      0.79742  0.80324  0.45824     N
C      0.79778  0.85376  0.54475     C
H       0.7985   0.7878    0.041     H
C      0.79868  0.08716   0.6192     C
C       0.7994   0.7118  0.46461     C
H          0.8   0.1734    0.868     H
H       0.8014   0.0618   0.7098     H
H       0.8029   0.8022   0.8173     H
C      0.80435   0.9111  0.98949     C
C      0.80438  0.81456  0.32254     C
C      0.80781  0.43022  0.29291     C
C      0.81001  0.47942  0.34543     C
C       0.8114   0.7518  0.80226     C
C       0.8123   0.1166  0.87332     C
C      0.81254  0.87988  0.37449     C
H       0.8171   0.1596   0.1104     H
H       0.8203    0.237   0.7097     H
C      0.82062  0.14504  0.51156     C
C       0.8215   0.5294  0.39992     C
C       0.8219   0.2126  0.53681     C
H        0.824   0.7132   0.2542     H
C      0.82507  0.67074  0.54241     C
O      0.82555  0.37194  0.58464     O
H        0.832   0.3096   0.0499     H
C       0.8331   0.6068  0.19985     C
C      0.83427  0.61334  0.61921     C
H       0.8344    0.145   0.0506     H
N      0.83461  0.51742  0.20751     N
O      0.83543  0.41372  0.69743     O
H       0.8379   0.6002   0.6951     H
H       0.8382   0.6098    0.542     H
H       0.8417   0.5498   0.9712     H
O       0.8427  0.43082  0.65023     O
H       0.8437   0.7682   0.6928     H
C      0.84567  0.67074  0.04241     C
H       0.8465   0.9112   0.6167     H
H       0.8467    0.717   0.9681     H
O      0.84834  0.89554  0.96668     O
O      0.85056  0.98708  0.42204     O
H       0.8508   0.4826   0.0471     H
C      0.85143  0.22086  0.15339     C
C      0.85155   0.7219  0.61943     C
H       0.8568    0.782   0.1186     H
O      0.85898  0.97242   0.0126     O
C      0.85988  0.16596  0.12706     C
H       0.8603   0.4868   0.4015     H
C      0.86039  0.16718  0.79505     C
H       0.8625   0.2492   0.6139     H
C      0.86273  0.77866  0.04211     C
C       0.8633   0.5454   0.8688     C
O      0.86348  0.01292  0.07796     O
H       0.8654   0.0842   0.6154     H
C      0.86561  0.86782  0.34946     C
C       0.8661   0.8044  0.29537     C
H       0.8703    0.717   0.4681     H
C      0.87035   0.7219  0.11943     C
H       0.8706   0.0836   0.9542     H
H       0.8732   0.1106   0.8003     H
H       0.8733   0.2296   0.5527     H
H        0.877   0.6076   0.3997     H
H       0.8796   0.5074   0.8521     H
C      0.88115   0.9335  0.40345     C
H       0.8863   0.6218   0.8659     H
O      0.88656  0.02758   0.4874     O
C      0.88697  0.43914  0.67459     C
H       0.8888   0.2584   0.9542     H
H       0.8892   0.7132   0.7542     H
H       0.8898   0.3658   0.7816     H
H       0.8931   0.6802   0.3088     H
C      0.89325   0.0889  0.51051     C
H       0.8979    0.603   0.6188     H
C      0.89847  0.30634  0.04595     C
C      0.89899  0.54078   0.1205     C
C      0.90117  0.20814  0.04657     C
H       0.9013   0.9544   0.2821     H
N      0.90443  0.87086  0.54335     N
H       0.9049   0.5472   0.8859     H
H       0.9052    0.263   0.1962     H
C      0.90845   0.6105  0.96628     C
H       0.9102    0.479   0.1208     H
C       0.9124   0.7118  0.96461     C
C      0.91403  0.22846   0.1784     C
C      0.91593  0.77866  0.54211     C
C      0.92038  0.14516  0.87903     C
C      0.92275   0.5395  0.04342     C
H       0.9245   0.7682   0.1928     H
H       0.9252    0.782   0.6186     H
C      0.92527  0.46994  0.29543     C
H       0.9255   0.9174   0.7729     H
H       0.9262     0.43   0.9658     H
C      0.92766  0.51732  0.34741     C
C      0.93031  0.70842  0.19854     C
H       0.9322   0.6588   0.7753     H
C      0.93266  0.12012  0.12551     C
H       0.9335   0.3466   0.8786     H
H       0.9353   0.0888   0.8833     H
C       0.9383   0.8044  0.79537     C
C      0.93862  0.65344   0.0433     C
C      0.93901  0.53002  0.21394     C
C       0.9404   0.7518  0.30226     C
H       0.9424    0.468   0.2189     H
C      0.94402  0.14624  0.95525     C
H       0.9446   0.8964   0.3508     H
C       0.9458   0.9222  0.28827     C
C       0.9459   0.7288  0.76944     C
H       0.9469   0.0456   0.2179     H
C      0.94765   0.0665  0.09655     C
Co       0.951   0.9641  0.45622    Co
H       0.9518   0.8964   0.8508     H
O       0.9528  0.10446  0.53332     O
C       0.9543   0.2514  0.95523     C
O      0.95522  0.91804  0.90916     O
C      0.95957  0.37054  0.78651     C
C      0.96233  0.27766  0.79428     C
O      0.96282  0.91804  0.40916     O
H       0.9633   0.4662   0.2789     H
N      0.96643  0.87086  0.04335     N
H       0.9682   0.5446   0.3656     H
H       0.9747   0.9696   0.8053     H
H       0.9752   0.7402    0.285     H
C       0.9764   0.9222  0.78827     C
H        0.979   0.2336   0.2376     H
C      0.98117  0.74094  0.12086     C
C      0.98553  0.51486  0.32249     C
Co      0.9869   0.0359  0.04377    Co
H       0.9893   0.7878    0.541     H
C      0.98982  0.18544  0.17746     C
H       0.9919   0.9174   0.2729     H
C      0.99355   0.6457  0.12097     C
N      0.99418  0.19676  0.04176     N
H       0.9949   0.9696   0.3053     H
C      0.99623  0.40146  0.03939     C
C      0.99646  0.48772   0.9614     C
C      0.99779  0.13218  0.15054     C
H       0.9993   0.8022   0.3173     H
