data_I
_chemical_name_common  '/home/zhangsd/repos/MofS-CGCNN/ML/data/TSD/clean_cifs/COWRIR_clean'
_cell_length_a 16.70330
_cell_length_b 20.01950
_cell_length_c 17.46020
_cell_angle_alpha 90.00000
_cell_angle_beta  100.42300
_cell_angle_gamma 90.00000
_space_group_name_H-M_alt      'P 1'


loop_
_space_group_symop_operation_xyz
  'x, y, z' 

loop_
_atom_site_label
_atom_site_fract_x
_atom_site_fract_y
_atom_site_fract_z
_atom_site_type_symbol
C       0.0001   0.4721   0.2639     C
H       0.0006   0.5095   0.2324     H
O       0.0026   0.7425   0.1728     O
C       0.0031    0.187   0.4715     C
C       0.0044   0.6367    0.639     C
H       0.0073   0.6735   0.6071     H
O       0.0096   0.6069   0.0423     O
C       0.0113   0.0565   0.7959     C
C       0.0113    0.124   0.8035     C
H       0.0126   0.9637   0.2505     H
H       0.0132   0.8496    0.238     H
O       0.0141   0.7391   0.3411     O
C       0.0151   0.1973   0.5524     C
C       0.0185   0.7419   0.4142     C
C        0.021   0.4243    0.393     C
H       0.0223   0.2542   0.1014     H
C       0.0231   0.4778   0.3441     C
C       0.0235   0.5886   0.7691     C
H       0.0243   0.1233    0.388     H
O       0.0246   0.0851   0.2108     O
H       0.0246   0.7812    0.562     H
C       0.0258   0.6427   0.7198     C
Co     0.03149  0.66904  0.25864    Co
C       0.0321   0.1302   0.4415     C
H       0.0366   0.4291   0.4466     H
H       0.0375   0.5934   0.8229     H
C       0.0451   0.2275   0.8782     C
S      0.04531  0.93097  0.84751     S
S       0.0457  0.72236  0.76156     S
C       0.0477   0.1536   0.8732     C
C       0.0478   0.0185   0.8589     C
C       0.0508   0.2521   0.2196     C
O       0.0511   0.6026   0.1717     O
O       0.0515   0.7007   0.4642     O
O       0.0557   0.9015   0.9239     O
C       0.0561   0.1505   0.6021     C
C       0.0573   0.5415   0.3788     C
O       0.0574   0.9956   0.3809     O
O       0.0604    0.592   0.3397     O
C       0.0625   0.5956   0.1025     C
C        0.064   0.2452   0.1431     C
H       0.0642   0.1574   0.6556     H
O       0.0694   0.7648   0.7025     O
C       0.0727   0.0839   0.4923     C
C       0.0852   0.0933   0.5728     C
C       0.0853   0.0469   0.9275     C
C       0.0867   0.1148   0.9345     C
H       0.0876   0.9449   0.6959     H
O       0.0902   0.2552   0.9354     O
Co     0.09065   0.3522  0.93744    Co
O       0.0909   0.3558   0.7467     O
O       0.0909   0.5425   0.4505     O
O       0.0989   0.7152   0.8361     O
H       0.1039    0.244   0.3339     H
S      0.10746  0.01023  0.45545     S
H       0.1078   0.5425   0.9756     H
H       0.1096   0.0202   0.9688     H
H       0.1128   0.0614   0.6063     H
C       0.1131     0.24   0.2831     C
H       0.1136   0.1349     0.98     H
O       0.1162   0.9617   0.5174     O
C       0.1338   0.9146   0.8062     C
C        0.134   0.9279   0.7274     C
Co     0.13457  0.63361  0.45246    Co
C         0.14   0.2246   0.1296     C
C       0.1436   0.5707   0.0881     C
H       0.1486   0.2186   0.0789     H
C       0.1505   0.3777   0.7914     C
C       0.1528   0.5454   0.0155     C
O       0.1555   0.3891   0.8642     O
O       0.1559   0.6934   0.2694     O
H       0.1684   0.0602   0.3254     H
H       0.1824   0.3601   0.6472     H
C       0.1884   0.2221   0.2684     C
H       0.2018   0.8797   0.9053     H
C       0.2021   0.8891   0.8532     C
C        0.203   0.2131   0.1922     C
H       0.2034    0.923   0.6436     H
H       0.2035   0.5901   0.1979     H
C       0.2038   0.9155   0.6963     C
C       0.2058   0.0313   0.4374     C
C       0.2101   0.5749    0.149     C
C       0.2138   0.0562   0.3646     C
O       0.2143   0.6728   0.3946     O
C       0.2153   0.6913    0.324     C
C       0.2267   0.3924   0.7566     C
C       0.2285   0.3778   0.6785     C
C       0.2287   0.5246   0.0023     C
H        0.231   0.2158   0.3102     H
H        0.235   0.5067   0.9546     H
H        0.265   0.0067   0.5454     H
H        0.269   0.7158   0.1898     H
C       0.2713   0.0246   0.4977     C
C       0.2715   0.8778   0.8215     C
C       0.2733   0.8924   0.7434     C
C       0.2847   0.1913    0.176     C
O       0.2857   0.1728   0.1054     O
C       0.2862   0.5562   0.1354     C
C       0.2899   0.0749    0.351     C
C       0.2942   0.5313   0.0626     C
C       0.2962   0.4155   0.8037     C
H       0.2965   0.0901   0.3021     H
H       0.2966    0.423   0.8564     H
C        0.297   0.7131   0.3078     C
C       0.2979   0.3891   0.6468     C
H       0.2982   0.3797   0.5947     H
C       0.3116   0.7221   0.2316     C
H       0.3176   0.8601   0.8528     H
H       0.3316   0.5602   0.1746     H
O       0.3441   0.1934   0.2306     O
O       0.3445   0.8891   0.6358     O
C       0.3472   0.0454   0.4845     C
C       0.3495   0.8777   0.7086     C
H       0.3514   0.7186   0.4211     H
C       0.3564   0.0707   0.4119     C
C         0.36   0.7246   0.3704     C
Co     0.36543  0.13361  0.04754    Co
C        0.366   0.4279   0.7726     C
C       0.3662   0.4146   0.6938     C
O       0.3838   0.4617   0.9826     O
H       0.3864   0.6349     0.52     H
C       0.3869     0.74   0.2169     C
H       0.3872   0.5614   0.8937     H
H       0.3904   0.5202   0.5312     H
H       0.3922   0.0425   0.5244     H
S      0.39254  0.51023  0.04455     S
H       0.3961    0.744   0.1661     H
O       0.4011   0.2152   0.6639     O
O       0.4091   0.0425   0.0495     O
O       0.4091   0.8558   0.7533     O
Co     0.40935   0.8522  0.56256    Co
O       0.4098   0.7552   0.5646     O
H       0.4124   0.4449   0.8041     H
C       0.4133   0.6148   0.5655     C
C       0.4147   0.5469   0.5725     C
C       0.4148   0.5933   0.9272     C
C       0.4273   0.5839   0.0077     C
O       0.4306   0.2648   0.7975     O
H       0.4358   0.6574   0.8444     H
C        0.436   0.7452   0.3569     C
C       0.4375   0.0956   0.3975     C
O       0.4396    0.092   0.1603     O
O       0.4426   0.4956   0.1191     O
C       0.4427   0.0415   0.1212     C
C       0.4439   0.6505   0.8979     C
O       0.4443   0.4015   0.5761     O
O       0.4485   0.2007   0.0358     O
O       0.4489   0.1026   0.3283     O
C       0.4492   0.7521   0.2804     C
C       0.4522   0.5185   0.6411     C
C       0.4523   0.6536   0.6268     C
S       0.4543  0.22236  0.73844     S
S      0.45469  0.43097  0.65249     S
C       0.4549   0.7275   0.6218     C
H       0.4625   0.0934   0.6771     H
H       0.4634   0.9291   0.0534     H
C       0.4679   0.6302   0.0585     C
Co     0.46851  0.16904  0.24136    Co
C       0.4742   0.1427   0.7802     C
H       0.4754   0.2812    0.938     H
O       0.4754   0.5851   0.2892     O
H       0.4757   0.6233    0.112     H
C       0.4765   0.0886   0.7309     C
C       0.4769   0.9778   0.1559     C
H       0.4777   0.7542   0.3986     H
C        0.479   0.9243    0.107     C
C       0.4815   0.2419   0.0858     C
C       0.4849   0.6973   0.9476     C
O       0.4859   0.2391   0.1589     O
H       0.4868   0.3496    0.262     H
H       0.4874   0.4637   0.2495     H
C       0.4887   0.5565   0.7041     C
C       0.4887    0.624   0.6965     C
O       0.4904   0.1069   0.4577     O
H       0.4927   0.1735   0.8929     H
C       0.4956   0.1367    0.861     C
C       0.4969    0.687   0.0285     C
O       0.4974   0.2425   0.3272     O
H       0.4994   0.0095   0.2676     H
C       0.4999   0.9721   0.2361     C
C       0.5001   0.0279   0.7639     C
H       0.5006   0.9905   0.7324     H
O       0.5026   0.7575   0.6728     O
C       0.5031    0.313   0.9715     C
C       0.5044   0.8633    0.139     C
H       0.5073   0.8265   0.1071     H
O       0.5096   0.8931   0.5423     O
C       0.5113    0.376   0.3035     C
C       0.5113   0.4435   0.2959     C
H       0.5126   0.5363   0.7505     H
H       0.5132   0.6504    0.738     H
O       0.5141   0.7609   0.8411     O
C       0.5151   0.3027   0.0524     C
C       0.5185   0.7581   0.9142     C
C        0.521   0.0757    0.893     C
H       0.5223   0.2458   0.6014     H
C       0.5231   0.0222   0.8441     C
C       0.5235   0.9114   0.2691     C
H       0.5243   0.3767    0.888     H
O       0.5246   0.4149   0.7108     O
H       0.5246   0.7188    0.062     H
C       0.5258   0.8573   0.2198     C
Co     0.53149  0.83096  0.75864    Co
C       0.5321   0.3698   0.9415     C
H       0.5366   0.0709   0.9466     H
H       0.5375   0.9066   0.3229     H
C       0.5451   0.2725   0.3782     C
S      0.54531  0.56903  0.34751     S
S       0.5457  0.77764  0.26156     S
C       0.5477   0.3464   0.3732     C
C       0.5478   0.4815   0.3589     C
C       0.5508   0.2479   0.7196     C
O       0.5511   0.8974   0.6717     O
O       0.5515   0.7993   0.9642     O
O       0.5557   0.5985   0.4239     O
C       0.5561   0.3495   0.1021     C
C       0.5573   0.9585   0.8788     C
O       0.5574   0.5044   0.8809     O
O       0.5604    0.908   0.8397     O
C       0.5625   0.9044   0.6025     C
C        0.564   0.2548   0.6431     C
H       0.5642   0.3426   0.1556     H
O       0.5694   0.7352   0.2025     O
C       0.5727   0.4161   0.9923     C
C       0.5852   0.4067   0.0728     C
C       0.5853   0.4531   0.4275     C
C       0.5867   0.3852   0.4345     C
H       0.5876   0.5551   0.1959     H
O       0.5902   0.2448   0.4354     O
Co     0.59065   0.1478  0.43744    Co
O       0.5909   0.1442   0.2467     O
O       0.5909   0.9575   0.9505     O
O       0.5989   0.7848   0.3361     O
H       0.6039    0.256   0.8339     H
S      0.60746  0.48977  0.95545     S
H       0.6078   0.9575   0.4756     H
H       0.6096   0.4798   0.4688     H
H       0.6128   0.4386   0.1063     H
C       0.6131     0.26   0.7831     C
H       0.6136   0.3651     0.48     H
O       0.6162   0.5383   0.0174     O
C       0.6338   0.5854   0.3062     C
C        0.634   0.5721   0.2274     C
Co     0.63457  0.86639  0.95246    Co
C         0.64   0.2754   0.6296     C
C       0.6436   0.9293   0.5881     C
H       0.6486   0.2814   0.5789     H
C       0.6505   0.1223   0.2914     C
C       0.6528   0.9546   0.5155     C
O       0.6555   0.1109   0.3642     O
O       0.6559   0.8066   0.7694     O
H       0.6684   0.4398   0.8254     H
H       0.6824   0.1399   0.1472     H
C       0.6884   0.2779   0.7684     C
H       0.7018   0.6203   0.4053     H
C       0.7021   0.6109   0.3532     C
C        0.703   0.2869   0.6922     C
H       0.7034    0.577   0.1436     H
H       0.7035   0.9099   0.6979     H
C       0.7038   0.5845   0.1963     C
C       0.7058   0.4687   0.9374     C
C       0.7101   0.9251    0.649     C
C       0.7138   0.4438   0.8646     C
O       0.7143   0.8272   0.8946     O
C       0.7153   0.8087    0.824     C
C       0.7267   0.1076   0.2566     C
C       0.7285   0.1222   0.1785     C
C       0.7287   0.9754   0.5023     C
H        0.731   0.2842   0.8102     H
H        0.735   0.9933   0.4546     H
H        0.765   0.4933   0.0454     H
H        0.769   0.7842   0.6898     H
C       0.7713   0.4754   0.9977     C
C       0.7715   0.6222   0.3215     C
C       0.7733   0.6076   0.2434     C
C       0.7847   0.3087    0.676     C
O       0.7857   0.3272   0.6054     O
C       0.7862   0.9438   0.6354     C
C       0.7899   0.4251    0.851     C
C       0.7942   0.9687   0.5626     C
C       0.7962   0.0845   0.3037     C
H       0.7965   0.4099   0.8021     H
H       0.7966    0.077   0.3564     H
C        0.797   0.7869   0.8078     C
C       0.7979   0.1109   0.1468     C
H       0.7982   0.1203   0.0947     H
C       0.8116   0.7779   0.7316     C
H       0.8176   0.6399   0.3528     H
H       0.8316   0.9398   0.6746     H
O       0.8441   0.3066   0.7306     O
O       0.8445   0.6109   0.1358     O
C       0.8472   0.4546   0.9845     C
C       0.8495   0.6223   0.2086     C
H       0.8514   0.7814   0.9211     H
C       0.8564   0.4293   0.9119     C
C         0.86   0.7754   0.8704     C
Co     0.86543  0.36639  0.54754    Co
C        0.866   0.0721   0.2726     C
C       0.8662   0.0854   0.1938     C
O       0.8838   0.0383   0.4826     O
H       0.8864   0.8651     0.02     H
C       0.8869     0.76   0.7169     C
H       0.8872   0.9386   0.3937     H
H       0.8904   0.9798   0.0312     H
H       0.8922   0.4575   0.0244     H
S      0.89254  0.98977  0.54455     S
H       0.8961    0.756   0.6661     H
O       0.9011   0.2848   0.1639     O
O       0.9091   0.4575   0.5495     O
O       0.9091   0.6442   0.2533     O
Co     0.90935   0.6478  0.06256    Co
O       0.9098   0.7448   0.0646     O
H       0.9124   0.0551   0.3041     H
C       0.9133   0.8852   0.0655     C
C       0.9147   0.9531   0.0725     C
C       0.9148   0.9067   0.4272     C
C       0.9273   0.9161   0.5077     C
O       0.9306   0.2352   0.2975     O
H       0.9358   0.8426   0.3444     H
C        0.936   0.7548   0.8569     C
C       0.9375   0.4044   0.8975     C
O       0.9396    0.408   0.6603     O
O       0.9426   0.0044   0.6191     O
C       0.9427   0.4585   0.6212     C
C       0.9439   0.8495   0.3979     C
O       0.9443   0.0985   0.0761     O
O       0.9485   0.2993   0.5358     O
O       0.9489   0.3974   0.8283     O
C       0.9492   0.7479   0.7804     C
C       0.9522   0.9815   0.1411     C
C       0.9523   0.8464   0.1268     C
S       0.9543  0.27764  0.23844     S
S      0.95469  0.06903  0.15249     S
C       0.9549   0.7725   0.1218     C
H       0.9625   0.4066   0.1771     H
H       0.9634   0.5709   0.5534     H
C       0.9679   0.8698   0.5585     C
Co     0.96851  0.33096  0.74136    Co
C       0.9742   0.3573   0.2802     C
H       0.9754   0.2188    0.438     H
O       0.9754   0.9149   0.7892     O
H       0.9757   0.8767    0.612     H
C       0.9765   0.4114   0.2309     C
C       0.9769   0.5222   0.6559     C
H       0.9777   0.7458   0.8986     H
C        0.979   0.5757    0.607     C
C       0.9815   0.2581   0.5858     C
C       0.9849   0.8027   0.4476     C
O       0.9859   0.2609   0.6589     O
H       0.9868   0.1504    0.762     H
H       0.9874   0.0363   0.7495     H
C       0.9887    0.876   0.1965     C
C       0.9887   0.9435   0.2041     C
O       0.9904   0.3931   0.9577     O
H       0.9927   0.3265   0.3929     H
C       0.9956   0.3633    0.361     C
C       0.9969    0.813   0.5285     C
O       0.9974   0.2575   0.8272     O
H       0.9994   0.4905   0.7676     H
C       0.9999   0.5279   0.7361     C
