data_I
_chemical_name_common  '/home/zhangsd/repos/MofS-CGCNN/ML/data/TSD/clean_cifs/COXHON_clean'
_cell_length_a 15.58630
_cell_length_b 15.58630
_cell_length_c 15.58630
_cell_angle_alpha 90.00000
_cell_angle_beta  90.00000
_cell_angle_gamma 90.00000
_space_group_name_H-M_alt      'P 1'


loop_
_space_group_symop_operation_xyz
  'x, y, z' 

loop_
_atom_site_label
_atom_site_fract_x
_atom_site_fract_y
_atom_site_fract_z
_atom_site_type_symbol
O      0.01071  0.36103  0.12292     O
O      0.01071  0.63897  0.37708     O
C      0.03543  0.28543    0.125     C
C      0.03543  0.71457    0.375     C
O      0.11103  0.26071  0.12708     O
O      0.11103  0.73929  0.37292     O
O      0.12292  0.01071  0.36103     O
O      0.12292  0.98929  0.13897     O
C        0.125  0.03543  0.28543     C
Fe       0.125    0.125    0.125    Fe
Fe       0.125    0.875    0.375    Fe
C        0.125  0.96457  0.21457     C
O      0.12708  0.11103  0.26071     O
O      0.12708  0.88897  0.23929     O
O      0.13897  0.12292  0.98929     O
O      0.13897  0.87708  0.51071     O
C      0.21457    0.125  0.96457     C
C      0.21457    0.875  0.53543     C
O      0.23929  0.12708  0.88897     O
O      0.23929  0.87292  0.61103     O
O      0.26071  0.12708  0.11103     O
O      0.26071  0.87292  0.38897     O
C      0.28543    0.125  0.03543     C
C      0.28543    0.875  0.46457     C
O      0.36103  0.12292  0.01071     O
O      0.36103  0.87708  0.48929     O
O      0.37292  0.11103  0.73929     O
O      0.37292  0.88897  0.76071     O
C        0.375  0.03543  0.71457     C
Fe       0.375    0.125    0.875    Fe
Fe       0.375    0.875    0.625    Fe
C        0.375  0.96457  0.78543     C
O      0.37708  0.01071  0.63897     O
O      0.37708  0.98929  0.86103     O
O      0.38897  0.26071  0.87292     O
O      0.38897  0.73929  0.62708     O
C      0.46457  0.28543    0.875     C
C      0.46457  0.71457    0.625     C
O      0.48929  0.36103  0.87708     O
O      0.48929  0.63897  0.62292     O
O      0.51071  0.13897  0.87708     O
O      0.51071  0.86103  0.62292     O
C      0.53543  0.21457    0.875     C
C      0.53543  0.78543    0.625     C
O      0.61103  0.23929  0.87292     O
O      0.61103  0.76071  0.62708     O
O      0.62292  0.48929  0.63897     O
O      0.62292  0.51071  0.86103     O
Fe       0.625    0.375    0.875    Fe
C        0.625  0.46457  0.71457     C
C        0.625  0.53543  0.78543     C
Fe       0.625    0.625    0.625    Fe
O      0.62708  0.38897  0.73929     O
O      0.62708  0.61103  0.76071     O
O      0.63897  0.37708  0.01071     O
O      0.63897  0.62292  0.48929     O
C      0.71457    0.375  0.03543     C
C      0.71457    0.625  0.46457     C
O      0.73929  0.37292  0.11103     O
O      0.73929  0.62708  0.38897     O
O      0.76071  0.37292  0.88897     O
O      0.76071  0.62708  0.61103     O
C      0.78543    0.375  0.96457     C
C      0.78543    0.625  0.53543     C
O      0.86103  0.37708  0.98929     O
O      0.86103  0.62292  0.51071     O
O      0.87292  0.38897  0.26071     O
O      0.87292  0.61103  0.23929     O
Fe       0.875    0.375    0.125    Fe
C        0.875  0.46457  0.28543     C
C        0.875  0.53543  0.21457     C
Fe       0.875    0.625    0.375    Fe
O      0.87708  0.48929  0.36103     O
O      0.87708  0.51071  0.13897     O
O      0.88897  0.23929  0.12708     O
O      0.88897  0.76071  0.37292     O
C      0.96457  0.21457    0.125     C
C      0.96457  0.78543    0.375     C
O      0.98929  0.13897  0.12292     O
O      0.98929  0.86103  0.37708     O
