data_I
_chemical_name_common  '/home/zhangsd/repos/MofS-CGCNN/ML/data/TSD/clean_cifs/COXHED_clean'
_cell_length_a 15.45190
_cell_length_b 15.45190
_cell_length_c 15.45190
_cell_angle_alpha 90.00000
_cell_angle_beta  90.00000
_cell_angle_gamma 90.00000
_space_group_name_H-M_alt      'P 1'


loop_
_space_group_symop_operation_xyz
  'x, y, z' 

loop_
_atom_site_label
_atom_site_fract_x
_atom_site_fract_y
_atom_site_fract_z
_atom_site_type_symbol
O      0.01038  0.36166   0.1241     O
O      0.01038  0.63834   0.3759     O
C      0.03589  0.28589    0.125     C
C      0.03589  0.71411    0.375     C
O      0.11166  0.26038   0.1259     O
O      0.11166  0.73962   0.3741     O
O       0.1241  0.01038  0.36166     O
O       0.1241  0.98962  0.13834     O
C        0.125  0.03589  0.28589     C
Co       0.125    0.125    0.125    Co
Co       0.125    0.875    0.375    Co
C        0.125  0.96411  0.21411     C
O       0.1259  0.11166  0.26038     O
O       0.1259  0.88834  0.23962     O
O      0.13834   0.1241  0.98962     O
O      0.13834   0.8759  0.51038     O
C      0.21411    0.125  0.96411     C
C      0.21411    0.875  0.53589     C
O      0.23962   0.1259  0.88834     O
O      0.23962   0.8741  0.61166     O
O      0.26038   0.1259  0.11166     O
O      0.26038   0.8741  0.38834     O
C      0.28589    0.125  0.03589     C
C      0.28589    0.875  0.46411     C
O      0.36166   0.1241  0.01038     O
O      0.36166   0.8759  0.48962     O
O       0.3741  0.11166  0.73962     O
O       0.3741  0.88834  0.76038     O
C        0.375  0.03589  0.71411     C
Co       0.375    0.125    0.875    Co
Co       0.375    0.875    0.625    Co
C        0.375  0.96411  0.78589     C
O       0.3759  0.01038  0.63834     O
O       0.3759  0.98962  0.86166     O
O      0.38834  0.26038   0.8741     O
O      0.38834  0.73962   0.6259     O
C      0.46411  0.28589    0.875     C
C      0.46411  0.71411    0.625     C
O      0.48962  0.36166   0.8759     O
O      0.48962  0.63834   0.6241     O
O      0.51038  0.13834   0.8759     O
O      0.51038  0.86166   0.6241     O
C      0.53589  0.21411    0.875     C
C      0.53589  0.78589    0.625     C
O      0.61166  0.23962   0.8741     O
O      0.61166  0.76038   0.6259     O
O       0.6241  0.48962  0.63834     O
O       0.6241  0.51038  0.86166     O
Co       0.625    0.375    0.875    Co
C        0.625  0.46411  0.71411     C
C        0.625  0.53589  0.78589     C
Co       0.625    0.625    0.625    Co
O       0.6259  0.38834  0.73962     O
O       0.6259  0.61166  0.76038     O
O      0.63834   0.3759  0.01038     O
O      0.63834   0.6241  0.48962     O
C      0.71411    0.375  0.03589     C
C      0.71411    0.625  0.46411     C
O      0.73962   0.3741  0.11166     O
O      0.73962   0.6259  0.38834     O
O      0.76038   0.3741  0.88834     O
O      0.76038   0.6259  0.61166     O
C      0.78589    0.375  0.96411     C
C      0.78589    0.625  0.53589     C
O      0.86166   0.3759  0.98962     O
O      0.86166   0.6241  0.51038     O
O       0.8741  0.38834  0.26038     O
O       0.8741  0.61166  0.23962     O
Co       0.875    0.375    0.125    Co
C        0.875  0.46411  0.28589     C
C        0.875  0.53589  0.21411     C
Co       0.875    0.625    0.375    Co
O       0.8759  0.48962  0.36166     O
O       0.8759  0.51038  0.13834     O
O      0.88834  0.23962   0.1259     O
O      0.88834  0.76038   0.3741     O
C      0.96411  0.21411    0.125     C
C      0.96411  0.78589    0.375     C
O      0.98962  0.13834   0.1241     O
O      0.98962  0.86166   0.3759     O
