data_I
_chemical_name_common  '/home/zhangsd/repos/MofS-CGCNN/ML/data/TSD/clean_cifs/CUFJUK_clean'
_cell_length_a 10.84710
_cell_length_b  6.33890
_cell_length_c 16.88390
_cell_angle_alpha 90.00000
_cell_angle_beta  105.59200
_cell_angle_gamma 90.00000
_space_group_name_H-M_alt      'P 1'


loop_
_space_group_symop_operation_xyz
  'x, y, z' 

loop_
_atom_site_label
_atom_site_fract_x
_atom_site_fract_y
_atom_site_fract_z
_atom_site_type_symbol
Co         0.0      0.0      0.5    Co
Co         0.0      0.5      0.0    Co
Co     0.03419  0.50306  0.41605    Co
Co     0.03419  0.99694  0.91605    Co
O       0.0554   0.1897   0.0167     O
O       0.0554   0.3103   0.5167     O
O       0.1151   0.5372   0.1181     O
O       0.1151   0.9628   0.6181     O
H         0.12    0.184    0.039     H
H         0.12    0.316    0.539     H
O       0.1401    0.626   0.6548     O
O       0.1401    0.874   0.1548     O
O       0.1563   0.5334   0.9523     O
O       0.1563   0.9666   0.4523     O
C        0.169   0.6858    0.164     C
C        0.169   0.8142    0.664     C
O       0.2245   0.6382   0.4658     O
O       0.2245   0.8618   0.9658     O
C       0.2428   0.6721   0.9644     C
C       0.2428   0.8279   0.4644     C
C       0.2768   0.6194   0.2355     C
C       0.2768   0.8806   0.7355     C
H       0.2849   0.6096   0.8003     H
H       0.2849   0.8904   0.3003     H
H       0.3022   0.1733   0.6974     H
H       0.3022   0.3267   0.1974     H
C       0.3221    0.742   0.8012     C
C       0.3221    0.758   0.3012     C
C       0.3334   0.0766   0.7394     C
C       0.3334   0.4234   0.2394     C
H       0.3548   0.1149    0.568     H
H       0.3548   0.3851    0.068     H
C        0.377   0.5831   0.9811     C
C        0.377   0.9169   0.4811     C
C       0.4136   0.0679   0.5408     C
C       0.4136   0.4321   0.0408     C
C       0.4225   0.6997   0.3681     C
C       0.4225   0.8003   0.8681     C
C       0.4351   0.1318   0.8043     C
C       0.4351   0.3682   0.3043     C
H       0.4504   0.5319   0.5888     H
H       0.4504   0.9681   0.0888     H
C       0.4634   0.6532   0.9381     C
C       0.4634   0.8468   0.4381     C
H       0.4735   0.2368   0.3049     H
H       0.4735   0.2632   0.8049     H
C         0.48   0.5056   0.3679     C
C         0.48   0.9944   0.8679     C
C         0.52   0.0056   0.1321     C
C         0.52   0.4944   0.6321     C
H       0.5265   0.7368   0.1951     H
H       0.5265   0.7632   0.6951     H
C       0.5366   0.1532   0.5619     C
C       0.5366   0.3468   0.0619     C
H       0.5496   0.0319   0.9112     H
H       0.5496   0.4681   0.4112     H
C       0.5649   0.6318   0.6957     C
C       0.5649   0.8682   0.1957     C
C       0.5775   0.1997   0.1319     C
C       0.5775   0.3003   0.6319     C
C       0.5864   0.5679   0.9592     C
C       0.5864   0.9321   0.4592     C
C        0.623   0.0831   0.5189     C
C        0.623   0.4169   0.0189     C
H       0.6452   0.6149    0.932     H
H       0.6452   0.8851    0.432     H
C       0.6666   0.5766   0.7606     C
C       0.6666   0.9234   0.2606     C
C       0.6779    0.242   0.6988     C
C       0.6779    0.258   0.1988     C
H       0.6978   0.6733   0.8026     H
H       0.6978   0.8267   0.3026     H
H       0.7151   0.1096   0.6997     H
H       0.7151   0.3904   0.1997     H
C       0.7232   0.1194   0.2645     C
C       0.7232   0.3806   0.7645     C
C       0.7572   0.1721   0.5356     C
C       0.7572   0.3279   0.0356     C
O       0.7755   0.1382   0.0342     O
O       0.7755   0.3618   0.5342     O
C        0.831   0.1858    0.336     C
C        0.831   0.3142    0.836     C
O       0.8437   0.0334   0.5477     O
O       0.8437   0.4666   0.0477     O
O       0.8599    0.126   0.8452     O
O       0.8599    0.374   0.3452     O
H         0.88    0.684    0.461     H
H         0.88    0.816    0.961     H
O       0.8849   0.0372   0.3819     O
O       0.8849   0.4628   0.8819     O
O       0.9446   0.6897   0.4833     O
O       0.9446   0.8103   0.9833     O
Co     0.96581  0.00306  0.08395    Co
Co     0.96581  0.49694  0.58395    Co
