data_I
_chemical_name_common  '/home/zhangsd/repos/MofS-CGCNN/ML/data/TSD/clean_cifs/CUGVUW_clean'
_cell_length_a  8.98100
_cell_length_b 16.00150
_cell_length_c 16.00150
_cell_angle_alpha 63.41670
_cell_angle_beta  79.21720
_cell_angle_gamma 100.78300
_space_group_name_H-M_alt      'P 1'


loop_
_space_group_symop_operation_xyz
  'x, y, z' 

loop_
_atom_site_label
_atom_site_fract_x
_atom_site_fract_y
_atom_site_fract_z
_atom_site_type_symbol
Cu         0.0      0.0      0.5    Cu
Cu         0.0      0.5      0.0    Cu
C      0.00271  0.69092  0.31239     C
C       0.0075   0.9009   0.7493     C
N      0.02593  0.78806  0.26757     N
C      0.02881  0.29929  0.42116     C
H       0.0299     0.86   0.8818     H
N      0.03085  0.87519  0.49904     N
H       0.0339   0.3618   0.8658     H
C      0.05978  0.21477  0.43033     C
N      0.06436  0.52894  0.58806     N
H       0.0725   0.6058   0.7789     H
N      0.08002    0.953  0.65314     N
C       0.0861   0.8973    0.815     C
H       0.0883   0.1182   0.7418     H
H       0.0883   0.6683   0.3009     H
H        0.097   0.3609   0.3721     H
C       0.0989    0.185   0.7123     C
H       0.1003   0.1342   0.2276     H
C      0.10537   0.7098  0.51359     C
C       0.1066   0.3498   0.9009     C
N      0.12702  0.39386    0.953     N
C      0.14032  0.37538  0.62632     C
H       0.1486   0.2211   0.3847     H
C      0.15499   0.6451  0.78523     C
C      0.15537  0.88268  0.43297     C
N      0.15566  0.62577  0.87519     N
C      0.15656  0.62316  0.52718     C
N      0.16962  0.48315  0.05909     N
C      0.16988  0.48209  0.57775     C
H       0.1699   0.2582     0.86     H
C       0.1888   0.2877   0.8973     C
C      0.19706  0.80276  0.43768     C
N      0.21052  0.51773  0.11857     N
H       0.2169   0.9449   0.3814     H
N      0.22871  0.05909  0.45776     N
C      0.23336  0.37368   0.0017     C
C      0.23506   0.0017  0.62462     C
N      0.23787  0.94437  0.78806     N
C       0.2432   0.2507   0.6502     C
C      0.25237  0.42225  0.05984     C
H       0.2639    0.733   0.6391     H
N      0.26684  0.34686  0.60614     N
C      0.27048  0.72045  0.70071     C
H        0.272   0.6737   0.9449     H
C      0.27269  0.68435  0.88268     C
H       0.2855    0.811   0.3906     H
N       0.2935  0.26757  0.94437     N
N      0.30721   0.6363  0.48227     N
C      0.31179  0.99669  0.69092     C
C      0.31221  0.05984  0.51791     C
N      0.31353  0.54224  0.51685     N
C       0.3151  0.31239  0.99669     C
C      0.31626  0.47282  0.15034     C
H       0.3239   0.6094   0.2016     H
H       0.3279   0.2276   0.6382     H
N      0.32909  0.11857   0.3637     N
N      0.34758  0.41194    0.117     N
C      0.36526  0.56232  0.24044     C
C      0.38104  0.48641  0.22339     C
H       0.3892   0.3009   0.0308     H
C       0.3943  0.75956  0.80276     C
C      0.39557  0.77661   0.7098     C
H       0.4017   0.6186   0.3263     H
C      0.41166  0.56703  0.31565     C
H         0.42   0.0308   0.6683     H
C      0.44997  0.42116  0.27955     C
N      0.46458    0.117  0.47106     N
C       0.4666  0.15034  0.37684     C
H       0.4667   0.6153   0.6058     H
H       0.4691   0.3721    0.267     H
N      0.47011  0.50096  0.37423     N
H       0.4745   0.7984    0.811     H
C      0.49011  0.43033   0.3549     C
Cu         0.5      0.5      0.5    Cu
C      0.50989  0.56967   0.6451     C
H       0.5255   0.2016    0.189     H
N      0.52989  0.49904  0.62577     N
H       0.5309   0.6279    0.733     H
H       0.5333   0.3847   0.3942     H
C       0.5334  0.84966  0.62316     C
N      0.53542    0.883  0.52894     N
C      0.55003  0.57884  0.72045     C
H         0.58   0.9692   0.3317     H
C      0.58834  0.43297  0.68435     C
H       0.5983   0.3814   0.6737     H
C      0.60443  0.22339   0.2902     C
C       0.6057  0.24044  0.19724     C
H       0.6108   0.6991   0.9692     H
C      0.61896  0.51359  0.77661     C
C      0.63474  0.43768  0.75956     C
N      0.65242  0.58806    0.883     N
N      0.67091  0.88143   0.6363     N
H       0.6721   0.7724   0.3618     H
H       0.6761   0.3906   0.7984     H
C      0.68374  0.52718  0.84966     C
C       0.6849  0.68761  0.00331     C
N      0.68647  0.45776  0.48315     N
C      0.68779  0.94016  0.48209     C
C      0.68821  0.00331  0.30908     C
N      0.69279   0.3637  0.51773     N
N       0.7065  0.73243  0.05563     N
H       0.7145    0.189   0.6094     H
C      0.72731  0.31565  0.11732     C
H        0.728   0.3263   0.0551     H
C      0.72952  0.27955  0.29929     C
N      0.73316  0.65314  0.39386     N
H       0.7361    0.267   0.3609     H
C      0.74763  0.57775  0.94016     C
C       0.7568   0.7493   0.3498     C
N      0.76213  0.05563  0.21194     N
C      0.76494   0.9983  0.37538     C
C      0.76664  0.62632   0.9983     C
N      0.77129  0.94091  0.54224     N
H       0.7831   0.0551   0.6186     H
N      0.78948  0.48227  0.88143     N
C      0.80294  0.19724  0.56232     C
C       0.8112   0.7123   0.1027     C
H       0.8301   0.7418     0.14     H
C      0.83012  0.51791  0.42225     C
N      0.83038  0.51685  0.94091     N
C      0.84344  0.37684  0.47282     C
N      0.84434  0.37423  0.12481     N
C      0.84463  0.11732  0.56703     C
C      0.84501   0.3549  0.21477     C
H       0.8514   0.7789   0.6153     H
C      0.85968  0.62462  0.37368     C
N      0.87298  0.60614    0.047     N
C       0.8934   0.6502   0.0991     C
C      0.89463   0.2902  0.48641     C
H       0.8997   0.8658   0.7724     H
C       0.9011    0.815   0.2877     C
H        0.903   0.6391   0.6279     H
H       0.9117   0.3317   0.6991     H
H       0.9117   0.8818   0.2582     H
C       0.9139   0.1027    0.185     C
N      0.91998    0.047  0.34686     N
H       0.9275   0.3942   0.2211     H
N      0.93564  0.47106  0.41194     N
C      0.94022  0.78523  0.56967     C
H       0.9661   0.6382   0.1342     H
N      0.96915  0.12481  0.50096     N
H       0.9701     0.14   0.1182     H
C      0.97119  0.70071  0.57884     C
N      0.97407  0.21194  0.73243     N
C       0.9925   0.0991   0.2507     C
C      0.99729  0.30908  0.68761     C
