data_I
_chemical_name_common  '/home/zhangsd/repos/MofS-CGCNN/ML/data/TSD/clean_cifs/CUKXOW_clean'
_cell_length_a 10.54840
_cell_length_b 10.54840
_cell_length_c 14.72430
_cell_angle_alpha 90.57040
_cell_angle_beta  90.57040
_cell_angle_gamma 105.63500
_space_group_name_H-M_alt      'P 1'


loop_
_space_group_symop_operation_xyz
  'x, y, z' 

loop_
_atom_site_label
_atom_site_fract_x
_atom_site_fract_y
_atom_site_fract_z
_atom_site_type_symbol
O      0.02348  0.08932   0.9206     O
O       0.0245  0.18184  0.11457     O
H       0.0526   0.1452   0.7547     H
H       0.0598    0.289   0.7873     H
C       0.0997   0.8471   0.8851     C
C       0.1045   0.2199   0.7896     C
H       0.1136    0.821   0.7479     H
C       0.1152   0.1794   0.8884     C
H       0.1412   0.7054   0.8036     H
C       0.1585   0.8003   0.8013     C
Tb     0.17472   0.0725  0.05754    Tb
O      0.17546  0.90822  0.94634     O
H       0.1963   0.8455   0.3314     H
O      0.20355  0.05093  0.21984     O
H       0.2054   0.6412   0.3036     H
H        0.211   0.4402   0.7127     H
O      0.21284  0.23528  0.93596     O
N       0.2336   0.2664     0.75     N
C       0.2432   0.9472    0.214     C
O      0.24864  0.89554  0.13819     O
N      0.25982  0.05898    0.769     N
O      0.26472  0.28716  0.56404     O
C       0.2775   0.8903   0.3016     C
C       0.2801   0.3955   0.7104     C
N      0.29885  0.85695    0.791     N
C       0.3003   0.6585   0.3013     C
C       0.3144   0.1856     0.75     C
O      0.31816   0.4755  0.38543     O
C       0.3206   0.3848   0.6116     C
H        0.321   0.6136   0.2479     H
H       0.3242    0.962   0.3412     H
H       0.3455   0.6963   0.8314     H
C       0.3456   0.9858   0.7692     C
C       0.3471   0.5997   0.3851     C
H       0.3548   0.4474   0.7453     H
N      0.35695  0.79885    0.291     N
C       0.3903   0.7775   0.8016     C
O      0.39554  0.74864  0.63819     O
O      0.40822  0.67546  0.44634     O
O      0.41068  0.47652   0.5794     O
Tb      0.4275  0.32528  0.44246    Tb
N      0.44102  0.24018    0.731     N
C       0.4472   0.7432    0.714     C
O      0.44907  0.29645  0.28016     O
H        0.462   0.8242   0.8412     H
N       0.4735   0.0265     0.75     N
C       0.4858   0.8456   0.2692     C
C       0.5142   0.1544   0.7308     C
N       0.5265   0.9735     0.25     N
H        0.538   0.1758   0.1588     H
O      0.55093  0.70355  0.71984     O
C       0.5528   0.2568    0.286     C
N      0.55898  0.75982    0.269     N
Tb      0.5725  0.67472  0.55754    Tb
O      0.58932  0.52348   0.4206     O
O      0.59178  0.32454  0.55366     O
O      0.60446  0.25136  0.36181     O
C       0.6097   0.2225   0.1984     C
N      0.64305  0.20115    0.709     N
H       0.6452   0.5526   0.2547     H
C       0.6529   0.4003   0.6149     C
C       0.6544   0.0142   0.2308     C
H       0.6545   0.3037   0.1686     H
H       0.6758    0.038   0.6588     H
H        0.679   0.3864   0.7521     H
C       0.6794   0.6152   0.3884     C
O      0.68184   0.5245  0.61457     O
C       0.6856   0.8144     0.25     C
C       0.6997   0.3415   0.6987     C
N      0.70115  0.14305    0.209     N
C       0.7199   0.6045   0.2896     C
C       0.7225   0.1097   0.6984     C
O      0.73528  0.71284  0.43596     O
N      0.74018  0.94102    0.231     N
O      0.75136  0.10446  0.86181     O
C       0.7568   0.0528    0.786     C
N       0.7664   0.7336     0.25     N
O      0.78716  0.76472  0.06404     O
H        0.789   0.5598   0.2873     H
H       0.7946   0.3588   0.6964     H
O      0.79645  0.94907  0.78016     O
H       0.8037   0.1545   0.6686     H
O      0.82454  0.09178  0.05366     O
Tb     0.82528   0.9275  0.94246    Tb
C       0.8415   0.1997   0.1987     C
H       0.8588   0.2946   0.1964     H
C       0.8848   0.8206   0.1116     C
H       0.8864    0.179   0.2521     H
C       0.8955   0.7801   0.2104     C
C       0.9003   0.1529   0.1149     C
H       0.9402    0.711   0.2127     H
H       0.9474   0.8548   0.2453     H
O       0.9755  0.81816  0.88543     O
O      0.97652  0.91068   0.0794     O
