data_I
_chemical_name_common  '/home/zhangsd/repos/MofS-CGCNN/ML/data/TSD/clean_cifs/CUKXUC_clean'
_cell_length_a 10.57510
_cell_length_b 10.57510
_cell_length_c 14.80130
_cell_angle_alpha 90.60700
_cell_angle_beta  90.60700
_cell_angle_gamma 105.77300
_space_group_name_H-M_alt      'P 1'


loop_
_space_group_symop_operation_xyz
  'x, y, z' 

loop_
_atom_site_label
_atom_site_fract_x
_atom_site_fract_y
_atom_site_fract_z
_atom_site_type_symbol
O       0.0229   0.0901    0.921     O
O       0.0245   0.1827   0.1153     O
H       0.0539   0.1425    0.756     H
H       0.0581   0.2859    0.787     H
C       0.0999   0.8463   0.8856     C
C       0.1045   0.2185   0.7903     C
H       0.1128   0.8228   0.7485     H
C       0.1145   0.1805   0.8887     C
H       0.1409   0.7067   0.8023     H
C       0.1583   0.8015    0.801     C
Eu     0.17571  0.07287  0.05728    Eu
O       0.1764    0.907   0.9458     O
H        0.199   0.8438   0.3313     H
O        0.205   0.0508   0.2199     O
H       0.2067   0.6409   0.3023     H
O       0.2134   0.2378   0.9353     O
H       0.2141   0.4419    0.713     H
N       0.2329   0.2671     0.75     N
C       0.2427   0.9459   0.2138     C
O       0.2505   0.8945   0.1377     O
N       0.2596   0.0588   0.7692     N
O       0.2622   0.2866   0.5647     O
C       0.2792   0.8886   0.3009     C
C       0.2815   0.3955   0.7097     C
N       0.2984    0.858   0.7897     N
C       0.3015   0.6583    0.301     C
C       0.3143   0.1857     0.75     C
O       0.3173   0.4755   0.3847     O
C       0.3195   0.3855   0.6113     C
H       0.3228   0.6128   0.2485     H
H       0.3265   0.9605   0.3401     H
H       0.3438    0.699   0.8313     H
C       0.3444   0.9862   0.7691     C
C       0.3463   0.5999   0.3856     C
H       0.3575   0.4461    0.744     H
N        0.358   0.7984   0.2897     N
C       0.3886   0.7792   0.8009     C
O       0.3945   0.7505   0.6377     O
O        0.407   0.6764   0.4458     O
O       0.4099   0.4771    0.579     O
Eu     0.42713  0.32429  0.44272    Eu
N       0.4412   0.2404   0.7308     N
C       0.4459   0.7427   0.7138     C
O       0.4492    0.295   0.2801     O
H       0.4605   0.8265   0.8401     H
N       0.4721   0.0279     0.75     N
C       0.4862   0.8444   0.2691     C
C       0.5138   0.1556   0.7309     C
N       0.5279   0.9721     0.25     N
H       0.5395   0.1735   0.1599     H
O       0.5508    0.705   0.7199     O
C       0.5541   0.2573   0.2862     C
N       0.5588   0.7596   0.2692     N
Eu     0.57287  0.67571  0.55728    Eu
O       0.5901   0.5229    0.421     O
O        0.593   0.3236   0.5542     O
O       0.6055   0.2495   0.3623     O
C       0.6114   0.2208   0.1991     C
N        0.642   0.2016   0.7103     N
H       0.6425   0.5539    0.256     H
C       0.6537   0.4001   0.6144     C
C       0.6556   0.0138   0.2309     C
H       0.6562    0.301   0.1687     H
H       0.6735   0.0395   0.6599     H
H       0.6772   0.3872   0.7515     H
C       0.6805   0.6145   0.3887     C
O       0.6827   0.5245   0.6153     O
C       0.6857   0.8143     0.25     C
C       0.6985   0.3417    0.699     C
N       0.7016    0.142   0.2103     N
C       0.7185   0.6045   0.2903     C
C       0.7208   0.1114   0.6991     C
O       0.7378   0.7134   0.4353     O
N       0.7404   0.9412   0.2308     N
O       0.7495   0.1055   0.8623     O
C       0.7573   0.0541   0.7862     C
N       0.7671   0.7329     0.25     N
H       0.7859   0.5581    0.287     H
O       0.7866   0.7622   0.0647     O
H       0.7933   0.3591   0.6977     H
O        0.795   0.9492   0.7801     O
H        0.801   0.1562   0.6687     H
O       0.8236    0.093   0.0542     O
Eu     0.82429  0.92713  0.94272    Eu
C       0.8417   0.1985    0.199     C
H       0.8591   0.2933   0.1977     H
C       0.8855   0.8195   0.1113     C
H       0.8872   0.1772   0.2515     H
C       0.8955   0.7815   0.2097     C
C       0.9001   0.1537   0.1144     C
H       0.9419   0.7141    0.213     H
H       0.9461   0.8575    0.244     H
O       0.9755   0.8173   0.8847     O
O       0.9771   0.9099    0.079     O
