data_I
_chemical_name_common  '/home/zhangsd/repos/MofS-CGCNN/ML/data/TSD/clean_cifs/CUKYAJ_clean'
_cell_length_a 10.56210
_cell_length_b 10.56210
_cell_length_c 14.80200
_cell_angle_alpha 90.59680
_cell_angle_beta  90.59680
_cell_angle_gamma 105.76100
_space_group_name_H-M_alt      'P 1'


loop_
_space_group_symop_operation_xyz
  'x, y, z' 

loop_
_atom_site_label
_atom_site_fract_x
_atom_site_fract_y
_atom_site_fract_z
_atom_site_type_symbol
O       0.0235   0.6821   0.6151     O
O       0.0247   0.5909   0.4199     O
H        0.053   0.6466   0.2544     H
H        0.061   0.7908   0.2864     H
C        0.102   0.3468   0.3835     C
C       0.1052   0.7216   0.2889     C
H       0.1123   0.3247   0.2472     H
C       0.1173   0.6815   0.3886     C
H       0.1389   0.2067   0.3001     H
C       0.1572   0.3018   0.2994     C
O       0.1764   0.4058   0.4457     O
Dy     0.17643  0.57327  0.55709    Dy
H        0.198   0.3436   0.8299     H
O       0.2047   0.5485   0.7208     O
H       0.2067   0.1389   0.8001     H
H       0.2092    0.939   0.2136     H
O       0.2121   0.7395   0.4349     O
N       0.2331   0.7669     0.25     N
C       0.2453   0.4459    0.714     C
O       0.2506    0.396   0.6393     O
N        0.258   0.5596   0.2692     N
O       0.2605   0.7879   0.0651     O
C       0.2784   0.8948   0.2111     C
C       0.2791   0.3887   0.8004     C
N       0.2979   0.3581   0.2895     N
C       0.3018   0.1572   0.7994     C
C       0.3127   0.6873     0.25     C
O       0.3179   0.9765   0.8849     O
C       0.3185   0.8827   0.1114     C
H       0.3247   0.1123   0.7472     H
H       0.3259   0.4601   0.8401     H
H       0.3436    0.198   0.3299     H
C        0.345   0.4864   0.2685     C
C       0.3468    0.102   0.8835     C
H       0.3534    0.947   0.2456     H
N       0.3581   0.2979   0.7895     N
C       0.3887   0.2791   0.3004     C
O        0.396   0.2506   0.1393     O
O       0.4058   0.1764   0.9457     O
O       0.4091   0.9753   0.0801     O
Dy     0.42673  0.82357  0.94291    Dy
N       0.4404    0.742   0.2308     N
C       0.4459   0.2453    0.214     C
O       0.4515   0.7953   0.7792     O
H       0.4601   0.3259   0.3401     H
N       0.4725   0.5275     0.25     N
C       0.4864    0.345   0.7685     C
C       0.5136    0.655   0.2315     C
N       0.5275   0.4725     0.75     N
H       0.5399   0.6741   0.6599     H
O       0.5485   0.2047   0.2208     O
C       0.5541   0.7547    0.786     C
N       0.5596    0.258   0.7692     N
Dy     0.57327  0.17643  0.05709    Dy
O       0.5909   0.0247   0.9199     O
O       0.5942   0.8236   0.0543     O
O        0.604   0.7494   0.8607     O
C       0.6113   0.7209   0.6996     C
N       0.6419   0.7021   0.2105     N
H       0.6466    0.053   0.7544     H
C       0.6532    0.898   0.1165     C
C        0.655   0.5136   0.7315     C
H       0.6564    0.802   0.6701     H
H       0.6741   0.5399   0.1599     H
H       0.6753   0.8877   0.2528     H
C       0.6815   0.1173   0.8886     C
O       0.6821   0.0235   0.1151     O
C       0.6873   0.3127     0.75     C
C       0.6982   0.8428   0.2006     C
N       0.7021   0.6419   0.7105     N
C       0.7209   0.6113   0.1996     C
C       0.7216   0.1052   0.7889     C
O       0.7395   0.2121   0.9349     O
N        0.742   0.4404   0.7308     N
O       0.7494    0.604   0.3607     O
C       0.7547   0.5541    0.286     C
N       0.7669   0.2331     0.75     N
O       0.7879   0.2605   0.5651     O
H       0.7908    0.061   0.7864     H
H       0.7933   0.8611   0.1999     H
O       0.7953   0.4515   0.2792     O
H        0.802   0.6564   0.1701     H
Dy     0.82357  0.42673  0.44291    Dy
O       0.8236   0.5942   0.5543     O
C       0.8428   0.6982   0.7006     C
H       0.8611   0.7933   0.6999     H
C       0.8827   0.3185   0.6114     C
H       0.8877   0.6753   0.7528     H
C       0.8948   0.2784   0.7111     C
C        0.898   0.6532   0.6165     C
H        0.939   0.2092   0.7136     H
H        0.947   0.3534   0.7456     H
O       0.9753   0.4091   0.5801     O
O       0.9765   0.3179   0.3849     O
