data_I
_chemical_name_common  '/home/zhangsd/repos/MofS-CGCNN/ML/data/TSD/clean_cifs/CUNQUZ_clean'
_cell_length_a  5.63390
_cell_length_b 15.94280
_cell_length_c  9.61830
_cell_angle_alpha 90.00000
_cell_angle_beta  91.11560
_cell_angle_gamma 90.00000
_space_group_name_H-M_alt      'P 1'


loop_
_space_group_symop_operation_xyz
  'x, y, z' 

loop_
_atom_site_label
_atom_site_fract_x
_atom_site_fract_y
_atom_site_fract_z
_atom_site_type_symbol
O       0.0079   0.7244   0.9516     O
H        0.052   0.5796   0.8566     H
O       0.0562   0.2196   0.6074     O
O       0.0759   0.0712   0.3684     O
C       0.0924   0.0061   0.4411     C
O       0.1362   0.7262   0.7027     O
O       0.1869   0.5963   0.8421     O
P       0.1925  0.69603   0.8499     P
Cd     0.20192  0.83175  0.56259    Cd
O       0.2457   0.9503    0.428     O
O       0.2543   0.4503    0.072     O
Cd     0.29808  0.33175  0.93741    Cd
P       0.3075  0.19603   0.6501     P
O       0.3131   0.0963   0.6579     O
O       0.3638   0.2262   0.7973     O
C       0.4076   0.5061   0.0589     C
O       0.4241   0.5712   0.1316     O
O       0.4438   0.7196   0.8926     O
H        0.448   0.0796   0.6434     H
O       0.4921   0.2244   0.5484     O
O       0.5079   0.7756   0.4516     O
H        0.552   0.9204   0.3566     H
O       0.5562   0.2804   0.1074     O
O       0.5759   0.4288   0.8684     O
C       0.5924   0.4939   0.9411     C
O       0.6362   0.7738   0.2027     O
O       0.6869   0.9037   0.3421     O
P       0.6925  0.80397   0.3499     P
Cd     0.70192  0.66825  0.06259    Cd
O       0.7457   0.5497    0.928     O
O       0.7543   0.0497    0.572     O
Cd     0.79808  0.16825  0.43741    Cd
P       0.8075  0.30397   0.1501     P
O       0.8131   0.4037   0.1579     O
O       0.8638   0.2738   0.2973     O
C       0.9076   0.9939   0.5589     C
O       0.9241   0.9288   0.6316     O
O       0.9438   0.7804   0.3926     O
H        0.948   0.4204   0.1434     H
O       0.9921   0.2756   0.0484     O
