data_I
_chemical_name_common  '/home/zhangsd/repos/MofS-CGCNN/ML/data/TSD/clean_cifs/CUQRIR_clean'
_cell_length_a 39.35600
_cell_length_b  9.33200
_cell_length_c  9.84200
_cell_angle_alpha 90.00000
_cell_angle_beta  101.86400
_cell_angle_gamma 90.00000
_space_group_name_H-M_alt      'P 1'


loop_
_space_group_symop_operation_xyz
  'x, y, z' 

loop_
_atom_site_label
_atom_site_fract_x
_atom_site_fract_y
_atom_site_fract_z
_atom_site_type_symbol
H       0.0004   0.1114   0.0814     H
H       0.0004   0.8886   0.5814     H
C      0.00985    0.047   0.0274     C
C      0.00985    0.953   0.5274     C
C      0.04629   0.0738   0.0211     C
C      0.04629   0.9262   0.5211     C
H       0.0529   0.0813   0.3938     H
H       0.0529   0.9187   0.8938     H
H       0.0531   0.2285   0.1545     H
H       0.0531   0.7715   0.6545     H
C        0.064   0.0052   0.4457     C
C        0.064   0.1762   0.0952     C
C        0.064   0.8238   0.5952     C
C        0.064   0.9948   0.9457     C
C      0.09809   0.2111   0.0905     C
C      0.09809   0.7889   0.5905     C
C       0.0991   0.0239   0.9429     C
C       0.0991   0.9761   0.4429     C
H       0.1087   0.2885   0.1417     H
H       0.1087   0.7115   0.6417     H
H       0.1109   0.0346   0.3915     H
H       0.1109   0.9654   0.8915     H
C      0.11553   0.1354    0.014     C
C      0.11553   0.8646    0.514     C
C       0.1524   0.1707   0.0102     C
C       0.1524   0.8293   0.5102     C
H       0.1611   0.4143   0.2769     H
H       0.1611   0.5857   0.7769     H
H       0.1651   0.4952   0.9135     H
H       0.1651   0.5048   0.4135     H
O        0.166    0.271   0.0823     O
O        0.166    0.729   0.5823     O
O      0.16866   0.0976   0.9508     O
O      0.16866   0.9024   0.4508     O
C      0.17656   0.4394   0.3625     C
C      0.17656   0.5606   0.8625     C
H        0.183   0.3544   0.4167     H
H        0.183   0.6456   0.9167     H
H       0.2047   0.1353   0.3076     H
H       0.2047   0.8647   0.8076     H
C      0.20815   0.4916    0.832     C
C      0.20815   0.5084    0.332     C
Zn     0.21419  0.31089  0.08561    Zn
Zn     0.21419  0.68911  0.58561    Zn
H       0.2143   0.0219   0.8574     H
H       0.2143   0.9781   0.3574     H
C      0.22331   0.0723   0.3477     C
C      0.22331   0.9277   0.8477     C
N      0.22403   0.3845   0.9062     N
N      0.22403   0.6155   0.4062     N
N      0.22429   0.4731   0.2284     N
N      0.22429   0.5269   0.7284     N
H       0.2345   0.1077   0.4373     H
H       0.2345   0.8923   0.9373     H
N      0.24832   0.1524   0.1514     N
N      0.24832   0.8476   0.6514     N
C      0.24892   0.0655    0.256     C
C      0.24892   0.9345    0.756     C
C      0.25108   0.4345    0.744     C
C      0.25108   0.5655    0.244     C
N      0.25168   0.3476   0.8486     N
N      0.25168   0.6524   0.3486     N
H       0.2655   0.3923   0.5627     H
H       0.2655   0.6077   0.0627     H
N      0.27571   0.0269   0.7716     N
N      0.27571   0.9731   0.2716     N
N      0.27597   0.1155   0.0938     N
N      0.27597   0.8845   0.5938     N
C      0.27669   0.4277   0.6523     C
C      0.27669   0.5723   0.1523     C
H       0.2857   0.4781   0.1426     H
H       0.2857   0.5219   0.6426     H
Zn     0.28581  0.18911  0.91439    Zn
Zn     0.28581  0.81089  0.41439    Zn
C      0.29185   0.0084    0.168     C
C      0.29185   0.9916    0.668     C
H       0.2953   0.3647   0.6924     H
H       0.2953   0.6353   0.1924     H
H        0.317   0.1456   0.5833     H
H        0.317   0.8544   0.0833     H
C      0.32344   0.0606   0.6375     C
C      0.32344   0.9394   0.1375     C
O      0.33134   0.4024   0.0492     O
O      0.33134   0.5976   0.5492     O
O        0.334    0.229   0.9177     O
O        0.334    0.771   0.4177     O
H       0.3349   0.0048   0.0865     H
H       0.3349   0.9952   0.5865     H
H       0.3389   0.0857   0.7231     H
H       0.3389   0.9143   0.2231     H
C       0.3476   0.3293   0.9898     C
C       0.3476   0.6707   0.4898     C
C      0.38447   0.3646    0.986     C
C      0.38447   0.6354    0.486     C
H       0.3891   0.4654   0.6085     H
H       0.3891   0.5346   0.1085     H
H       0.3913   0.2115   0.8583     H
H       0.3913   0.7885   0.3583     H
C       0.4009   0.4761   0.0571     C
C       0.4009   0.5239   0.5571     C
C      0.40191   0.2889   0.9095     C
C      0.40191   0.7111   0.4095     C
C        0.436   0.3238   0.9048     C
C        0.436   0.4948   0.5543     C
C        0.436   0.5052   0.0543     C
C        0.436   0.6762   0.4048     C
H       0.4469   0.2715   0.8455     H
H       0.4469   0.7285   0.3455     H
H       0.4471   0.4187   0.6062     H
H       0.4471   0.5813   0.1062     H
C      0.45371   0.4262   0.9789     C
C      0.45371   0.5738   0.4789     C
C      0.49015    0.453   0.9726     C
C      0.49015    0.547   0.4726     C
H       0.4996   0.3886   0.9186     H
H       0.4996   0.6114   0.4186     H
H       0.5004   0.3886   0.5814     H
H       0.5004   0.6114   0.0814     H
C      0.50985    0.453   0.5274     C
C      0.50985    0.547   0.0274     C
C      0.54629   0.4262   0.5211     C
C      0.54629   0.5738   0.0211     C
H       0.5529   0.4187   0.8938     H
H       0.5529   0.5813   0.3938     H
H       0.5531   0.2715   0.6545     H
H       0.5531   0.7285   0.1545     H
C        0.564   0.3238   0.5952     C
C        0.564   0.4948   0.9457     C
C        0.564   0.5052   0.4457     C
C        0.564   0.6762   0.0952     C
C      0.59809   0.2889   0.5905     C
C      0.59809   0.7111   0.0905     C
C       0.5991   0.4761   0.4429     C
C       0.5991   0.5239   0.9429     C
H       0.6087   0.2115   0.6417     H
H       0.6087   0.7885   0.1417     H
H       0.6109   0.4654   0.8915     H
H       0.6109   0.5346   0.3915     H
C      0.61553   0.3646    0.514     C
C      0.61553   0.6354    0.014     C
C       0.6524   0.3293   0.5102     C
C       0.6524   0.6707   0.0102     C
H       0.6611   0.0857   0.7769     H
H       0.6611   0.9143   0.2769     H
H       0.6651   0.0048   0.4135     H
H       0.6651   0.9952   0.9135     H
O        0.666    0.229   0.5823     O
O        0.666    0.771   0.0823     O
O      0.66866   0.4024   0.4508     O
O      0.66866   0.5976   0.9508     O
C      0.67656   0.0606   0.8625     C
C      0.67656   0.9394   0.3625     C
H        0.683   0.1456   0.9167     H
H        0.683   0.8544   0.4167     H
H       0.7047   0.3647   0.8076     H
H       0.7047   0.6353   0.3076     H
C      0.70815   0.0084    0.332     C
C      0.70815   0.9916    0.832     C
Zn     0.71419  0.18911  0.58561    Zn
Zn     0.71419  0.81089  0.08561    Zn
H       0.7143   0.4781   0.3574     H
H       0.7143   0.5219   0.8574     H
C      0.72331   0.4277   0.8477     C
C      0.72331   0.5723   0.3477     C
N      0.72403   0.1155   0.4062     N
N      0.72403   0.8845   0.9062     N
N      0.72429   0.0269   0.7284     N
N      0.72429   0.9731   0.2284     N
H       0.7345   0.3923   0.9373     H
H       0.7345   0.6077   0.4373     H
N      0.74832   0.3476   0.6514     N
N      0.74832   0.6524   0.1514     N
C      0.74892   0.4345    0.756     C
C      0.74892   0.5655    0.256     C
C      0.75108   0.0655    0.244     C
C      0.75108   0.9345    0.744     C
N      0.75168   0.1524   0.3486     N
N      0.75168   0.8476   0.8486     N
H       0.7655   0.1077   0.0627     H
H       0.7655   0.8923   0.5627     H
N      0.77571   0.4731   0.2716     N
N      0.77571   0.5269   0.7716     N
N      0.77597   0.3845   0.5938     N
N      0.77597   0.6155   0.0938     N
C      0.77669   0.0723   0.1523     C
C      0.77669   0.9277   0.6523     C
H       0.7857   0.0219   0.6426     H
H       0.7857   0.9781   0.1426     H
Zn     0.78581  0.31089  0.41439    Zn
Zn     0.78581  0.68911  0.91439    Zn
C      0.79185   0.4916    0.668     C
C      0.79185   0.5084    0.168     C
H       0.7953   0.1353   0.1924     H
H       0.7953   0.8647   0.6924     H
H        0.817   0.3544   0.0833     H
H        0.817   0.6456   0.5833     H
C      0.82344   0.4394   0.1375     C
C      0.82344   0.5606   0.6375     C
O      0.83134   0.0976   0.5492     O
O      0.83134   0.9024   0.0492     O
O        0.834    0.271   0.4177     O
O        0.834    0.729   0.9177     O
H       0.8349   0.4952   0.5865     H
H       0.8349   0.5048   0.0865     H
H       0.8389   0.4143   0.2231     H
H       0.8389   0.5857   0.7231     H
C       0.8476   0.1707   0.4898     C
C       0.8476   0.8293   0.9898     C
C      0.88447   0.1354    0.486     C
C      0.88447   0.8646    0.986     C
H       0.8891   0.0346   0.1085     H
H       0.8891   0.9654   0.6085     H
H       0.8913   0.2885   0.3583     H
H       0.8913   0.7115   0.8583     H
C       0.9009   0.0239   0.5571     C
C       0.9009   0.9761   0.0571     C
C      0.90191   0.2111   0.4095     C
C      0.90191   0.7889   0.9095     C
C        0.936   0.0052   0.0543     C
C        0.936   0.1762   0.4048     C
C        0.936   0.8238   0.9048     C
C        0.936   0.9948   0.5543     C
H       0.9469   0.2285   0.3455     H
H       0.9469   0.7715   0.8455     H
H       0.9471   0.0813   0.1062     H
H       0.9471   0.9187   0.6062     H
C      0.95371   0.0738   0.4789     C
C      0.95371   0.9262   0.9789     C
C      0.99015    0.047   0.4726     C
C      0.99015    0.953   0.9726     C
H       0.9996   0.1114   0.4186     H
H       0.9996   0.8886   0.9186     H
