data_I
_chemical_name_common  '/home/zhangsd/repos/MofS-CGCNN/ML/data/TSD/clean_cifs/CUQROX_clean'
_cell_length_a 38.50300
_cell_length_b  9.45110
_cell_length_c  9.80230
_cell_angle_alpha 90.00000
_cell_angle_beta  100.57800
_cell_angle_gamma 90.00000
_space_group_name_H-M_alt      'P 1'


loop_
_space_group_symop_operation_xyz
  'x, y, z' 

loop_
_atom_site_label
_atom_site_fract_x
_atom_site_fract_y
_atom_site_fract_z
_atom_site_type_symbol
N       0.0065   0.4466   0.0316     N
N       0.0065   0.5534   0.5316     N
C       0.0429   0.4201    0.023     C
C       0.0429   0.5799    0.523     C
H       0.0466   0.2608   0.1562     H
H       0.0466   0.7392   0.6562     H
H       0.0501   0.4242   0.3906     H
H       0.0501   0.5758   0.8906     H
C       0.0589   0.3134   0.1006     C
C       0.0589   0.6866   0.6006     C
C       0.0609   0.4993    0.941     C
C       0.0609   0.5007    0.441     C
C       0.0943   0.2815   0.0976     C
C       0.0943   0.7185   0.5976     C
C        0.096   0.4622   0.9349     C
C        0.096   0.5378   0.4349     C
H       0.1053   0.2068   0.1504     H
H       0.1053   0.7932   0.6504     H
H        0.108   0.4913   0.3737     H
H        0.108   0.5087   0.8737     H
C       0.1124   0.3584   0.0188     C
C       0.1124   0.6416   0.5188     C
C        0.151   0.3251   0.0166     C
C        0.151   0.6749   0.5166     C
H       0.1598   0.0842    0.291     H
H       0.1598   0.9158    0.791     H
O       0.1648   0.2266   0.0915     O
O       0.1648   0.7734   0.5915     O
H       0.1659   0.0023   0.4324     H
H       0.1659   0.9977   0.9324     H
O        0.167    0.394   0.9492     O
O        0.167    0.606   0.4492     O
C       0.1766   0.0633   0.3736     C
C       0.1766   0.9367   0.8736     C
H       0.1839   0.1497    0.422     H
H       0.1839   0.8503    0.922     H
H       0.2007   0.3903   0.3068     H
H       0.2007   0.6097   0.8068     H
C       0.2077   0.0078   0.8356     C
C       0.2077   0.9922   0.3356     C
Zn       0.214  0.18806  0.09078    Zn
Zn       0.214  0.81194  0.59078    Zn
H       0.2205   0.4856   0.8947     H
H       0.2205   0.5144   0.3947     H
C       0.2232   0.4225   0.3562     C
C       0.2232   0.5775   0.8562     C
N       0.2237    0.116   0.9088     N
N       0.2237    0.884   0.4088     N
N      0.22379   0.0261   0.2298     N
N      0.22379   0.9739   0.7298     N
H       0.2319   0.3574   0.4297     H
H       0.2319   0.6426   0.9297     H
N      0.24843   0.3454   0.1536     N
N      0.24843   0.6546   0.6536     N
C      0.24891    0.431   0.2583     C
C      0.24891    0.569   0.7583     C
C      0.25109    0.069   0.7417     C
C      0.25109    0.931   0.2417     C
N      0.25157   0.1546   0.8464     N
N      0.25157   0.8454   0.3464     N
H       0.2681   0.1426   0.5703     H
H       0.2681   0.8574   0.0703     H
N      0.27621   0.4739   0.7702     N
N      0.27621   0.5261   0.2702     N
N       0.2763    0.384   0.0912     N
N       0.2763    0.616   0.5912     N
C       0.2768   0.0775   0.6438     C
C       0.2768   0.9225   0.1438     C
H       0.2795   0.0144   0.1053     H
H       0.2795   0.9856   0.6053     H
Zn       0.286  0.31194  0.90922    Zn
Zn       0.286  0.68806  0.40922    Zn
C       0.2923   0.4922   0.1644     C
C       0.2923   0.5078   0.6644     C
H       0.2993   0.1097   0.6932     H
H       0.2993   0.8903   0.1932     H
H       0.3161   0.3503    0.578     H
H       0.3161   0.6497    0.078     H
C       0.3234   0.4367   0.6264     C
C       0.3234   0.5633   0.1264     C
O        0.333    0.106   0.0508     O
O        0.333    0.894   0.5508     O
H       0.3341   0.4977   0.5676     H
H       0.3341   0.5023   0.0676     H
O       0.3352   0.2734   0.9085     O
O       0.3352   0.7266   0.4085     O
H       0.3402   0.4158    0.709     H
H       0.3402   0.5842    0.209     H
C        0.349   0.1749   0.9834     C
C        0.349   0.8251   0.4834     C
C       0.3876   0.1416   0.9812     C
C       0.3876   0.8584   0.4812     C
H        0.392   0.0087   0.6263     H
H        0.392   0.9913   0.1263     H
H       0.3947   0.2932   0.8496     H
H       0.3947   0.7068   0.3496     H
C        0.404   0.0378   0.0651     C
C        0.404   0.9622   0.5651     C
C       0.4057   0.2185   0.9024     C
C       0.4057   0.7815   0.4024     C
C       0.4391   0.0007    0.059     C
C       0.4391   0.9993    0.559     C
C       0.4411   0.1866   0.8994     C
C       0.4411   0.8134   0.3994     C
H       0.4499   0.0758   0.6094     H
H       0.4499   0.9242   0.1094     H
H       0.4534   0.2392   0.8438     H
H       0.4534   0.7608   0.3438     H
C       0.4571   0.0799    0.977     C
C       0.4571   0.9201    0.477     C
N       0.4935   0.0534   0.9684     N
N       0.4935   0.9466   0.4684     N
N       0.5065   0.0534   0.5316     N
N       0.5065   0.9466   0.0316     N
C       0.5429   0.0799    0.523     C
C       0.5429   0.9201    0.023     C
H       0.5466   0.2392   0.6562     H
H       0.5466   0.7608   0.1562     H
H       0.5501   0.0758   0.8906     H
H       0.5501   0.9242   0.3906     H
C       0.5589   0.1866   0.6006     C
C       0.5589   0.8134   0.1006     C
C       0.5609   0.0007    0.441     C
C       0.5609   0.9993    0.941     C
C       0.5943   0.2185   0.5976     C
C       0.5943   0.7815   0.0976     C
C        0.596   0.0378   0.4349     C
C        0.596   0.9622   0.9349     C
H       0.6053   0.2932   0.6504     H
H       0.6053   0.7068   0.1504     H
H        0.608   0.0087   0.8737     H
H        0.608   0.9913   0.3737     H
C       0.6124   0.1416   0.5188     C
C       0.6124   0.8584   0.0188     C
C        0.651   0.1749   0.5166     C
C        0.651   0.8251   0.0166     C
H       0.6598   0.4158    0.791     H
H       0.6598   0.5842    0.291     H
O       0.6648   0.2734   0.5915     O
O       0.6648   0.7266   0.0915     O
H       0.6659   0.4977   0.9324     H
H       0.6659   0.5023   0.4324     H
O        0.667    0.106   0.4492     O
O        0.667    0.894   0.9492     O
C       0.6766   0.4367   0.8736     C
C       0.6766   0.5633   0.3736     C
H       0.6839   0.3503    0.922     H
H       0.6839   0.6497    0.422     H
H       0.7007   0.1097   0.8068     H
H       0.7007   0.8903   0.3068     H
C       0.7077   0.4922   0.3356     C
C       0.7077   0.5078   0.8356     C
Zn       0.714  0.31194  0.59078    Zn
Zn       0.714  0.68806  0.09078    Zn
H       0.7205   0.0144   0.3947     H
H       0.7205   0.9856   0.8947     H
C       0.7232   0.0775   0.8562     C
C       0.7232   0.9225   0.3562     C
N       0.7237    0.384   0.4088     N
N       0.7237    0.616   0.9088     N
N      0.72379   0.4739   0.7298     N
N      0.72379   0.5261   0.2298     N
H       0.7319   0.1426   0.9297     H
H       0.7319   0.8574   0.4297     H
N      0.74843   0.1546   0.6536     N
N      0.74843   0.8454   0.1536     N
C      0.74891    0.069   0.7583     C
C      0.74891    0.931   0.2583     C
C      0.75109    0.431   0.2417     C
C      0.75109    0.569   0.7417     C
N      0.75157   0.3454   0.3464     N
N      0.75157   0.6546   0.8464     N
H       0.7681   0.3574   0.0703     H
H       0.7681   0.6426   0.5703     H
N      0.77621   0.0261   0.2702     N
N      0.77621   0.9739   0.7702     N
N       0.7763    0.116   0.5912     N
N       0.7763    0.884   0.0912     N
C       0.7768   0.4225   0.1438     C
C       0.7768   0.5775   0.6438     C
H       0.7795   0.4856   0.6053     H
H       0.7795   0.5144   0.1053     H
Zn       0.786  0.18806  0.40922    Zn
Zn       0.786  0.81194  0.90922    Zn
C       0.7923   0.0078   0.6644     C
C       0.7923   0.9922   0.1644     C
H       0.7993   0.3903   0.1932     H
H       0.7993   0.6097   0.6932     H
H       0.8161   0.1497    0.078     H
H       0.8161   0.8503    0.578     H
C       0.8234   0.0633   0.1264     C
C       0.8234   0.9367   0.6264     C
O        0.833    0.394   0.5508     O
O        0.833    0.606   0.0508     O
H       0.8341   0.0023   0.0676     H
H       0.8341   0.9977   0.5676     H
O       0.8352   0.2266   0.4085     O
O       0.8352   0.7734   0.9085     O
H       0.8402   0.0842    0.209     H
H       0.8402   0.9158    0.709     H
C        0.849   0.3251   0.4834     C
C        0.849   0.6749   0.9834     C
C       0.8876   0.3584   0.4812     C
C       0.8876   0.6416   0.9812     C
H        0.892   0.4913   0.1263     H
H        0.892   0.5087   0.6263     H
H       0.8947   0.2068   0.3496     H
H       0.8947   0.7932   0.8496     H
C        0.904   0.4622   0.5651     C
C        0.904   0.5378   0.0651     C
C       0.9057   0.2815   0.4024     C
C       0.9057   0.7185   0.9024     C
C       0.9391   0.4993    0.559     C
C       0.9391   0.5007    0.059     C
C       0.9411   0.3134   0.3994     C
C       0.9411   0.6866   0.8994     C
H       0.9499   0.4242   0.1094     H
H       0.9499   0.5758   0.6094     H
H       0.9534   0.2608   0.3438     H
H       0.9534   0.7392   0.8438     H
C       0.9571   0.4201    0.477     C
C       0.9571   0.5799    0.977     C
N       0.9935   0.4466   0.4684     N
N       0.9935   0.5534   0.9684     N
