data_I
_chemical_name_common  '/home/zhangsd/repos/MofS-CGCNN/ML/data/TSD/clean_cifs/CUQTAL_clean'
_cell_length_a 28.91230
_cell_length_b 20.77060
_cell_length_c 29.72840
_cell_angle_alpha 90.00000
_cell_angle_beta  101.22400
_cell_angle_gamma 90.00000
_space_group_name_H-M_alt      'P 1'


loop_
_space_group_symop_operation_xyz
  'x, y, z' 

loop_
_atom_site_label
_atom_site_fract_x
_atom_site_fract_y
_atom_site_fract_z
_atom_site_type_symbol
H       0.0075   0.0713      0.8     H
H       0.0075   0.4287      0.3     H
C       0.0085     0.63   0.5485     C
C       0.0085     0.87   0.0485     C
O      0.00971    0.645  0.50399     O
O      0.00971    0.855  0.00399     O
C       0.0161   0.5956   0.6408     C
C       0.0161   0.9044   0.1408     C
C       0.0234   0.5789   0.6914     C
C       0.0234   0.9211   0.1914     C
H       0.0239   0.0892   0.2645     H
H       0.0239   0.4108   0.7645     H
C       0.0252   0.1242   0.8831     C
C       0.0252   0.3758   0.3831     C
C       0.0263   0.6795    0.742     C
C       0.0263   0.8205    0.242     C
C       0.0273   0.1833    0.762     C
C       0.0273   0.3167    0.262     C
C        0.028   0.1415   0.9292     C
C        0.028   0.3585   0.4292     C
H       0.0293   0.1798   0.0537     H
H       0.0293   0.3202   0.5537     H
C       0.0332   0.1719   0.0221     C
C       0.0332   0.3281   0.5221     C
H       0.0342   0.1988   0.7325     H
H       0.0342   0.3012   0.2325     H
H       0.0382   0.7415   0.2839     H
H       0.0382   0.7585   0.7839     H
H       0.0401   0.2126   0.0081     H
H       0.0401   0.2874   0.5081     H
H       0.0407   0.1395   0.7674     H
H       0.0407   0.3605   0.2674     H
H       0.0421   0.5388   0.6973     H
H       0.0421   0.9612   0.1973     H
H       0.0423   0.1949   0.2586     H
H       0.0423   0.3051   0.7586     H
C       0.0487   0.5992    0.573     C
C       0.0487   0.9008    0.073     C
C        0.049    0.633   0.7207     C
C        0.049    0.867   0.2207     C
C       0.0519   0.2274   0.8003     C
C       0.0519   0.2726   0.3003     C
C       0.0528   0.5827   0.6179     C
C       0.0528   0.9173   0.1179     C
C       0.0531   0.7272   0.7683     C
C       0.0531   0.7728   0.2683     C
O       0.0544   0.0104   0.0277     O
O       0.0544   0.4896   0.5277     O
C       0.0554   0.2085   0.2889     C
C       0.0554   0.2915   0.7889     C
H       0.0558   0.1616   0.9454     H
H       0.0558   0.3384   0.4454     H
C       0.0568   0.0754   0.2687     C
C       0.0568   0.4246   0.7687     C
H       0.0583   0.0282   0.2685     H
H       0.0583   0.4718   0.7685     H
H       0.0592   0.1417   0.0223     H
H       0.0592   0.3583   0.5223     H
O      0.05921   0.1068   0.4189     O
O      0.05921   0.3932   0.9189     O
H       0.0667   0.1077   0.8355     H
H       0.0667   0.3923   0.3355     H
C       0.0677   0.1372   0.8618     C
C       0.0677   0.3628   0.3618     C
C       0.0708    0.207    0.845     C
C       0.0708    0.293    0.345     C
H       0.0709   0.0924   0.2437     H
H       0.0709   0.4076   0.7437     H
C       0.0777   0.1629   0.3207     C
C       0.0777   0.3371   0.8207     C
H       0.0807   0.5624   0.6336     H
H       0.0807   0.9376   0.1336     H
O       0.0826   0.0994    0.312     O
O       0.0826   0.4006    0.812     O
C       0.0858   0.5275   0.5294     C
C       0.0858   0.9725   0.0294     C
H       0.0865   0.0042   0.4687     H
H       0.0865   0.4958   0.9687     H
O      0.08696   0.5855   0.5506     O
O      0.08696   0.9145   0.0506     O
C       0.0935   0.2488   0.3765     C
C       0.0935   0.2512   0.8765     C
H       0.0966   0.1273   0.8846     H
H       0.0966   0.3727   0.3846     H
C       0.0972   0.1847   0.3643     C
C       0.0972   0.3153   0.8643     C
H       0.0978   0.0476   0.9625     H
H       0.0978   0.4524   0.4625     H
C        0.098   0.6362   0.7248     C
C        0.098   0.8638   0.2248     C
C       0.1009   0.7284   0.7715     C
C       0.1009   0.7716   0.2715     C
C       0.1016   0.1083   0.4229     C
C       0.1016   0.3917   0.9229     C
H       0.1068   0.2377   0.9067     H
H       0.1068   0.2623   0.4067     H
H       0.1136   0.6042   0.7105     H
H       0.1136   0.8958   0.2105     H
C       0.1184   0.0178   0.4778     C
C       0.1184   0.4822   0.9778     C
O       0.1242    0.143    0.396     O
O       0.1242    0.357    0.896     O
C       0.1242   0.6848   0.7491     C
C       0.1242   0.8152   0.2491     C
C        0.126   0.0242   0.9734     C
C        0.126   0.4758   0.4734     C
O      0.12685     0.72  0.29525     O
O      0.12685     0.78  0.79525     O
C       0.1282    0.518    0.509     C
C       0.1282    0.982    0.009     C
C       0.1348   0.0719   0.4581     C
C       0.1348   0.4281   0.9581     C
H       0.1385   0.5527   0.0249     H
H       0.1385   0.9473   0.5249     H
H       0.1425    0.608   0.3153     H
H       0.1425    0.892   0.8153     H
C       0.1497   0.5161   0.0111     C
C       0.1497   0.9839   0.5111     C
C       0.1535   0.7335   0.3359     C
C       0.1535   0.7665   0.8359     C
O       0.1552   0.7147   0.8542     O
O       0.1552   0.7853   0.3542     O
H        0.162   0.0613   0.9284     H
H        0.162   0.4387   0.4284     H
C       0.1643   0.0326   0.9536     C
C       0.1643   0.4674   0.4536     C
C       0.1676   0.6144   0.3408     C
C       0.1676   0.8856   0.8408     C
C       0.1702   0.5498   0.5251     C
C       0.1702   0.9502   0.0251     C
O       0.1719   0.6937   0.7523     O
O       0.1719   0.8063   0.2523     O
H        0.173   0.5788   0.5501     H
H        0.173   0.9212   0.0501     H
H       0.1737   0.6622   0.6891     H
H       0.1737   0.8378   0.1891     H
C       0.1799   0.6759   0.3568     C
C       0.1799   0.8241   0.8568     C
C       0.1817     0.09    0.472     C
C       0.1817     0.41    0.972     C
H       0.1834   0.5203   0.3522     H
H       0.1834   0.9797   0.8522     H
C       0.1925   0.5625   0.3626     C
C       0.1925   0.9375   0.8626     C
C       0.1937   0.6589   0.7197     C
C       0.1937   0.8411   0.2197     C
H       0.1938   0.1267    0.459     H
H       0.1938   0.3733    0.959     H
N      0.19461    0.001  0.52431     N
N      0.19461    0.499  0.02431     N
H       0.1973   0.6136   0.7287     H
H       0.1973   0.8864   0.2287     H
N       0.2051   0.0016   0.9684     N
N       0.2051   0.4984   0.4684     N
C       0.2077   0.5386   0.5042     C
C       0.2077   0.9614   0.0042     C
C       0.2104   0.0533   0.5051     C
C       0.2104   0.4467   0.0051     C
C       0.2175   0.6839   0.3928     C
C       0.2175   0.8161   0.8928     C
H       0.2247   0.6776   0.7191     H
H       0.2247   0.8224   0.2191     H
H       0.2271   0.7256    0.404     H
H       0.2271   0.7744    0.904     H
N       0.2289   0.5693   0.3976     N
N       0.2289   0.9307   0.8976     N
H       0.2366   0.5602   0.5154     H
H       0.2366   0.9398   0.0154     H
Cu      0.2386  0.54932  0.07284    Cu
Cu      0.2386  0.95068  0.57284    Cu
C        0.241   0.6294   0.4122     C
C        0.241   0.8706   0.9122     C
H       0.2425   0.0655   0.5146     H
H       0.2425   0.4345   0.0146     H
H       0.2519   0.1197   0.9891     H
H       0.2519   0.3803   0.4891     H
H       0.2555   0.6304   0.9953     H
H       0.2555   0.8696   0.4953     H
Cu     0.25988  0.00369  0.93526    Cu
Cu     0.25988  0.49631  0.43526    Cu
H       0.2669   0.6348   0.4369     H
H       0.2669   0.8652   0.9369     H
C       0.2825    0.105   0.0029     C
C       0.2825    0.395   0.5029     C
C       0.2827   0.6038   0.0003     C
C       0.2827   0.8962   0.5003     C
N       0.2833   0.6005  0.12047     N
N       0.2833   0.8995  0.62047     N
N       0.2861    0.557   0.0307     N
N       0.2861    0.943   0.5307     N
H       0.2869   0.6558    0.787     H
H       0.2869   0.8442    0.287     H
H       0.2877   0.5356   0.1696     H
H       0.2877   0.9644   0.6696     H
H       0.2905   0.6733   0.0801     H
H       0.2905   0.8267   0.5801     H
H       0.2965   0.1805   0.0471     H
H       0.2965   0.3195   0.5471     H
N       0.2983   0.0504   0.9878     N
N       0.2983   0.4496   0.4878     N
C       0.2985   0.5769   0.1624     C
C       0.2985   0.9231   0.6624     C
C       0.2998   0.6574   0.1105     C
C       0.2998   0.8426   0.6105     C
C       0.3087   0.1413   0.0377     C
C       0.3087   0.3587   0.5377     C
H       0.3116    0.591   0.7745     H
H       0.3116    0.909   0.2745     H
H       0.3157   0.6514   0.9552     H
H       0.3157   0.8486   0.4552     H
C       0.3172   0.6347   0.7868     C
C       0.3172   0.8653   0.2868     C
C       0.3178   0.6155   0.9753     C
C       0.3178   0.8845   0.4753     C
C       0.3233   0.5176   0.0359     C
C       0.3233   0.9824   0.5359     C
H       0.3254   0.0166   0.5574     H
H       0.3254   0.4834   0.0574     H
C       0.3296    0.695   0.1421     C
C       0.3296    0.805   0.6421     C
C       0.3298   0.6107   0.1964     C
C       0.3298   0.8893   0.6964     C
H       0.3356   0.6326   0.8181     H
H       0.3356   0.8674   0.3181     H
H       0.3398   0.7362   0.1341     H
H       0.3398   0.7638   0.6341     H
H       0.3407   0.5927   0.2259     H
H       0.3407   0.9073   0.7259     H
C       0.3415   0.0287   0.0087     C
C       0.3415   0.4713   0.5087     C
O       0.3421   0.6699   0.7593     O
O       0.3421   0.8301   0.2593     O
C       0.3441   0.6703   0.1855     C
C       0.3441   0.8297   0.6855     C
C       0.3529   0.1196   0.0587     C
C       0.3529   0.3804   0.5587     C
H       0.3529   0.5102   0.4981     H
H       0.3529   0.9898   0.9981     H
C       0.3553   0.5744     0.98     C
C       0.3553   0.9256     0.48     C
C       0.3586   0.5249   0.0113     C
C       0.3586   0.9751   0.5113     C
O      0.36192   0.2065  0.10951     O
O      0.36192   0.2935  0.60951     O
C       0.3694   0.0607   0.0443     C
C       0.3694   0.4393   0.5443     C
C       0.3749   0.7088   0.2218     C
C       0.3749   0.7912   0.7218     C
H       0.3802   0.1863   0.2613     H
H       0.3802   0.3137   0.7613     H
H       0.3848   0.0036   0.5159     H
C       0.3848   0.1569   0.0951     C
C       0.3848   0.3431   0.5951     C
H       0.3848   0.4964   0.0159     H
H       0.3853   0.1789   0.5956     H
H       0.3853   0.3211   0.0956     H
O       0.3858   0.6929   0.2619     O
O       0.3858   0.8071   0.7619     O
H       0.3867   0.1117   0.2506     H
H       0.3867   0.3883   0.7506     H
C       0.3874   0.6526     0.76     C
C       0.3874   0.8474     0.26     C
O       0.3887   0.7361    0.705     O
O       0.3887   0.7639    0.205     O
C       0.3892   0.2493   0.1416     C
C       0.3892   0.2507   0.6416     C
O       0.3913   0.1698    0.198     O
O       0.3913   0.3302    0.698     O
H       0.3916   0.5727   0.7999     H
H       0.3916   0.9273   0.2999     H
C       0.3921    0.587   0.9529     C
C       0.3921    0.913   0.4529     C
O       0.3938   0.6339   0.9306     O
O       0.3938   0.8661   0.4306     O
H       0.3954   0.0638   0.6182     H
H       0.3954   0.4362   0.1182     H
C       0.3963     0.19   0.6269     C
C       0.3963     0.31   0.1269     C
C        0.398   0.1554   0.2465     C
C        0.398   0.3446   0.7465     C
H        0.399   0.0436    0.059     H
H        0.399   0.4564    0.559     H
C       0.4032   0.2305   0.1869     C
C       0.4032   0.2695   0.6869     C
C       0.4091   0.5998   0.7836     C
C       0.4091   0.9002   0.2836     C
C       0.4127   0.6894   0.7352     C
C       0.4127   0.8106   0.2352     C
C       0.4196    0.144   0.6575     C
C       0.4196    0.356   0.1575     C
O      0.42469   0.5414  0.95713     O
O      0.42469   0.9586  0.45713     O
C       0.4249   0.0756   0.6396     C
H       0.4249   0.0893   0.4757     H
H       0.4249   0.4107   0.9757     H
C       0.4249   0.4244   0.1396     C
H       0.4254   0.5151   0.8731     H
H       0.4254   0.9849   0.3731     H
O       0.4255   0.1442   0.1088     O
O       0.4255   0.3558   0.6088     O
C       0.4275   0.2246   0.7173     C
C       0.4275   0.2754   0.2173     C
H       0.4289   0.0453   0.6658     H
H       0.4289   0.4547   0.1658     H
H       0.4299   0.0991   0.5531     H
H       0.4299   0.4009   0.0531     H
H       0.4316   0.1584   0.2603     H
H       0.4316   0.3416   0.7603     H
C       0.4364   0.1629    0.703     C
C       0.4364   0.3371    0.203     C
H       0.4381   0.2362   0.7485     H
H       0.4381   0.2638   0.2485     H
H       0.4448   0.1596   0.4908     H
H       0.4448   0.3404   0.9908     H
C       0.4509   0.1196   0.4755     C
C       0.4509   0.3804   0.9755     C
H       0.4533    0.129   0.4437     H
H       0.4533    0.371   0.9437     H
C       0.4546   0.5333   0.8877     C
C       0.4546   0.9667   0.3877     C
H        0.455   0.0737   0.7314     H
H        0.455   0.4263   0.2314     H
H       0.4557   0.0083   0.3061     H
H       0.4557   0.4917   0.8061     H
C        0.457   0.5857    0.784     C
C        0.457   0.9143    0.284     C
H       0.4581   0.1295   0.7691     H
H       0.4581   0.3705   0.2691     H
C       0.4591   0.6779   0.7347     C
C       0.4591   0.8221   0.2347     C
C       0.4596    0.083   0.5683     C
C       0.4596    0.417   0.0683     C
C        0.461   0.5506   0.9322     C
C        0.461   0.9494   0.4322     C
C       0.4647   0.1189   0.7385     C
C       0.4647   0.3811   0.2385     C
C       0.4661   0.0668   0.6151     C
C       0.4661   0.4332   0.1151     C
H       0.4757   0.7047   0.7173     H
H       0.4757   0.7953   0.2173     H
C       0.4784    0.528   0.8115     C
C       0.4784    0.972   0.3115     C
C       0.4824   0.6253   0.7603     C
C       0.4824   0.8747   0.2603     C
C       0.4905   0.5419   0.8623     C
C       0.4905   0.9581   0.3623     C
H       0.4927   0.0147   0.6992     H
H       0.4927   0.4853   0.1992     H
O      0.49386   0.0918  0.49902     O
O      0.49386   0.4082  0.99902     O
C       0.4956   0.0759   0.5437     C
C       0.4956   0.4241   0.0437     C
C       0.5044   0.5759   0.9563     C
C       0.5044   0.9241   0.4563     C
O      0.50614   0.5918  0.00098     O
O      0.50614   0.9082  0.50098     O
H       0.5073   0.5147   0.8008     H
H       0.5073   0.9853   0.3008     H
C       0.5095   0.0419   0.6377     C
C       0.5095   0.4581   0.1377     C
C       0.5176   0.1253   0.7397     C
C       0.5176   0.3747   0.2397     C
C       0.5216    0.028   0.6885     C
C       0.5216    0.472   0.1885     C
H       0.5243   0.2047   0.7827     H
H       0.5243   0.2953   0.2827     H
C       0.5339   0.5668   0.8849     C
C       0.5339   0.9332   0.3849     C
C       0.5353   0.6189   0.7615     C
C       0.5353   0.8811   0.2615     C
C        0.539   0.0506   0.5678     C
C        0.539   0.4494   0.0678     C
C       0.5404    0.583   0.9317     C
C       0.5404    0.917   0.4317     C
C       0.5409   0.1779   0.7653     C
C       0.5409   0.3221   0.2653     C
H       0.5419   0.6295   0.7309     H
H       0.5419   0.8705   0.2309     H
C        0.543   0.0857    0.716     C
C        0.543   0.4143    0.216     C
H       0.5443   0.5083   0.1939     H
H       0.5443   0.9917   0.6939     H
H        0.545   0.5737   0.7686     H
H        0.545   0.9263   0.2686     H
C       0.5454   0.0333   0.6123     C
C       0.5454   0.4667   0.1123     C
H       0.5467    0.629   0.0563     H
H       0.5467    0.871   0.5563     H
C       0.5491   0.6196   0.0245     C
C       0.5491   0.8804   0.5245     C
H       0.5552   0.6596   0.0092     H
H       0.5552   0.8404   0.5092     H
H       0.5619   0.7362   0.7515     H
H       0.5619   0.7638   0.2515     H
C       0.5636   0.6629    0.797     C
C       0.5636   0.8371    0.297     C
H       0.5684   0.6584   0.2397     H
H       0.5684   0.8416   0.7397     H
H       0.5701   0.5991   0.9469     H
H       0.5701   0.9009   0.4469     H
H       0.5711   0.5453   0.8342     H
H       0.5711   0.9547   0.3342     H
C       0.5725   0.7246   0.7827     C
C       0.5725   0.7754   0.2827     C
O       0.5745   0.6442   0.3912     O
O       0.5745   0.8558   0.8912     O
H       0.5746   0.0151   0.6269     H
H       0.5746   0.4849   0.1269     H
C       0.5751   0.5756   0.8604     C
H       0.5751   0.5893   0.0243     H
H       0.5751   0.9107   0.5243     H
C       0.5751   0.9244   0.3604     C
O      0.57531   0.0414  0.54287     O
O      0.57531   0.4586  0.04287     O
C       0.5804    0.644   0.8425     C
C       0.5804    0.856   0.3425     C
C       0.5873   0.1894   0.7648     C
C       0.5873   0.3106   0.2648     C
C       0.5909   0.0998   0.7164     C
C       0.5909   0.4002   0.2164     C
C       0.5968   0.7305   0.3131     C
C       0.5968   0.7695   0.8131     C
H        0.601   0.5436    0.441     H
H        0.601   0.9564    0.941     H
C        0.602   0.6554   0.2535     C
C        0.602   0.8446   0.7535     C
C       0.6037     0.69   0.8731     C
C       0.6037     0.81   0.3731     C
H       0.6046   0.5638   0.8818     H
H       0.6046   0.9362   0.3818     H
O       0.6062   0.1339   0.5694     O
O       0.6062   0.3661   0.0694     O
C       0.6079    0.087   0.5471     C
C       0.6079    0.413   0.0471     C
H       0.6084   0.0727   0.7001     H
H       0.6084   0.4273   0.2001     H
O       0.6087   0.6698    0.302     O
O       0.6087   0.8302    0.802     O
C       0.6108   0.7493   0.3584     C
C       0.6108   0.7507   0.8584     C
O       0.6113   0.2361    0.795     O
O       0.6113   0.2639    0.295     O
C       0.6126   0.1526     0.74     C
C       0.6126   0.3474     0.24     C
H       0.6133   0.6117   0.2494     H
H       0.6133   0.8883   0.7494     H
O       0.6142   0.1929   0.2381     O
O       0.6142   0.3071   0.7381     O
H       0.6147   0.6789   0.9044     H
H       0.6147   0.8211   0.4044     H
H       0.6152   0.5036   0.9841     H
C       0.6152   0.6569   0.4049     C
C       0.6152   0.8431   0.9049     C
H       0.6152   0.9964   0.4841     H
H       0.6198   0.6863   0.2387     H
H       0.6198   0.8137   0.7387     H
C       0.6251   0.2088   0.2782     C
C       0.6251   0.2912   0.7782     C
C       0.6306   0.5607   0.4557     C
C       0.6306   0.9393   0.9557     C
O      0.63808   0.7065  0.39049     O
O      0.63808   0.7935  0.89049     O
C       0.6414   0.0249   0.4887     C
C       0.6414   0.4751   0.9887     C
C       0.6447   0.0744     0.52     C
C       0.6447   0.4256     0.02     C
H       0.6471   0.0102   0.0019     H
H       0.6471   0.4898   0.5019     H
C       0.6471   0.6196   0.4413     C
C       0.6471   0.8804   0.9413     C
C       0.6559   0.1703   0.3145     C
C       0.6559   0.3297   0.8145     C
O       0.6579   0.1699   0.7407     O
O       0.6579   0.3301   0.2407     O
C       0.6585   0.5287   0.4913     C
C       0.6585   0.9713   0.9913     C
H       0.6593   0.0927   0.2741     H
H       0.6593   0.4073   0.7741     H
H       0.6602   0.2362   0.3659     H
H       0.6602   0.2638   0.8659     H
H       0.6644   0.1326   0.6819     H
H       0.6644   0.3674   0.1819     H
C       0.6702   0.1107   0.3036     C
C       0.6702   0.3893   0.8036     C
C       0.6704    0.195   0.3579     C
C       0.6704    0.305   0.8579     C
H       0.6746   0.5166   0.9426     H
H       0.6746   0.9834   0.4426     H
C       0.6767   0.0176   0.4641     C
C       0.6767   0.4824   0.9641     C
C       0.6822   0.1155   0.5247     C
C       0.6822   0.3845   0.0247     C
C       0.6828   0.1347   0.7132     C
C       0.6828   0.3653   0.2132     C
H       0.6843   0.1514   0.5448     H
H       0.6843   0.3486   0.0448     H
H       0.6884    0.091   0.7255     H
H       0.6884    0.409   0.2255     H
C       0.6913   0.6413   0.4623     C
C       0.6913   0.8587   0.9623     C
C       0.7002   0.1574   0.3895     C
C       0.7002   0.3426   0.8895     C
C       0.7015   0.0769   0.3376     C
C       0.7015   0.4231   0.8376     C
N       0.7017   0.5504   0.5122     N
N       0.7017   0.9496   0.0122     N
H       0.7035   0.6805   0.4529     H
H       0.7035   0.8195   0.9529     H
H       0.7095   0.1733   0.4199     H
H       0.7095   0.3267   0.9199     H
H       0.7123   0.0356   0.3304     H
H       0.7123   0.4644   0.8304     H
H       0.7131   0.1558    0.713     H
H       0.7131   0.3442    0.213     H
N       0.7139    0.057   0.4693     N
N       0.7139    0.443   0.9693     N
N       0.7167   0.1005  0.37953     N
N       0.7167   0.3995  0.87953     N
C       0.7173   0.1038   0.4997     C
C       0.7173   0.3962   0.9997     C
C       0.7175    0.605   0.4971     C
C       0.7175    0.895   0.9971     C
H       0.7331   0.1348   0.0631     H
H       0.7331   0.3652   0.5631     H
Cu     0.74012  0.50369  0.56474    Cu
Cu     0.74012  0.99631  0.06474    Cu
H       0.7445   0.1304   0.5047     H
H       0.7445   0.3696   0.0047     H
H       0.7481   0.6197   0.5109     H
H       0.7481   0.8803   0.0109     H
H       0.7575   0.5655   0.9854     H
H       0.7575   0.9345   0.4854     H
C        0.759   0.1294   0.0878     C
C        0.759   0.3706   0.5878     C
Cu      0.7614  0.04932  0.42716    Cu
Cu      0.7614  0.45068  0.92716    Cu
H       0.7634   0.0602   0.9846     H
H       0.7634   0.4398   0.4846     H
N       0.7711   0.0693   0.1024     N
N       0.7711   0.4307   0.6024     N
H       0.7729   0.2256    0.096     H
H       0.7729   0.2744    0.596     H
H       0.7753   0.1776   0.7809     H
H       0.7753   0.3224   0.2809     H
C       0.7825   0.1839   0.1072     C
C       0.7825   0.3161   0.6072     C
C       0.7896   0.5533   0.9949     C
C       0.7896   0.9467   0.4949     C
C       0.7923   0.0386   0.9958     C
C       0.7923   0.4614   0.4958     C
N       0.7949   0.5016   0.5316     N
N       0.7949   0.9984   0.0316     N
H       0.8027   0.1136   0.7713     H
H       0.8027   0.3864   0.2713     H
N      0.80539    0.501  0.97569     N
N      0.80539    0.999  0.47569     N
H       0.8062   0.6267    0.041     H
H       0.8062   0.8733    0.541     H
C       0.8063   0.1589   0.7803     C
C       0.8063   0.3411   0.2803     C
C       0.8075   0.0625   0.1374     C
C       0.8075   0.4375   0.6374     C
H       0.8166   0.0203   0.1478     H
H       0.8166   0.4797   0.6478     H
C       0.8183     0.59    0.028     C
C       0.8183     0.91    0.528     C
C       0.8201   0.1759   0.1432     C
C       0.8201   0.3241   0.6432     C
H       0.8263   0.1622   0.8109     H
H       0.8263   0.3378   0.3109     H
H        0.827   0.0788   0.9499     H
H        0.827   0.4212   0.4499     H
O       0.8281   0.1937   0.7477     O
O       0.8281   0.3063   0.2477     O
C       0.8298   0.0498   0.9749     C
C       0.8298   0.4502   0.4749     C
C       0.8324   0.1144   0.1592     C
C       0.8324   0.3856   0.6592     C
C       0.8357   0.5326   0.5464     C
C       0.8357   0.9674   0.0464     C
H        0.838   0.5613   0.5716     H
H        0.838   0.9387   0.0716     H
O       0.8448   0.2147   0.6458     O
O       0.8448   0.2853   0.1458     O
C       0.8465   0.2335   0.1641     C
C       0.8465   0.2665   0.6641     C
C       0.8503   0.0161   0.4889     C
C       0.8503   0.4839   0.9889     C
H       0.8575    0.108   0.1847     H
H       0.8575    0.392   0.6847     H
H       0.8615   0.0527   0.4751     H
H       0.8615   0.4473   0.9751     H
C       0.8652   0.5719   0.0419     C
C       0.8652   0.9281   0.5419     C
C       0.8718    0.018    0.991     C
C       0.8718    0.482    0.491     C
O      0.87315     0.22  0.20475     O
O      0.87315     0.28  0.70475     O
C        0.874   0.5242   0.5266     C
C        0.874   0.9758   0.0266     C
C       0.8758   0.1848   0.7509     C
C       0.8758   0.3152   0.2509     C
O       0.8758    0.643    0.104     O
O       0.8758    0.857    0.604     O
C       0.8816   0.5178   0.0222     C
C       0.8816   0.9822   0.5222     C
H       0.8864   0.1042   0.7895     H
H       0.8864   0.3958   0.2895     H
H       0.8932   0.7377   0.5933     H
H       0.8932   0.7623   0.0933     H
C       0.8984   0.6083   0.0771     C
C       0.8984   0.8917   0.5771     C
C       0.8991   0.2284   0.7285     C
C       0.8991   0.2716   0.2285     C
C        0.902   0.1362   0.7752     C
C        0.902   0.3638   0.2752     C
H       0.9022   0.5476   0.5375     H
H       0.9022   0.9524   0.0375     H
C       0.9028   0.6847   0.1357     C
C       0.9028   0.8153   0.6357     C
H       0.9034   0.6273   0.6154     H
H       0.9034   0.8727   0.1154     H
C       0.9065   0.7488   0.1235     C
C       0.9065   0.7512   0.6235     C
O      0.91304   0.0855   0.9494     O
O      0.91304   0.4145   0.4494     O
H       0.9135   0.5042   0.0313     H
H       0.9135   0.9958   0.5313     H
C       0.9142   0.0275   0.9706     C
C       0.9142   0.4725   0.4706     C
O       0.9174   0.5994    0.188     O
O       0.9174   0.9006    0.688     O
H       0.9193   0.0624   0.8664     H
H       0.9193   0.4376   0.3664     H
C       0.9223   0.6629   0.1793     C
C       0.9223   0.8371   0.6793     C
H       0.9291   0.5924   0.2563     H
H       0.9291   0.9076   0.7563     H
C       0.9292    0.707    0.655     C
C       0.9292    0.793    0.155     C
C       0.9323   0.6372   0.6382     C
C       0.9323   0.8628   0.1382     C
H       0.9333   0.6077   0.6645     H
H       0.9333   0.8923   0.1645     H
O      0.94079   0.6068   0.0811     O
O      0.94079   0.8932   0.5811     O
H       0.9408   0.6417   0.4777     H
H       0.9408   0.8583   0.9777     H
H       0.9417   0.5282   0.2315     H
H       0.9417   0.9718   0.7315     H
C       0.9432   0.5754   0.2313     C
C       0.9432   0.9246   0.7313     C
H       0.9442   0.6616   0.5546     H
H       0.9442   0.8384   0.0546     H
C       0.9446   0.7085   0.2111     C
C       0.9446   0.7915   0.7111     C
O       0.9456   0.5104   0.4723     O
O       0.9456   0.9896   0.9723     O
C       0.9469   0.2272   0.7317     C
C       0.9469   0.2728   0.2317     C
C       0.9472   0.0827   0.8821     C
C       0.9472   0.4173   0.3821     C
C       0.9481   0.7274   0.6997     C
C       0.9481   0.7726   0.1997     C
C        0.951    0.133   0.7793     C
C        0.951    0.367   0.2793     C
C       0.9513   0.0992    0.927     C
C       0.9513   0.4008    0.427     C
H       0.9577   0.6949   0.2414     H
H       0.9577   0.8051   0.7414     H
H       0.9579   0.0388   0.8027     H
H       0.9579   0.4612   0.3027     H
H       0.9593   0.6395   0.7326     H
H       0.9593   0.8605   0.2326     H
H       0.9599   0.7126   0.4919     H
H       0.9599   0.7874   0.9919     H
H       0.9618   0.2415   0.2161     H
H       0.9618   0.2585   0.7161     H
H       0.9658   0.6988   0.7675     H
H       0.9658   0.8012   0.2675     H
C       0.9668   0.6719   0.4779     C
C       0.9668   0.8281   0.9779     C
H       0.9707   0.6798   0.4463     H
H       0.9707   0.8202   0.9463     H
C        0.972   0.6415   0.5708     C
C        0.972   0.8585   0.0708     C
C       0.9727   0.6833    0.738     C
C       0.9727   0.8167    0.238     C
C       0.9737   0.1795    0.758     C
C       0.9737   0.3205    0.258     C
C       0.9748   0.6242   0.6169     C
C       0.9748   0.8758   0.1169     C
H       0.9761   0.5892   0.2355     H
H       0.9761   0.9108   0.7355     H
C       0.9766   0.0789   0.8086     C
C       0.9766   0.4211   0.3086     C
C       0.9839   0.0956   0.8592     C
C       0.9839   0.4044   0.3592     C
O      0.99029    0.145  0.99601     O
O      0.99029    0.355  0.49601     O
C       0.9915     0.13   0.9515     C
C       0.9915     0.37   0.4515     C
H       0.9925   0.5713      0.7     H
H       0.9925   0.9287      0.2     H
