data_I
_chemical_name_common  '/home/zhangsd/repos/MofS-CGCNN/ML/data/TSD/clean_cifs/CUTBOK_clean'
_cell_length_a 31.64910
_cell_length_b 14.91430
_cell_length_c 13.26560
_cell_angle_alpha 90.00000
_cell_angle_beta  96.46600
_cell_angle_gamma 90.00000
_space_group_name_H-M_alt      'P 1'


loop_
_space_group_symop_operation_xyz
  'x, y, z' 

loop_
_atom_site_label
_atom_site_fract_x
_atom_site_fract_y
_atom_site_fract_z
_atom_site_type_symbol
C      0.00246  0.28895  0.62054     C
C      0.00246  0.71105  0.12054     C
C      0.00261  0.38153  0.88118     C
C      0.00261  0.61847  0.38118     C
C      0.02964  0.43619  0.59061     C
C      0.02964  0.56381  0.09061     C
C      0.03979  0.25103  0.59405     C
C      0.03979  0.74897  0.09405     C
C      0.04206  0.42264  0.85511     C
C      0.04206  0.57736  0.35511     C
N      0.04451  0.48814  0.33747     N
N      0.04451  0.51186  0.83747     N
C      0.06695  0.39828  0.56413     C
C      0.06695  0.60172  0.06413     C
C      0.07204   0.3057  0.56584     C
C      0.07204   0.6943  0.06584     C
C      0.08156   0.3839  0.84233     C
C      0.08156   0.6161  0.34233     C
N      0.08259  0.46669  0.31866     N
N      0.08259  0.53331  0.81866     N
N      0.10534  0.45642  0.82295     N
N      0.10534  0.54358  0.32295     N
C      0.11212   0.2666   0.5309     C
C      0.11212   0.7334   0.0309     C
O      0.12167   0.1883   0.5448     O
O      0.12167   0.8117   0.0448     O
O      0.13583   0.3171   0.4858     O
O      0.13583   0.6829   0.9858     O
C      0.14989  0.45872  0.81119     C
C      0.14989  0.54128  0.31119     C
C      0.16751  0.39735  0.74903     C
C      0.16751  0.60265  0.24903     C
C      0.17525  0.47526  0.36106     C
C      0.17525  0.52474  0.86106     C
Tb     0.18948  0.20545  0.46936    Tb
Tb     0.18948  0.79455  0.96936    Tb
O      0.20445   0.2761   0.6288     O
O      0.20445   0.7239   0.1288     O
C      0.21049  0.40201  0.73674     C
C      0.21049  0.59799  0.23674     C
O      0.21508   0.0854    0.583     O
O      0.21508   0.9146    0.083     O
C      0.21824   0.4706  0.34877     C
C      0.21824   0.5294  0.84877     C
C      0.22801  0.33958  0.66284     C
C      0.22801  0.66042  0.16284     C
O      0.22948   0.3328   0.4398     O
O      0.22948   0.6672   0.9398     O
O      0.23482   0.1451   0.3569     O
O      0.23482   0.8549   0.8569     O
C      0.23586  0.46803  0.78661     C
C      0.23586  0.53197  0.28661     C
C      0.24561   0.3998   0.4051     C
C      0.24561   0.6002   0.9051     C
C      0.25439   0.1002   0.5949     C
C      0.25439   0.8998   0.0949     C
C      0.26414  0.03197  0.21339     C
C      0.26414  0.96803  0.71339     C
O      0.26518   0.3549   0.6431     O
O      0.26518   0.6451   0.1431     O
O      0.27052   0.1672   0.5602     O
O      0.27052   0.8328   0.0602     O
C      0.27199  0.16042  0.33716     C
C      0.27199  0.83958  0.83716     C
C      0.28176   0.0294  0.65123     C
C      0.28176   0.9706  0.15123     C
O      0.28492   0.4146    0.417     O
O      0.28492   0.5854    0.917     O
C      0.28951  0.09799  0.26326     C
C      0.28951  0.90201  0.76326     C
O      0.29555   0.2239   0.3712     O
O      0.29555   0.7761   0.8712     O
Tb     0.31052  0.29455  0.53064    Tb
Tb     0.31052  0.70545  0.03064    Tb
C      0.32475  0.02474  0.63894     C
C      0.32475  0.97526  0.13894     C
C      0.33249  0.10265  0.25097     C
C      0.33249  0.89735  0.75097     C
C      0.35011  0.04128  0.18881     C
C      0.35011  0.95872  0.68881     C
O      0.36417   0.1829   0.5142     O
O      0.36417   0.8171   0.0142     O
O      0.37833   0.3117   0.4552     O
O      0.37833   0.6883   0.9552     O
C      0.38788   0.2334   0.4691     C
C      0.38788   0.7666   0.9691     C
N      0.39466  0.04358  0.17705     N
N      0.39466  0.95642  0.67705     N
N      0.41741  0.03331  0.68134     N
N      0.41741  0.96669  0.18134     N
C      0.41844   0.1161  0.15767     C
C      0.41844   0.8839  0.65767     C
C      0.42796   0.1943  0.43416     C
C      0.42796   0.8057  0.93416     C
C      0.43305  0.10172  0.43587     C
C      0.43305  0.89828  0.93587     C
N      0.45549  0.01186  0.66253     N
N      0.45549  0.98814  0.16253     N
C      0.45794  0.07736  0.14489     C
C      0.45794  0.92264  0.64489     C
C      0.46021  0.24897  0.40595     C
C      0.46021  0.75103  0.90595     C
C      0.47036  0.06381  0.40939     C
C      0.47036  0.93619  0.90939     C
C      0.49739  0.11847  0.11882     C
C      0.49739  0.88153  0.61882     C
C      0.49754  0.21105  0.37946     C
C      0.49754  0.78895  0.87946     C
C      0.50246  0.21105  0.12054     C
C      0.50246  0.78895  0.62054     C
C      0.50261  0.11847  0.38118     C
C      0.50261  0.88153  0.88118     C
C      0.52964  0.06381  0.09061     C
C      0.52964  0.93619  0.59061     C
C      0.53979  0.24897  0.09405     C
C      0.53979  0.75103  0.59405     C
C      0.54206  0.07736  0.35511     C
C      0.54206  0.92264  0.85511     C
N      0.54451  0.01186  0.83747     N
N      0.54451  0.98814  0.33747     N
C      0.56695  0.10172  0.06413     C
C      0.56695  0.89828  0.56413     C
C      0.57204   0.1943  0.06584     C
C      0.57204   0.8057  0.56584     C
C      0.58156   0.1161  0.34233     C
C      0.58156   0.8839  0.84233     C
N      0.58259  0.03331  0.81866     N
N      0.58259  0.96669  0.31866     N
N      0.60534  0.04358  0.32295     N
N      0.60534  0.95642  0.82295     N
C      0.61212   0.2334   0.0309     C
C      0.61212   0.7666   0.5309     C
O      0.62167   0.3117   0.0448     O
O      0.62167   0.6883   0.5448     O
O      0.63583   0.1829   0.9858     O
O      0.63583   0.8171   0.4858     O
C      0.64989  0.04128  0.31119     C
C      0.64989  0.95872  0.81119     C
C      0.66751  0.10265  0.24903     C
C      0.66751  0.89735  0.74903     C
C      0.67525  0.02474  0.86106     C
C      0.67525  0.97526  0.36106     C
Tb     0.68948  0.29455  0.96936    Tb
Tb     0.68948  0.70545  0.46936    Tb
O      0.70445   0.2239   0.1288     O
O      0.70445   0.7761   0.6288     O
C      0.71049  0.09799  0.23674     C
C      0.71049  0.90201  0.73674     C
O      0.71508   0.4146    0.083     O
O      0.71508   0.5854    0.583     O
C      0.71824   0.0294  0.84877     C
C      0.71824   0.9706  0.34877     C
C      0.72801  0.16042  0.16284     C
C      0.72801  0.83958  0.66284     C
O      0.72948   0.1672   0.9398     O
O      0.72948   0.8328   0.4398     O
O      0.73482   0.3549   0.8569     O
O      0.73482   0.6451   0.3569     O
C      0.73586  0.03197  0.28661     C
C      0.73586  0.96803  0.78661     C
C      0.74561   0.1002   0.9051     C
C      0.74561   0.8998   0.4051     C
C      0.75439   0.3998   0.0949     C
C      0.75439   0.6002   0.5949     C
C      0.76414  0.46803  0.71339     C
C      0.76414  0.53197  0.21339     C
O      0.76518   0.1451   0.1431     O
O      0.76518   0.8549   0.6431     O
O      0.77052   0.3328   0.0602     O
O      0.77052   0.6672   0.5602     O
C      0.77199  0.33958  0.83716     C
C      0.77199  0.66042  0.33716     C
C      0.78176   0.4706  0.15123     C
C      0.78176   0.5294  0.65123     C
O      0.78492   0.0854    0.917     O
O      0.78492   0.9146    0.417     O
C      0.78951  0.40201  0.76326     C
C      0.78951  0.59799  0.26326     C
O      0.79555   0.2761   0.8712     O
O      0.79555   0.7239   0.3712     O
Tb     0.81052  0.20545  0.03064    Tb
Tb     0.81052  0.79455  0.53064    Tb
C      0.82475  0.47526  0.13894     C
C      0.82475  0.52474  0.63894     C
C      0.83249  0.39735  0.75097     C
C      0.83249  0.60265  0.25097     C
C      0.85011  0.45872  0.68881     C
C      0.85011  0.54128  0.18881     C
O      0.86417   0.3171   0.0142     O
O      0.86417   0.6829   0.5142     O
O      0.87833   0.1883   0.9552     O
O      0.87833   0.8117   0.4552     O
C      0.88788   0.2666   0.9691     C
C      0.88788   0.7334   0.4691     C
N      0.89466  0.45642  0.67705     N
N      0.89466  0.54358  0.17705     N
N      0.91741  0.46669  0.18134     N
N      0.91741  0.53331  0.68134     N
C      0.91844   0.3839  0.65767     C
C      0.91844   0.6161  0.15767     C
C      0.92796   0.3057  0.93416     C
C      0.92796   0.6943  0.43416     C
C      0.93305  0.39828  0.93587     C
C      0.93305  0.60172  0.43587     C
N      0.95549  0.48814  0.16253     N
N      0.95549  0.51186  0.66253     N
C      0.95794  0.42264  0.64489     C
C      0.95794  0.57736  0.14489     C
C      0.96021  0.25103  0.90595     C
C      0.96021  0.74897  0.40595     C
C      0.97036  0.43619  0.90939     C
C      0.97036  0.56381  0.40939     C
C      0.99739  0.38153  0.61882     C
C      0.99739  0.61847  0.11882     C
C      0.99754  0.28895  0.87946     C
C      0.99754  0.71105  0.37946     C
