data_I
_chemical_name_common  '/home/zhangsd/repos/MofS-CGCNN/ML/data/TSD/clean_cifs/CUVXAT_clean'
_cell_length_a 13.64300
_cell_length_b 19.75980
_cell_length_c 22.18340
_cell_angle_alpha 77.88820
_cell_angle_beta  72.09110
_cell_angle_gamma 69.80470
_space_group_name_H-M_alt      'P 1'


loop_
_space_group_symop_operation_xyz
  'x, y, z' 

loop_
_atom_site_label
_atom_site_fract_x
_atom_site_fract_y
_atom_site_fract_z
_atom_site_type_symbol
Mn         0.0      0.0      0.0    Mn
F      0.00448  0.08309  0.51755     F
C      0.00611  0.06138   0.5778     C
C       0.0092    0.491      0.6     C
H       0.0107   0.7853   0.8725     H
F      0.01196  0.22589  0.32019     F
C        0.013   0.5355   0.1179     C
F      0.01948  0.46781  0.14343     F
C      0.02146  0.97498   0.2825     C
C      0.02197  0.31016   0.9291     C
H       0.0239     0.78   0.0352     H
C      0.02512  0.98439  0.21917     C
C        0.026    0.552   0.5976     C
H       0.0273   0.6967   0.5727     H
C       0.0302    0.804   0.7102     C
C       0.0311   0.3092   0.4364     C
H       0.0331   0.9833   0.7955     H
O       0.0362  0.97882  0.09018     O
C      0.03624  0.23622   0.9459     C
H       0.0383   0.9974   0.6898     H
C       0.0397   0.3836   0.4274     C
F      0.04234  0.64908  0.75484     F
C       0.0444    0.696   0.7898     C
H       0.0468   0.6568    0.061     H
F      0.05374  0.14908  0.25484     F
F      0.05378  0.98922  0.58142     F
H       0.0542   0.8505   0.9295     H
H       0.0559   0.4484    0.615     H
F      0.05804  0.27411  0.17981     F
F      0.06289  0.55908  0.14974     F
H       0.0631   0.8005   0.3661     H
O      0.06714  0.08838  0.97134     O
C      0.06729    0.805  0.85342     C
C       0.0754   0.5132   0.4188     C
F      0.07545  0.08885  0.58885     F
F      0.07578  0.53219  0.05905     F
H       0.0819   0.5532   0.6126     H
F      0.08323  0.84487  0.66507     F
H        0.086   0.5581   0.4149     H
F      0.09317  0.65513  0.83493     F
C      0.09338  0.84416  0.88748     C
H       0.0942   0.2097   0.4533     H
C       0.0968   0.2556   0.4554     C
C       0.1015     0.75     0.75     C
C        0.102   0.4157   0.8767     C
C      0.10382  0.92594  0.30622     C
F      0.10512  0.41691  0.98245     F
C       0.1056   0.9157   0.3767     C
C      0.11037  0.33432  0.89774     C
C      0.11528  0.94597  0.17667     C
H       0.1179   0.3533   0.7793     H
C      0.11846  0.78458   0.3867     C
C      0.12238  0.95742  0.10702     C
F      0.12442  0.51078  0.91858     F
C       0.1249  0.79504  0.79096     C
C       0.1251   0.3898   0.4474     C
H       0.1291   0.6791   0.3975     H
F      0.13072  0.03219  0.35657     F
C      0.13673  0.18656  0.93518     C
N      0.14231  0.45438   0.4426     N
C      0.14529  0.43862   0.9222     C
C         0.15  0.10673  0.95427     C
C      0.15614  0.38702   0.7641     C
O       0.1563  0.92131  0.95555     O
C      0.15757  0.83432  0.39774     C
C      0.15814  0.71172   0.4052     C
C      0.16402  0.42594  0.80622     C
C       0.1664   0.9645   0.3821     C
F      0.16702  0.96781  0.44095     F
H       0.1685   0.7147   0.6275     H
C      0.17611  0.87415  0.86043     C
C       0.1762   0.2614   0.4804     C
C       0.1925   0.3283   0.4737     C
C      0.19274  0.88702   0.2641     C
H       0.1967   0.3707   0.6721     H
C      0.19924  0.89702   0.1999     C
H       0.2033   0.1967   0.0727     H
C      0.20384  0.39702   0.6999     C
C      0.20493  0.82822  0.76312     C
C      0.21026  0.28458   0.8867     C
C       0.2109  0.70496  0.70904     C
C      0.21213  0.91064   0.8995     C
O      0.21648   0.9443  0.07074     O
C      0.22106  0.47498   0.7825     C
C      0.22494  0.21172   0.9052     C
H       0.2255   0.5026   0.8102     H
C      0.22571    0.695  0.64658     C
C      0.23165  0.86661  0.79749     C
O      0.23863  0.56527  0.45147     O
C      0.23877  0.81016   0.4291     C
H       0.2414   0.8246   0.7204     H
C      0.24153  0.68656  0.43518     C
O      0.24463  0.06527  0.95147     O
H       0.2495   0.8533   0.2793     H
H       0.2501    0.153   0.5092     H
H       0.2523   0.0532   0.1126     H
F      0.25315  0.41115  0.91115     F
C       0.2539   0.1997   0.5069     C
H       0.2572   0.2903   0.0467     H
H       0.2605   0.8707   0.1721     H
C      0.26208  0.44597  0.67667     C
H       0.2646   0.8432    0.439     H
O      0.26848   0.4443  0.57074     O
H       0.2703   0.3005   0.8661     H
C      0.27132  0.48439  0.71917     C
F      0.27171  0.94092  0.35026     F
N      0.27505   0.3373   0.4922     N
C       0.2767   0.1908   0.0636     C
C      0.28164  0.73622   0.4459     C
Mn     0.28511  0.45281  0.47359    Mn
H       0.2853   0.7861   0.0309     H
H       0.2864   0.6754   0.7796     H
H        0.287   0.8875   0.7783     H
Mn     0.28849  0.95281  0.97359    Mn
C        0.289  0.60673  0.45427     C
H       0.2943   0.1791   0.8975     H
C      0.29627  0.67178  0.73688     C
O      0.29668  0.92641  0.87683     O
C       0.3078   0.2444   0.0446     C
H       0.3119   0.5167   0.7045     H
C      0.31318  0.45742  0.60702     C
C       0.3244    0.052   0.0976     C
C      0.32502  0.65584  0.61252     C
C       0.3288   0.2083   0.5273     C
H       0.3342   0.6495   0.5705     H
H       0.3391     0.72   0.4648     H
C       0.3424     0.28   0.5184     C
C       0.3507   0.1164   0.0726     C
C       0.3592     0.78   0.0184     C
H        0.373    0.169   0.5474     H
O      0.37314  0.58838  0.47134     O
H       0.3807   0.9484    0.115     H
O       0.3948  0.47882  0.59018     O
N      0.39545   0.8373   0.9922     N
C      0.39575  0.63339  0.70251     C
H       0.3977   0.2861   0.5309     H
C       0.3998    0.991      0.1     C
O      0.40008  0.42641  0.37683     O
H       0.4106    0.669   0.0474     H
C      0.41069  0.62585  0.63957     C
H       0.4123    0.347   0.9908     H
C        0.418   0.2386   0.0196     C
C       0.4356   0.7083   0.0273     C
H        0.441   0.0581   0.9149     H
H       0.4528   0.6125   0.7217     H
C       0.4605   0.3003   0.9931     C
N      0.46071  0.95438   0.9426     N
C       0.4623   0.1102   0.0526     C
O      0.46684  0.42131  0.45555     O
C      0.47773  0.41064   0.3995     C
C       0.4926   0.0132   0.9188     C
C       0.4945   0.1717   0.0263     C
Mn         0.5      0.5      0.5    Mn
C       0.5055   0.8283   0.9737     C
C       0.5074   0.9868   0.0812     C
C      0.52227  0.58936   0.6005     C
O      0.53316  0.57869  0.54445     O
C       0.5377   0.8898   0.9474     C
N      0.53929  0.04562   0.0574     N
C       0.5395   0.6997   0.0069     C
H       0.5472   0.3875   0.2783     H
H        0.559   0.9419   0.0851     H
C       0.5644   0.2917   0.9727     C
C        0.582   0.7614   0.9804     C
H       0.5877    0.653   0.0092     H
C      0.58931  0.37415  0.36043     C
H       0.5894    0.331   0.9526     H
O      0.59992  0.57359  0.62317     O
C       0.6002    0.009      0.9     C
H       0.6023   0.7139   0.4691     H
C      0.60425  0.36661  0.29749     C
N      0.60455   0.1627   0.0078     N
O       0.6052  0.52118  0.40982     O
H       0.6193   0.0516    0.885     H
O      0.62686  0.41162  0.52866     O
H        0.627    0.831   0.4526     H
C       0.6408     0.22   0.9816     C
C       0.6493   0.8836   0.9274     C
C       0.6576     0.72   0.4816     C
H       0.6609     0.28   0.5352     H
H       0.6658   0.3505   0.4295     H
C       0.6712   0.7917   0.4727     C
C      0.67498  0.34416  0.38748     C
C       0.6756    0.948   0.9024     C
C      0.68682  0.54258  0.39298     C
H       0.6881   0.4833   0.2955     H
C       0.6922   0.7556   0.9554     C
O      0.70332  0.07359  0.12317     O
C      0.70373  0.32822  0.26312     C
H       0.7057   0.8209   0.1025     H
C        0.711  0.39327  0.54573     C
Mn     0.71151  0.04719  0.02641    Mn
H        0.713   0.1125   0.2217     H
H       0.7136   0.3246   0.2204     H
H       0.7147   0.2139   0.9691     H
Mn     0.71489  0.54719  0.52641    Mn
C      0.71836  0.26378   0.5541     C
C       0.7233   0.8092   0.9364     C
N      0.72495   0.6627   0.5078     N
F      0.72829  0.05908  0.64974     F
C      0.72868  0.51561  0.28083     C
H       0.7297   0.6995   0.1339     H
O      0.73152   0.5557  0.42926     O
H       0.7354   0.1568    0.561     H
C      0.73792  0.55403  0.32333     C
H       0.7395   0.1293   0.8279     H
H       0.7428   0.7097   0.9533     H
C       0.7461   0.8003   0.4931     C
F      0.74685  0.58885  0.08885     F
H       0.7477   0.9468   0.8874     H
H       0.7499    0.847   0.4908     H
H       0.7505   0.1467   0.7207     H
O      0.75537  0.93473  0.04853     O
C      0.75847  0.31344  0.56482     C
H       0.7586   0.1754   0.2796     H
C      0.76123  0.18984   0.5709     C
O      0.76137  0.43473  0.54853     O
C      0.76835  0.13339  0.20251     C
C      0.77429    0.305  0.35342     C
H       0.7745   0.4974   0.1898     H
C      0.77506  0.78828   0.0948     C
C      0.77894  0.52502   0.2175     C
O      0.78352   0.0557  0.92926     O
C      0.78787  0.08936   0.1005     C
C       0.7891  0.29504  0.29096     C
C      0.78974  0.71542   0.1133     C
C      0.79507  0.17178  0.23688     C
C      0.79616  0.60298   0.3001     C
H       0.7967   0.8033   0.9273     H
C      0.80076  0.10298   0.8001     C
H       0.8033   0.6293   0.3279     H
C      0.80726  0.11298   0.7359     C
C       0.8075   0.6717   0.5263     C
C       0.8238   0.7386   0.5196     C
C      0.82389  0.12585  0.13957     C
H       0.8315   0.2853   0.3725     H
F      0.83298  0.03219  0.55905     F
C       0.8336   0.0355   0.6179     C
C      0.83598  0.57406  0.19378     C
C      0.84186  0.28828   0.5948     C
C      0.84243  0.16568  0.60226     C
O       0.8437  0.07869  0.04445     O
C      0.84386  0.61298   0.2359     C
C         0.85  0.89327  0.04573     C
C      0.85471  0.56138   0.0778     C
N      0.85769  0.54562   0.5574     N
C      0.86327  0.81344  0.06482     C
F      0.86928  0.96781  0.64343     F
H       0.8709   0.3209   0.6025     H
C       0.8749   0.6102   0.5526     C
C       0.8751  0.20496  0.20904     C
F      0.87558  0.48922  0.08142     F
C      0.87762  0.04258  0.89298     C
C      0.88154  0.21542   0.6133     C
H       0.8821   0.6467   0.2207     H
C      0.88472  0.05403  0.82333     C
C      0.88963  0.66568  0.10226     C
C       0.8944   0.0843   0.6233     C
F      0.89488  0.58309  0.01755     F
C      0.89618  0.07406  0.69378     C
C        0.898   0.5843   0.1233     C
C       0.8985     0.25     0.25     C
C       0.9032   0.7444   0.5446     C
H       0.9058   0.7903   0.5467     H
C      0.90662  0.15584  0.11252     C
F      0.90683  0.34487  0.16507     F
H        0.914   0.4419   0.5851     H
F      0.91677  0.15513  0.33493     F
H       0.9181   0.4468   0.3874     H
F      0.92422  0.46781  0.94095     F
F      0.92455  0.91115  0.41115     F
C       0.9246   0.4868   0.5812     C
C      0.93271    0.195  0.14658     C
O      0.93286  0.91162  0.02866     O
H       0.9369   0.1995   0.6339     H
F      0.93711  0.44092  0.85026     F
F      0.94196  0.72589  0.82019     F
H       0.9441   0.5516    0.385     H
H       0.9458   0.1495   0.0705     H
F      0.94622  0.01078  0.41858     F
F      0.94626  0.85092  0.74516     F
H       0.9532   0.3432    0.939     H
C       0.9556    0.304   0.2102     C
F      0.95766  0.35092  0.24516     F
C       0.9603   0.6164   0.5726     C
H       0.9617   0.0026   0.3102     H
C      0.96376  0.76378   0.0541     C
O       0.9638  0.02118  0.90982     O
H       0.9669   0.0167   0.2045     H
C       0.9689   0.6908   0.5636     C
C       0.9698    0.196   0.2898     C
H       0.9727   0.3033   0.4273     H
C        0.974    0.448   0.4024     C
C      0.97488  0.01561  0.78083     C
H       0.9761     0.22   0.9648     H
C      0.97803  0.68984   0.0709     C
C      0.97854  0.02502   0.7175     C
F      0.98052  0.53219  0.85657     F
C        0.987   0.4645   0.8821     C
F      0.98804  0.77411  0.67981     F
H       0.9893   0.2147   0.1275     H
C       0.9908    0.509      0.4     C
C      0.99389  0.93862   0.4222     C
F      0.99552  0.91691  0.48245     F
