data_I
_chemical_name_common  '/home/zhangsd/repos/MofS-CGCNN/ML/data/TSD/clean_cifs/DADNOO_clean'
_cell_length_a 15.57600
_cell_length_b 16.42700
_cell_length_c 12.47700
_cell_angle_alpha 90.00000
_cell_angle_beta  92.31400
_cell_angle_gamma 90.00000
_space_group_name_H-M_alt      'P 1'


loop_
_space_group_symop_operation_xyz
  'x, y, z' 

loop_
_atom_site_label
_atom_site_fract_x
_atom_site_fract_y
_atom_site_fract_z
_atom_site_type_symbol
Fe         0.0  0.04831     0.75    Fe
Fe         0.0  0.95169     0.25    Fe
O       0.0216   0.2337   0.6075     O
O       0.0216   0.7663   0.1075     O
C       0.0416   0.0192   0.9978     C
C       0.0416   0.9808   0.4978     C
O       0.0568   0.0625   0.8993     O
O       0.0568   0.9375   0.3993     O
C        0.065   0.0731   0.0923     C
C        0.065   0.9269   0.5923     C
O       0.0728   0.0423   0.1828     O
O       0.0728   0.9577   0.6828     O
H       0.0835   0.0253   0.5009     H
H       0.0835   0.9747   0.0009     H
O       0.0837   0.1451   0.0728     O
O       0.0837   0.8549   0.5728     O
O       0.1011    0.141   0.7236     O
O       0.1011    0.859   0.2236     O
S      0.10489  0.21941  0.66356     S
S      0.10489  0.78059  0.16356     S
Dy     0.11973  0.18711   0.9073    Dy
Dy     0.11973  0.81289   0.4073    Dy
O       0.1207   0.2819   0.7482     O
O       0.1207   0.7181   0.2482     O
O       0.1348   0.4002    0.135     O
O       0.1348   0.5998    0.635     O
O       0.1358   0.3111   0.9902     O
O       0.1358   0.6889   0.4902     O
O       0.1735   0.2177   0.5893     O
O       0.1735   0.7823   0.0893     O
S      0.18876  0.35127   0.0729     S
S      0.18876  0.64873   0.5729     S
O       0.2341   0.2913   0.1394     O
O       0.2341   0.7087   0.6394     O
O       0.2399   0.1063   0.9726     O
O       0.2399   0.8937   0.4726     O
O       0.2601   0.3937   0.0274     O
O       0.2601   0.6063   0.5274     O
O       0.2659   0.2087   0.8606     O
O       0.2659   0.7913   0.3606     O
S      0.31124  0.14873   0.9271     S
S      0.31124  0.85127   0.4271     S
O       0.3265   0.2823   0.4107     O
O       0.3265   0.7177   0.9107     O
O       0.3642   0.1889   0.0098     O
O       0.3642   0.8111   0.5098     O
O       0.3652   0.0998    0.865     O
O       0.3652   0.9002    0.365     O
O       0.3793   0.2181   0.2518     O
O       0.3793   0.7819   0.7518     O
Dy     0.38027  0.31289   0.0927    Dy
Dy     0.38027  0.68711   0.5927    Dy
S      0.39511  0.28059  0.33644     S
S      0.39511  0.71941  0.83644     S
O       0.3989    0.359   0.2764     O
O       0.3989    0.641   0.7764     O
O       0.4163   0.3549   0.9272     O
O       0.4163   0.6451   0.4272     O
H       0.4165   0.4747   0.4991     H
H       0.4165   0.5253   0.9991     H
O       0.4272   0.4577   0.8172     O
O       0.4272   0.5423   0.3172     O
C        0.435   0.4269   0.9077     C
C        0.435   0.5731   0.4077     C
O       0.4432   0.4375   0.1007     O
O       0.4432   0.5625   0.6007     O
C       0.4584   0.4808   0.0022     C
C       0.4584   0.5192   0.5022     C
O       0.4784   0.2663   0.3925     O
O       0.4784   0.7337   0.8925     O
Fe         0.5  0.45169     0.25    Fe
Fe         0.5  0.54831     0.75    Fe
O       0.5216   0.2663   0.1075     O
O       0.5216   0.7337   0.6075     O
C       0.5416   0.4808   0.4978     C
C       0.5416   0.5192   0.9978     C
O       0.5568   0.4375   0.3993     O
O       0.5568   0.5625   0.8993     O
C        0.565   0.4269   0.5923     C
C        0.565   0.5731   0.0923     C
O       0.5728   0.4577   0.6828     O
O       0.5728   0.5423   0.1828     O
H       0.5835   0.4747   0.0009     H
H       0.5835   0.5253   0.5009     H
O       0.5837   0.3549   0.5728     O
O       0.5837   0.6451   0.0728     O
O       0.6011    0.359   0.2236     O
O       0.6011    0.641   0.7236     O
S      0.60489  0.28059  0.16356     S
S      0.60489  0.71941  0.66356     S
Dy     0.61973  0.31289   0.4073    Dy
Dy     0.61973  0.68711   0.9073    Dy
O       0.6207   0.2181   0.2482     O
O       0.6207   0.7819   0.7482     O
O       0.6348   0.0998    0.635     O
O       0.6348   0.9002    0.135     O
O       0.6358   0.1889   0.4902     O
O       0.6358   0.8111   0.9902     O
O       0.6735   0.2823   0.0893     O
O       0.6735   0.7177   0.5893     O
S      0.68876  0.14873   0.5729     S
S      0.68876  0.85127   0.0729     S
O       0.7341   0.2087   0.6394     O
O       0.7341   0.7913   0.1394     O
O       0.7399   0.3937   0.4726     O
O       0.7399   0.6063   0.9726     O
O       0.7601   0.1063   0.5274     O
O       0.7601   0.8937   0.0274     O
O       0.7659   0.2913   0.3606     O
O       0.7659   0.7087   0.8606     O
S      0.81124  0.35127   0.4271     S
S      0.81124  0.64873   0.9271     S
O       0.8265   0.2177   0.9107     O
O       0.8265   0.7823   0.4107     O
O       0.8642   0.3111   0.5098     O
O       0.8642   0.6889   0.0098     O
O       0.8652   0.4002    0.365     O
O       0.8652   0.5998    0.865     O
O       0.8793   0.2819   0.7518     O
O       0.8793   0.7181   0.2518     O
Dy     0.88027  0.18711   0.5927    Dy
Dy     0.88027  0.81289   0.0927    Dy
S      0.89511  0.21941  0.83644     S
S      0.89511  0.78059  0.33644     S
O       0.8989    0.141   0.7764     O
O       0.8989    0.859   0.2764     O
O       0.9163   0.1451   0.4272     O
O       0.9163   0.8549   0.9272     O
H       0.9165   0.0253   0.9991     H
H       0.9165   0.9747   0.4991     H
O       0.9272   0.0423   0.3172     O
O       0.9272   0.9577   0.8172     O
C        0.935   0.0731   0.4077     C
C        0.935   0.9269   0.9077     C
O       0.9432   0.0625   0.6007     O
O       0.9432   0.9375   0.1007     O
C       0.9584   0.0192   0.5022     C
C       0.9584   0.9808   0.0022     C
O       0.9784   0.2337   0.8925     O
O       0.9784   0.7663   0.3925     O
