data_I
_chemical_name_common  '/home/zhangsd/repos/MofS-CGCNN/ML/data/TSD/clean_cifs/DAFHEZ_clean'
_cell_length_a 15.41400
_cell_length_b 11.87700
_cell_length_c 24.15400
_cell_angle_alpha 90.00000
_cell_angle_beta  90.00000
_cell_angle_gamma 90.00000
_space_group_name_H-M_alt      'P 1'


loop_
_space_group_symop_operation_xyz
  'x, y, z' 

loop_
_atom_site_label
_atom_site_fract_x
_atom_site_fract_y
_atom_site_fract_z
_atom_site_type_symbol
Co         0.0      0.0      0.5    Co
Co         0.0      0.5      0.0    Co
O       0.0288   0.7416  0.08232     O
O       0.0288   0.7584  0.58232     O
O       0.0309    0.519  0.15159     O
O       0.0309    0.981  0.65159     O
Co     0.05003  0.14049  0.37531    Co
Co     0.05003  0.35951  0.87531    Co
O       0.0542   0.2404  0.30559     O
O       0.0542   0.2596  0.80559     O
O       0.0558   0.6584   0.0005     O
O       0.0558   0.8416   0.5005     O
H       0.0567   0.1415   0.7203     H
H       0.0567   0.3585   0.2203     H
H       0.0581   0.5486   0.5635     H
H       0.0581   0.9514   0.0635     H
C       0.0626   0.7368   0.0347     C
C       0.0626   0.7632   0.5347     C
C       0.0702   0.0501   0.6202     C
C       0.0702   0.4499   0.1202     C
O       0.0717   0.0463  0.56845     O
O       0.0717   0.4537  0.06845     O
C        0.098   0.1808      0.7     C
C        0.098   0.3192      0.2     C
O       0.1056   0.0474  0.44396     O
O       0.1056   0.4526  0.94396     O
C       0.1076   0.5616   0.5424     C
C       0.1076   0.9384   0.0424     C
C       0.1106   0.1846   0.2795     C
C       0.1106   0.3154   0.7795     C
C       0.1181   0.1455   0.6477     C
C       0.1181   0.3545   0.1477     C
C        0.123    0.668   0.5211     C
C        0.123    0.832   0.0211     C
C       0.1378    0.226   0.2235     C
C       0.1378    0.274   0.7235     C
O        0.144   0.0985  0.29954     O
O        0.144   0.4015  0.79954     O
H       0.1536   0.0963   0.0467     H
H       0.1536   0.4037   0.5467     H
C       0.1649    0.025   0.0326     C
C       0.1649    0.475   0.5326     C
O       0.1666   0.2013  0.41325     O
O       0.1666   0.2987  0.91325     O
C       0.1688   0.1181   0.4445     C
C       0.1688   0.3819   0.9445     C
C       0.1831    0.202   0.6179     C
C       0.1831    0.298   0.1179     C
C       0.1956   0.6831   0.4878     C
C       0.1956   0.8169   0.9878     C
H       0.1985   0.1777   0.5826     H
H       0.1985   0.3223   0.0826     H
C       0.2005   0.1699   0.1935     C
C       0.2005   0.3301   0.6935     C
H       0.2045   0.7477   0.9707     H
H       0.2045   0.7523   0.4707     H
H       0.2209   0.5645   0.9962     H
H       0.2209   0.9355   0.4962     H
C       0.2239   0.2064   0.1412     C
C       0.2239   0.2936   0.6412     C
H       0.2274   0.1069   0.2086     H
H       0.2274   0.3931   0.7086     H
H       0.2328    0.669   0.1217     H
H       0.2328    0.831   0.6217     H
C       0.2396   0.0065   0.0018     C
C       0.2396   0.4935   0.5018     C
C       0.2455   0.0978   0.4796     C
C       0.2455   0.4022   0.9796     C
C       0.2545   0.5978   0.4796     C
C       0.2545   0.9022   0.9796     C
C       0.2604   0.5065   0.0018     C
C       0.2604   0.9935   0.5018     C
H       0.2672    0.169   0.1217     H
H       0.2672    0.331   0.6217     H
H       0.2726   0.6069   0.2086     H
H       0.2726   0.8931   0.7086     H
C       0.2761   0.7064   0.1412     C
C       0.2761   0.7936   0.6412     C
H       0.2791   0.0645   0.9962     H
H       0.2791   0.4355   0.4962     H
H       0.2955   0.2477   0.9707     H
H       0.2955   0.2523   0.4707     H
C       0.2995   0.6699   0.1935     C
C       0.2995   0.8301   0.6935     C
H       0.3015   0.6777   0.5826     H
H       0.3015   0.8223   0.0826     H
C       0.3044   0.1831   0.4878     C
C       0.3044   0.3169   0.9878     C
C       0.3169    0.702   0.6179     C
C       0.3169    0.798   0.1179     C
C       0.3312   0.6181   0.4445     C
C       0.3312   0.8819   0.9445     C
O       0.3334   0.7013  0.41325     O
O       0.3334   0.7987  0.91325     O
C       0.3351    0.525   0.0326     C
C       0.3351    0.975   0.5326     C
H       0.3464   0.5963   0.0467     H
H       0.3464   0.9037   0.5467     H
O        0.356   0.5985  0.29954     O
O        0.356   0.9015  0.79954     O
C       0.3622    0.726   0.2235     C
C       0.3622    0.774   0.7235     C
C        0.377    0.168   0.5211     C
C        0.377    0.332   0.0211     C
C       0.3819   0.6455   0.6477     C
C       0.3819   0.8545   0.1477     C
C       0.3894   0.6846   0.2795     C
C       0.3894   0.8154   0.7795     C
C       0.3924   0.0616   0.5424     C
C       0.3924   0.4384   0.0424     C
O       0.3944   0.5474  0.44396     O
O       0.3944   0.9526  0.94396     O
C        0.402   0.6808      0.7     C
C        0.402   0.8192      0.2     C
O       0.4283   0.5463  0.56845     O
O       0.4283   0.9537  0.06845     O
C       0.4298   0.5501   0.6202     C
C       0.4298   0.9499   0.1202     C
C       0.4374   0.2368   0.0347     C
C       0.4374   0.2632   0.5347     C
H       0.4419   0.0486   0.5635     H
H       0.4419   0.4514   0.0635     H
H       0.4433   0.6415   0.7203     H
H       0.4433   0.8585   0.2203     H
O       0.4442   0.1584   0.0005     O
O       0.4442   0.3416   0.5005     O
O       0.4458   0.7404  0.30559     O
O       0.4458   0.7596  0.80559     O
Co     0.44997  0.64049  0.37531    Co
Co     0.44997  0.85951  0.87531    Co
O       0.4691    0.019  0.15159     O
O       0.4691    0.481  0.65159     O
O       0.4712   0.2416  0.08232     O
O       0.4712   0.2584  0.58232     O
Co         0.5      0.0      0.0    Co
Co         0.5      0.5      0.5    Co
O       0.5288   0.7416  0.41768     O
O       0.5288   0.7584  0.91768     O
O       0.5309    0.519  0.34841     O
O       0.5309    0.981  0.84841     O
Co     0.55003  0.14049  0.12469    Co
Co     0.55003  0.35951  0.62469    Co
O       0.5542   0.2404  0.19441     O
O       0.5542   0.2596  0.69441     O
O       0.5558   0.6584   0.4995     O
O       0.5558   0.8416   0.9995     O
H       0.5567   0.1415   0.7797     H
H       0.5567   0.3585   0.2797     H
H       0.5581   0.5486   0.9365     H
H       0.5581   0.9514   0.4365     H
C       0.5626   0.7368   0.4653     C
C       0.5626   0.7632   0.9653     C
C       0.5702   0.0501   0.8798     C
C       0.5702   0.4499   0.3798     C
O       0.5717   0.0463  0.93155     O
O       0.5717   0.4537  0.43155     O
C        0.598   0.1808      0.8     C
C        0.598   0.3192      0.3     C
O       0.6056   0.0474  0.05604     O
O       0.6056   0.4526  0.55604     O
C       0.6076   0.5616   0.9576     C
C       0.6076   0.9384   0.4576     C
C       0.6106   0.1846   0.2205     C
C       0.6106   0.3154   0.7205     C
C       0.6181   0.1455   0.8523     C
C       0.6181   0.3545   0.3523     C
C        0.623    0.668   0.9789     C
C        0.623    0.832   0.4789     C
C       0.6378    0.226   0.2765     C
C       0.6378    0.274   0.7765     C
O        0.644   0.0985  0.20046     O
O        0.644   0.4015  0.70046     O
H       0.6536   0.0963   0.4533     H
H       0.6536   0.4037   0.9533     H
C       0.6649    0.025   0.4674     C
C       0.6649    0.475   0.9674     C
O       0.6666   0.2013  0.08675     O
O       0.6666   0.2987  0.58675     O
C       0.6688   0.1181   0.0555     C
C       0.6688   0.3819   0.5555     C
C       0.6831    0.202   0.8821     C
C       0.6831    0.298   0.3821     C
C       0.6956   0.6831   0.0122     C
C       0.6956   0.8169   0.5122     C
H       0.6985   0.1777   0.9174     H
H       0.6985   0.3223   0.4174     H
C       0.7005   0.1699   0.3065     C
C       0.7005   0.3301   0.8065     C
H       0.7045   0.7477   0.5293     H
H       0.7045   0.7523   0.0293     H
H       0.7209   0.5645   0.5038     H
H       0.7209   0.9355   0.0038     H
C       0.7239   0.2064   0.3588     C
C       0.7239   0.2936   0.8588     C
H       0.7274   0.1069   0.2914     H
H       0.7274   0.3931   0.7914     H
H       0.7328    0.669   0.3783     H
H       0.7328    0.831   0.8783     H
C       0.7396   0.0065   0.4982     C
C       0.7396   0.4935   0.9982     C
C       0.7455   0.0978   0.0204     C
C       0.7455   0.4022   0.5204     C
C       0.7545   0.5978   0.0204     C
C       0.7545   0.9022   0.5204     C
C       0.7604   0.5065   0.4982     C
C       0.7604   0.9935   0.9982     C
H       0.7672    0.169   0.3783     H
H       0.7672    0.331   0.8783     H
H       0.7726   0.6069   0.2914     H
H       0.7726   0.8931   0.7914     H
C       0.7761   0.7064   0.3588     C
C       0.7761   0.7936   0.8588     C
H       0.7791   0.0645   0.5038     H
H       0.7791   0.4355   0.0038     H
H       0.7955   0.2477   0.5293     H
H       0.7955   0.2523   0.0293     H
C       0.7995   0.6699   0.3065     C
C       0.7995   0.8301   0.8065     C
H       0.8015   0.6777   0.9174     H
H       0.8015   0.8223   0.4174     H
C       0.8044   0.1831   0.0122     C
C       0.8044   0.3169   0.5122     C
C       0.8169    0.702   0.8821     C
C       0.8169    0.798   0.3821     C
C       0.8312   0.6181   0.0555     C
C       0.8312   0.8819   0.5555     C
O       0.8334   0.7013  0.08675     O
O       0.8334   0.7987  0.58675     O
C       0.8351    0.525   0.4674     C
C       0.8351    0.975   0.9674     C
H       0.8464   0.5963   0.4533     H
H       0.8464   0.9037   0.9533     H
O        0.856   0.5985  0.20046     O
O        0.856   0.9015  0.70046     O
C       0.8622    0.726   0.2765     C
C       0.8622    0.774   0.7765     C
C        0.877    0.168   0.9789     C
C        0.877    0.332   0.4789     C
C       0.8819   0.6455   0.8523     C
C       0.8819   0.8545   0.3523     C
C       0.8894   0.6846   0.2205     C
C       0.8894   0.8154   0.7205     C
C       0.8924   0.0616   0.9576     C
C       0.8924   0.4384   0.4576     C
O       0.8944   0.5474  0.05604     O
O       0.8944   0.9526  0.55604     O
C        0.902   0.6808      0.8     C
C        0.902   0.8192      0.3     C
O       0.9283   0.5463  0.93155     O
O       0.9283   0.9537  0.43155     O
C       0.9298   0.5501   0.8798     C
C       0.9298   0.9499   0.3798     C
C       0.9374   0.2368   0.4653     C
C       0.9374   0.2632   0.9653     C
H       0.9419   0.0486   0.9365     H
H       0.9419   0.4514   0.4365     H
H       0.9433   0.6415   0.7797     H
H       0.9433   0.8585   0.2797     H
O       0.9442   0.1584   0.4995     O
O       0.9442   0.3416   0.9995     O
O       0.9458   0.7404  0.19441     O
O       0.9458   0.7596  0.69441     O
Co     0.94997  0.64049  0.12469    Co
Co     0.94997  0.85951  0.62469    Co
O       0.9691    0.019  0.34841     O
O       0.9691    0.481  0.84841     O
O       0.9712   0.2416  0.41768     O
O       0.9712   0.2584  0.91768     O
