data_I
_chemical_name_common  '/home/zhangsd/repos/MofS-CGCNN/ML/data/TSD/clean_cifs/DAFHOJ_clean'
_cell_length_a 13.09200
_cell_length_b 14.49000
_cell_length_c 12.64000
_cell_angle_alpha 90.00000
_cell_angle_beta  116.85000
_cell_angle_gamma 90.00000
_space_group_name_H-M_alt      'P 1'


loop_
_space_group_symop_operation_xyz
  'x, y, z' 

loop_
_atom_site_label
_atom_site_fract_x
_atom_site_fract_y
_atom_site_fract_z
_atom_site_type_symbol
Mn         0.0      0.0      0.5    Mn
Mn         0.0      0.5      0.0    Mn
C        0.014   0.1776   0.1779     C
C        0.014   0.3224   0.6779     C
H       0.0174   0.7376   0.0743     H
H       0.0174   0.7624   0.5743     H
C       0.0282    0.723    0.522     C
C       0.0282    0.777    0.022     C
O       0.0285   0.5569   0.1717     O
O       0.0285   0.9431   0.6717     O
C       0.0314   0.2367   0.0998     C
C       0.0314   0.2633   0.5998     C
H       0.0554   0.1865   0.2592     H
H       0.0554   0.3135   0.7592     H
C       0.0642   0.6059    0.365     C
C       0.0642   0.8941    0.865     C
C       0.0912    0.549   0.2808     C
C       0.0912    0.951   0.7808     C
C       0.1048   0.6486   0.5644     C
C       0.1048   0.8514   0.0644     C
O       0.1164   0.1183   0.5869     O
O       0.1164   0.3817   0.0869     O
C        0.118   0.1874   0.6504     C
C        0.118   0.3126   0.1504     C
C       0.1217   0.5917   0.4864     C
C       0.1217   0.9083   0.9864     C
O       0.1442   0.5735   0.0055     O
O       0.1442   0.9265   0.5055     O
H       0.1444   0.6376   0.6455     H
H       0.1444   0.8624   0.1455     H
H       0.1728   0.5426   0.5159     H
H       0.1728   0.6685   0.8605     H
H       0.1728   0.8315   0.3605     H
H       0.1728   0.9574   0.0159     H
O       0.1816    0.501   0.3283     O
O       0.1816    0.999   0.8283     O
O       0.1928   0.1953   0.7548     O
O       0.1928   0.3047   0.2548     O
C       0.2395   0.6989   0.9116     C
C       0.2395   0.8011   0.4116     C
C       0.2437   0.5977   0.0719     C
C       0.2437   0.9023   0.5719     C
H        0.248   0.7179    0.287     H
H        0.248   0.7821    0.787     H
Mn     0.27135  0.05711  0.74477    Mn
Mn     0.27135  0.44289  0.24477    Mn
C       0.2834   0.7318   0.3675     C
C       0.2834   0.7682   0.8675     C
C       0.2934   0.6747   0.0303     C
C       0.2934   0.8253   0.5303     C
O       0.3079   0.5609   0.1722     O
O       0.3079   0.9391   0.6722     O
C       0.3799   0.6839    0.444     C
C       0.3799   0.8161    0.944     C
C       0.3919   0.7229   0.1076     C
C       0.3919   0.7771   0.6076     C
H       0.4089   0.6371    0.415     H
H       0.4089   0.8629    0.915     H
O       0.4161   0.1649   0.7446     O
O       0.4161   0.3351   0.2446     O
O        0.426   0.0891   0.9007     O
O        0.426   0.4109   0.4007     O
H        0.429    0.707   0.1875     H
H        0.429    0.793   0.6875     H
C       0.4345   0.7055   0.5653     C
C       0.4345   0.7945   0.0653     C
C       0.4623   0.1509   0.8531     C
C       0.4623   0.3491   0.3531     C
C       0.5377   0.6509   0.6469     C
C       0.5377   0.8491   0.1469     C
C       0.5655   0.2055   0.9347     C
C       0.5655   0.2945   0.4347     C
H        0.571    0.207   0.3125     H
H        0.571    0.293   0.8125     H
O        0.574   0.5891   0.5993     O
O        0.574   0.9109   0.0993     O
O       0.5839   0.6649   0.7554     O
O       0.5839   0.8351   0.2554     O
H       0.5911   0.1371    0.085     H
H       0.5911   0.3629    0.585     H
C       0.6081   0.2229   0.3924     C
C       0.6081   0.2771   0.8924     C
C       0.6201   0.1839    0.056     C
C       0.6201   0.3161    0.556     C
O       0.6921   0.0609   0.3278     O
O       0.6921   0.4391   0.8278     O
C       0.7066   0.1747   0.4697     C
C       0.7066   0.3253   0.9697     C
C       0.7166   0.2318   0.1325     C
C       0.7166   0.2682   0.6325     C
Mn     0.72865  0.55711  0.75523    Mn
Mn     0.72865  0.94289  0.25523    Mn
H        0.752   0.2179    0.213     H
H        0.752   0.2821    0.713     H
C       0.7563   0.0977   0.4281     C
C       0.7563   0.4023   0.9281     C
C       0.7605   0.1989   0.5884     C
C       0.7605   0.3011   0.0884     C
O       0.8072   0.6953   0.7452     O
O       0.8072   0.8047   0.2452     O
O       0.8184    0.001   0.1717     O
O       0.8184    0.499   0.6717     O
H       0.8272   0.0426   0.9841     H
H       0.8272   0.1685   0.6395     H
H       0.8272   0.3315   0.1395     H
H       0.8272   0.4574   0.4841     H
H       0.8556   0.1376   0.8545     H
H       0.8556   0.3624   0.3545     H
O       0.8558   0.0735   0.4945     O
O       0.8558   0.4265   0.9945     O
C       0.8783   0.0917   0.0136     C
C       0.8783   0.4083   0.5136     C
C        0.882   0.6874   0.8496     C
C        0.882   0.8126   0.3496     C
O       0.8836   0.6183   0.9131     O
O       0.8836   0.8817   0.4131     O
C       0.8952   0.1486   0.9356     C
C       0.8952   0.3514   0.4356     C
C       0.9088    0.049   0.2192     C
C       0.9088    0.451   0.7192     C
C       0.9358   0.1059    0.135     C
C       0.9358   0.3941    0.635     C
H       0.9446   0.6865   0.2408     H
H       0.9446   0.8135   0.7408     H
C       0.9686   0.7367   0.4002     C
C       0.9686   0.7633   0.9002     C
O       0.9715   0.0569   0.3283     O
O       0.9715   0.4431   0.8283     O
C       0.9718    0.223    0.978     C
C       0.9718    0.277    0.478     C
H       0.9826   0.2376   0.4257     H
H       0.9826   0.2624   0.9257     H
C        0.986   0.6776   0.3221     C
C        0.986   0.8224   0.8221     C
