data_I
_chemical_name_common  '/home/zhangsd/repos/MofS-CGCNN/ML/data/TSD/clean_cifs/DAFHID_clean'
_cell_length_a 15.49120
_cell_length_b 11.66870
_cell_length_c 23.75020
_cell_angle_alpha 90.00000
_cell_angle_beta  90.00000
_cell_angle_gamma 90.00000
_space_group_name_H-M_alt      'P 1'


loop_
_space_group_symop_operation_xyz
  'x, y, z' 

loop_
_atom_site_label
_atom_site_fract_x
_atom_site_fract_y
_atom_site_fract_z
_atom_site_type_symbol
Ni         0.0      0.0      0.5    Ni
Ni         0.0      0.5      0.0    Ni
O      0.03295  0.74271  0.91802     O
O      0.03295  0.75729  0.41802     O
O      0.03919  0.52815  0.84941     O
O      0.03919  0.97185  0.34941     O
Ni     0.04698  0.14267  0.62311    Ni
Ni     0.04698  0.35733  0.12311    Ni
O      0.04714  0.24554   0.6929     O
O      0.04714  0.25446   0.1929     O
O      0.05721  0.65831  0.00153     O
O      0.05721  0.84169  0.50153     O
H       0.0575   0.1354   0.2788     H
H       0.0575   0.3646   0.7788     H
H       0.0645   0.5442   0.4363     H
H       0.0645   0.9558   0.9363     H
C      0.06643   0.7351  0.96601     C
C      0.06643   0.7649  0.46601     C
O      0.07311  0.05096   0.4332     O
O      0.07311  0.44904   0.9332     O
C      0.07498   0.0463  0.38063     C
C      0.07498   0.4537  0.88063     C
O      0.09892  0.05055  0.55684     O
O      0.09892  0.44945  0.05684     O
C      0.09919   0.1768  0.29827     C
C      0.09919   0.3232  0.79827     C
C      0.10644   0.1879  0.71641     C
C      0.10644   0.3121  0.21641     C
C       0.1135   0.5586  0.45776     C
C       0.1135   0.9414  0.95776     C
C      0.12315   0.1423  0.35179     C
C      0.12315   0.3577  0.85179     C
C      0.12705    0.668  0.48002     C
C      0.12705    0.832  0.98002     C
O      0.13573  0.09981  0.69449     O
O      0.13573  0.40019  0.19449     O
C      0.13657   0.2273  0.77316     C
C      0.13657   0.2727  0.27316     C
O      0.15795  0.21259  0.58386     O
O      0.15795  0.28741  0.08386     O
H       0.1609   0.1013   0.9538     H
H       0.1609   0.3987   0.4538     H
C      0.16141   0.1238  0.55426     C
C      0.16141   0.3762  0.05426     C
C      0.17206   0.0281  0.96732     C
C      0.17206   0.4719  0.46732     C
C      0.18702   0.2018  0.37903     C
C      0.18702   0.2982  0.87903     C
C      0.19995   0.6858  0.51263     C
C      0.19995   0.8142  0.01263     C
C      0.20131   0.1694  0.80123     C
C      0.20131   0.3306  0.30123     C
H       0.2037    0.179   0.4149     H
H       0.2037    0.321   0.9149     H
H       0.2082   0.7435   0.0299     H
H       0.2082   0.7565   0.5299     H
H        0.211   0.5642   0.0016     H
H        0.211   0.9358   0.5016     H
C      0.22717   0.2049  0.85431     C
C      0.22717   0.2951  0.35431     C
H       0.2276   0.1064   0.7845     H
H       0.2276   0.3936   0.2845     H
H       0.2289   0.6665   0.8731     H
H       0.2289   0.8335   0.3731     H
C      0.23919   0.1001  0.51992     C
C      0.23919   0.3999  0.01992     C
C      0.24786   0.0069  0.99714     C
C      0.24786   0.4931  0.49714     C
C      0.25214   0.5069  0.99714     C
C      0.25214   0.9931  0.49714     C
C      0.26081   0.6001  0.51992     C
C      0.26081   0.8999  0.01992     C
H       0.2711   0.1665   0.8731     H
H       0.2711   0.3335   0.3731     H
H       0.2724   0.6064   0.7845     H
H       0.2724   0.8936   0.2845     H
C      0.27283   0.7049  0.85431     C
C      0.27283   0.7951  0.35431     C
H        0.289   0.0642   0.0016     H
H        0.289   0.4358   0.5016     H
H       0.2918   0.2435   0.0299     H
H       0.2918   0.2565   0.5299     H
H       0.2963    0.679   0.4149     H
H       0.2963    0.821   0.9149     H
C      0.29869   0.6694  0.80123     C
C      0.29869   0.8306  0.30123     C
C      0.30005   0.1858  0.51263     C
C      0.30005   0.3142  0.01263     C
C      0.31298   0.7018  0.37903     C
C      0.31298   0.7982  0.87903     C
C      0.32794   0.5281  0.96732     C
C      0.32794   0.9719  0.46732     C
C      0.33859   0.6238  0.55426     C
C      0.33859   0.8762  0.05426     C
H       0.3391   0.6013   0.9538     H
H       0.3391   0.8987   0.4538     H
O      0.34205  0.71259  0.58386     O
O      0.34205  0.78741  0.08386     O
C      0.36343   0.7273  0.77316     C
C      0.36343   0.7727  0.27316     C
O      0.36427  0.59981  0.69449     O
O      0.36427  0.90019  0.19449     O
C      0.37295    0.168  0.48002     C
C      0.37295    0.332  0.98002     C
C      0.37685   0.6423  0.35179     C
C      0.37685   0.8577  0.85179     C
C       0.3865   0.0586  0.45776     C
C       0.3865   0.4414  0.95776     C
C      0.39356   0.6879  0.71641     C
C      0.39356   0.8121  0.21641     C
C      0.40081   0.6768  0.29827     C
C      0.40081   0.8232  0.79827     C
O      0.40108  0.55055  0.55684     O
O      0.40108  0.94945  0.05684     O
C      0.42502   0.5463  0.38063     C
C      0.42502   0.9537  0.88063     C
O      0.42689  0.55096   0.4332     O
O      0.42689  0.94904   0.9332     O
C      0.43357   0.2351  0.96601     C
C      0.43357   0.2649  0.46601     C
H       0.4355   0.0442   0.4363     H
H       0.4355   0.4558   0.9363     H
H       0.4425   0.6354   0.2788     H
H       0.4425   0.8646   0.7788     H
O      0.44279  0.15831  0.00153     O
O      0.44279  0.34169  0.50153     O
O      0.45286  0.74554   0.6929     O
O      0.45286  0.75446   0.1929     O
Ni     0.45302  0.64267  0.62311    Ni
Ni     0.45302  0.85733  0.12311    Ni
O      0.46081  0.02815  0.84941     O
O      0.46081  0.47185  0.34941     O
O      0.46705  0.24271  0.91802     O
O      0.46705  0.25729  0.41802     O
Ni         0.5      0.0      0.0    Ni
Ni         0.5      0.5      0.5    Ni
O      0.53295  0.74271  0.58198     O
O      0.53295  0.75729  0.08198     O
O      0.53919  0.52815  0.65059     O
O      0.53919  0.97185  0.15059     O
Ni     0.54698  0.14267  0.87689    Ni
Ni     0.54698  0.35733  0.37689    Ni
O      0.54714  0.24554   0.8071     O
O      0.54714  0.25446   0.3071     O
O      0.55721  0.65831  0.49847     O
O      0.55721  0.84169  0.99847     O
H       0.5575   0.1354   0.2212     H
H       0.5575   0.3646   0.7212     H
H       0.5645   0.5442   0.0637     H
H       0.5645   0.9558   0.5637     H
C      0.56643   0.7351  0.53399     C
C      0.56643   0.7649  0.03399     C
O      0.57311  0.05096   0.0668     O
O      0.57311  0.44904   0.5668     O
C      0.57498   0.0463  0.11937     C
C      0.57498   0.4537  0.61937     C
O      0.59892  0.05055  0.94316     O
O      0.59892  0.44945  0.44316     O
C      0.59919   0.1768  0.20173     C
C      0.59919   0.3232  0.70173     C
C      0.60644   0.1879  0.78359     C
C      0.60644   0.3121  0.28359     C
C       0.6135   0.5586  0.04224     C
C       0.6135   0.9414  0.54224     C
C      0.62315   0.1423  0.14821     C
C      0.62315   0.3577  0.64821     C
C      0.62705    0.668  0.01998     C
C      0.62705    0.832  0.51998     C
O      0.63573  0.09981  0.80551     O
O      0.63573  0.40019  0.30551     O
C      0.63657   0.2273  0.72684     C
C      0.63657   0.2727  0.22684     C
O      0.65795  0.21259  0.91614     O
O      0.65795  0.28741  0.41614     O
H       0.6609   0.1013   0.5462     H
H       0.6609   0.3987   0.0462     H
C      0.66141   0.1238  0.94574     C
C      0.66141   0.3762  0.44574     C
C      0.67206   0.0281  0.53268     C
C      0.67206   0.4719  0.03268     C
C      0.68702   0.2018  0.12097     C
C      0.68702   0.2982  0.62097     C
C      0.69995   0.6858  0.98737     C
C      0.69995   0.8142  0.48737     C
C      0.70131   0.1694  0.69877     C
C      0.70131   0.3306  0.19877     C
H       0.7037    0.179   0.0851     H
H       0.7037    0.321   0.5851     H
H       0.7082   0.7435   0.4701     H
H       0.7082   0.7565   0.9701     H
H        0.711   0.5642   0.4984     H
H        0.711   0.9358   0.9984     H
C      0.72717   0.2049  0.64569     C
C      0.72717   0.2951  0.14569     C
H       0.7276   0.1064   0.7155     H
H       0.7276   0.3936   0.2155     H
H       0.7289   0.6665   0.6269     H
H       0.7289   0.8335   0.1269     H
C      0.73919   0.1001  0.98008     C
C      0.73919   0.3999  0.48008     C
C      0.74786   0.0069  0.50286     C
C      0.74786   0.4931  0.00286     C
C      0.75214   0.5069  0.50286     C
C      0.75214   0.9931  0.00286     C
C      0.76081   0.6001  0.98008     C
C      0.76081   0.8999  0.48008     C
H       0.7711   0.1665   0.6269     H
H       0.7711   0.3335   0.1269     H
H       0.7724   0.6064   0.7155     H
H       0.7724   0.8936   0.2155     H
C      0.77283   0.7049  0.64569     C
C      0.77283   0.7951  0.14569     C
H        0.789   0.0642   0.4984     H
H        0.789   0.4358   0.9984     H
H       0.7918   0.2435   0.4701     H
H       0.7918   0.2565   0.9701     H
H       0.7963    0.679   0.0851     H
H       0.7963    0.821   0.5851     H
C      0.79869   0.6694  0.69877     C
C      0.79869   0.8306  0.19877     C
C      0.80005   0.1858  0.98737     C
C      0.80005   0.3142  0.48737     C
C      0.81298   0.7018  0.12097     C
C      0.81298   0.7982  0.62097     C
C      0.82794   0.5281  0.53268     C
C      0.82794   0.9719  0.03268     C
C      0.83859   0.6238  0.94574     C
C      0.83859   0.8762  0.44574     C
H       0.8391   0.6013   0.5462     H
H       0.8391   0.8987   0.0462     H
O      0.84205  0.71259  0.91614     O
O      0.84205  0.78741  0.41614     O
C      0.86343   0.7273  0.72684     C
C      0.86343   0.7727  0.22684     C
O      0.86427  0.59981  0.80551     O
O      0.86427  0.90019  0.30551     O
C      0.87295    0.168  0.01998     C
C      0.87295    0.332  0.51998     C
C      0.87685   0.6423  0.14821     C
C      0.87685   0.8577  0.64821     C
C       0.8865   0.0586  0.04224     C
C       0.8865   0.4414  0.54224     C
C      0.89356   0.6879  0.78359     C
C      0.89356   0.8121  0.28359     C
C      0.90081   0.6768  0.20173     C
C      0.90081   0.8232  0.70173     C
O      0.90108  0.55055  0.94316     O
O      0.90108  0.94945  0.44316     O
C      0.92502   0.5463  0.11937     C
C      0.92502   0.9537  0.61937     C
O      0.92689  0.55096   0.0668     O
O      0.92689  0.94904   0.5668     O
C      0.93357   0.2351  0.53399     C
C      0.93357   0.2649  0.03399     C
H       0.9355   0.0442   0.0637     H
H       0.9355   0.4558   0.5637     H
H       0.9425   0.6354   0.2212     H
H       0.9425   0.8646   0.7212     H
O      0.94279  0.15831  0.49847     O
O      0.94279  0.34169  0.99847     O
O      0.95286  0.74554   0.8071     O
O      0.95286  0.75446   0.3071     O
Ni     0.95302  0.64267  0.87689    Ni
Ni     0.95302  0.85733  0.37689    Ni
O      0.96081  0.02815  0.65059     O
O      0.96081  0.47185  0.15059     O
O      0.96705  0.24271  0.58198     O
O      0.96705  0.25729  0.08198     O
