data_I
_chemical_name_common  '/home/zhangsd/repos/MofS-CGCNN/ML/data/TSD/clean_cifs/DAHWAM_clean'
_cell_length_a 10.16500
_cell_length_b 22.00500
_cell_length_c 14.14400
_cell_angle_alpha 91.55000
_cell_angle_beta  90.00000
_cell_angle_gamma 90.00000
_space_group_name_H-M_alt      'P 1'


loop_
_space_group_symop_operation_xyz
  'x, y, z' 

loop_
_atom_site_label
_atom_site_fract_x
_atom_site_fract_y
_atom_site_fract_z
_atom_site_type_symbol
C       0.0062   0.4598   0.4236     C
O       0.0066  0.63223   0.7828     O
H       0.0071   0.8424    0.212     H
H       0.0096    0.433   0.3718     H
H       0.0112   0.3148   0.7569     H
O       0.0182  0.85412   0.7049     O
C         0.02  0.98632   0.9048     C
C       0.0228  0.59841   0.1909     C
O       0.0252  0.78328  0.89407     O
C       0.0276  0.33012   0.4835     C
C       0.0336  0.92031   0.2927     C
H       0.0336   0.9775   0.8408     H
C       0.0353  0.83523   0.9359     C
C       0.0368  0.05664   0.0383     C
H       0.0395    0.588   0.9708     H
H       0.0436   0.9056   0.5135     H
C       0.0476  0.97005   0.6194     C
C        0.048   0.4831   0.5865     C
C       0.0514   0.5172   0.8757     C
O       0.0516   0.3063   0.4044     O
C       0.0558  0.44206   0.5104     C
C       0.0567  0.04259   0.9428     C
Eu      0.0578   0.7406  0.73263    Eu
C       0.0652  0.66155   0.2238     C
O       0.0664  0.68372   0.4655     O
O       0.0687  0.71642   0.0809     O
C        0.071  0.11837   0.0789     C
C       0.0782  0.85494    0.629     C
C       0.0785   0.4961   0.1416     C
O       0.0794   0.8128   0.3935     O
H       0.0797    0.472   0.6453     H
C       0.0801   0.8614   0.2454     C
C       0.0842    0.018   0.3651     C
C       0.0848  0.63072   0.8497     C
H       0.0871   0.1152   0.1462     H
C       0.0927   0.9114   0.5719     C
C       0.0934   0.5784   0.9158     C
H       0.0949   0.0712   0.9042     H
C       0.0971  0.06814   0.6912     C
C       0.1081   0.4151   0.8254     C
C       0.1156   0.5534   0.1753     C
C       0.1183  0.38027   0.5209     C
H       0.1236   0.6588   0.2778     H
C       0.1242   0.9637    0.322     C
O       0.1306  0.84707   0.9881     O
O       0.1318  0.80599  0.59765     O
C       0.1344  0.81792   0.3157     C
C       0.1354  0.69243   0.1441     C
H       0.1371   0.3739   0.5872     H
C       0.1376   0.0139   0.6473     C
H       0.1423   0.4665   0.1307     H
C       0.1431   0.4727   0.8591     C
H       0.1468   0.0468   0.3837     H
H       0.1477   0.8704   0.1994     H
H       0.1516   0.1322   0.0499     H
H       0.1596   0.0969   0.7099     H
O        0.162  0.67509  0.86519     O
H       0.1724   0.3857   0.8139     H
H       0.1837   0.5752   0.9373     H
H       0.1847   0.9157    0.555     H
H       0.2008   0.3787   0.4865     H
H       0.2038   0.5616   0.1874     H
H       0.2134   0.9564   0.3128     H
H       0.2268   0.0071   0.6366     H
H       0.2313   0.4812   0.8707     H
O       0.2345  0.78578   0.2955     O
O        0.241  0.69195    0.639     O
Eu      0.2494   0.7506  0.47489    Eu
Eu      0.2506   0.7506  0.97489    Eu
O        0.259  0.69195    0.139     O
O       0.2655  0.78578   0.7955     O
H       0.2687   0.4812   0.3707     H
H       0.2732   0.0071   0.1366     H
H       0.2866   0.9564   0.8128     H
H       0.2962   0.5616   0.6874     H
H       0.2992   0.3787   0.9865     H
H       0.3153   0.9157    0.055     H
H       0.3163   0.5752   0.4373     H
H       0.3276   0.3857   0.3139     H
O        0.338  0.67509  0.36519     O
H       0.3404   0.0969   0.2099     H
H       0.3484   0.1322   0.5499     H
H       0.3523   0.8704   0.6994     H
H       0.3532   0.0468   0.8837     H
C       0.3569   0.4727   0.3591     C
H       0.3577   0.4665   0.6307     H
C       0.3624   0.0139   0.1473     C
H       0.3629   0.3739   0.0872     H
C       0.3646  0.69243   0.6441     C
C       0.3656  0.81792   0.8157     C
O       0.3682  0.80599  0.09765     O
O       0.3694  0.84707   0.4881     O
C       0.3758   0.9637    0.822     C
H       0.3764   0.6588   0.7778     H
C       0.3817  0.38027   0.0209     C
C       0.3844   0.5534   0.6753     C
C       0.3919   0.4151   0.3254     C
C       0.4029  0.06814   0.1912     C
H       0.4051   0.0712   0.4042     H
C       0.4066   0.5784   0.4158     C
C       0.4073   0.9114   0.0719     C
H       0.4129   0.1152   0.6462     H
C       0.4152  0.63072   0.3497     C
C       0.4158    0.018   0.8651     C
C       0.4199   0.8614   0.7454     C
H       0.4203    0.472   0.1453     H
O       0.4206   0.8128   0.8935     O
C       0.4215   0.4961   0.6416     C
C       0.4218  0.85494    0.129     C
C        0.429  0.11837   0.5789     C
O       0.4313  0.71642   0.5809     O
O       0.4336  0.68372   0.9655     O
C       0.4348  0.66155   0.7238     C
Eu      0.4422   0.7406  0.23263    Eu
C       0.4433  0.04259   0.4428     C
C       0.4442  0.44206   0.0104     C
O       0.4484   0.3063   0.9044     O
C       0.4486   0.5172   0.3757     C
C        0.452   0.4831   0.0865     C
C       0.4524  0.97005   0.1194     C
H       0.4564   0.9056   0.0135     H
H       0.4605    0.588   0.4708     H
C       0.4632  0.05664   0.5383     C
C       0.4647  0.83523   0.4359     C
C       0.4664  0.92031   0.7927     C
H       0.4664   0.9775   0.3408     H
C       0.4724  0.33012   0.9835     C
O       0.4748  0.78328  0.39407     O
C       0.4772  0.59841   0.6909     C
C         0.48  0.98632   0.4048     C
O       0.4818  0.85412   0.2049     O
H       0.4888   0.3148   0.2569     H
H       0.4904    0.433   0.8718     H
H       0.4929   0.8424    0.712     H
O       0.4934  0.63223   0.2828     O
C       0.4938   0.4598   0.9236     C
C       0.5062   0.5402   0.0764     C
O       0.5066  0.36777   0.7172     O
H       0.5071   0.1576    0.288     H
H       0.5096    0.567   0.1282     H
H       0.5112   0.6852   0.7431     H
O       0.5182  0.14588   0.7951     O
C         0.52  0.01368   0.5952     C
C       0.5228  0.40159   0.3091     C
O       0.5252  0.21672  0.60593     O
C       0.5276  0.66988   0.0165     C
H       0.5336   0.0225   0.6592     H
C       0.5336  0.07969   0.2073     C
C       0.5353  0.16477   0.5641     C
C       0.5368  0.94336   0.4617     C
H       0.5395    0.412   0.5292     H
H       0.5436   0.0944   0.9865     H
C       0.5476  0.02995   0.8806     C
C        0.548   0.5169   0.9135     C
C       0.5514   0.4828   0.6243     C
O       0.5516   0.6937   0.0956     O
C       0.5558  0.55794   0.9896     C
C       0.5567  0.95741   0.5572     C
Eu      0.5578   0.2594  0.76737    Eu
C       0.5652  0.33845   0.2762     C
O       0.5664  0.31628   0.0345     O
O       0.5687  0.28358   0.4191     O
C        0.571  0.88163   0.4211     C
C       0.5782  0.14506    0.871     C
C       0.5785   0.5039   0.3584     C
O       0.5794   0.1872   0.1065     O
H       0.5797    0.528   0.8547     H
C       0.5801   0.1386   0.2546     C
C       0.5842    0.982   0.1349     C
C       0.5848  0.36928   0.6503     C
H       0.5871   0.8848   0.3538     H
C       0.5927   0.0886   0.9281     C
C       0.5934   0.4216   0.5842     C
H       0.5949   0.9288   0.5958     H
C       0.5971  0.93186   0.8088     C
C       0.6081   0.5849   0.6746     C
C       0.6156   0.4466   0.3247     C
C       0.6183  0.61973   0.9791     C
H       0.6236   0.3412   0.2222     H
C       0.6242   0.0363    0.178     C
O       0.6306  0.15293   0.5119     O
O       0.6318  0.19401  0.90235     O
C       0.6344  0.18208   0.1843     C
C       0.6354  0.30757   0.3559     C
H       0.6371   0.6261   0.9128     H
C       0.6376   0.9861   0.8527     C
H       0.6423   0.5335   0.3693     H
C       0.6431   0.5273   0.6409     C
H       0.6468   0.9532   0.1163     H
H       0.6477   0.1296   0.3006     H
H       0.6516   0.8678   0.4501     H
H       0.6596   0.9031   0.7901     H
O        0.662  0.32491  0.63481     O
H       0.6724   0.6143   0.6861     H
H       0.6837   0.4248   0.5627     H
H       0.6847   0.0843    0.945     H
H       0.7008   0.6213   0.0135     H
H       0.7038   0.4384   0.3126     H
H       0.7134   0.0436   0.1872     H
H       0.7268   0.9929   0.8634     H
H       0.7313   0.5188   0.6293     H
O       0.7345  0.21422   0.2045     O
O        0.741  0.30805    0.861     O
Eu      0.7494   0.2494  0.02511    Eu
Eu      0.7506   0.2494  0.52511    Eu
O        0.759  0.30805    0.361     O
O       0.7655  0.21422   0.7045     O
H       0.7687   0.5188   0.1293     H
H       0.7732   0.9929   0.3634     H
H       0.7866   0.0436   0.6872     H
H       0.7962   0.4384   0.8126     H
H       0.7992   0.6213   0.5135     H
H       0.8153   0.0843    0.445     H
H       0.8163   0.4248   0.0627     H
H       0.8276   0.6143   0.1861     H
O        0.838  0.32491  0.13481     O
H       0.8404   0.9031   0.2901     H
H       0.8484   0.8678   0.9501     H
H       0.8523   0.1296   0.8006     H
H       0.8532   0.9532   0.6163     H
C       0.8569   0.5273   0.1409     C
H       0.8577   0.5335   0.8693     H
C       0.8624   0.9861   0.3527     C
H       0.8629   0.6261   0.4128     H
C       0.8646  0.30757   0.8559     C
C       0.8656  0.18208   0.6843     C
O       0.8682  0.19401  0.40235     O
O       0.8694  0.15293   0.0119     O
C       0.8758   0.0363    0.678     C
H       0.8764   0.3412   0.7222     H
C       0.8817  0.61973   0.4791     C
C       0.8844   0.4466   0.8247     C
C       0.8919   0.5849   0.1746     C
C       0.9029  0.93186   0.3088     C
H       0.9051   0.9288   0.0958     H
C       0.9066   0.4216   0.0842     C
C       0.9073   0.0886   0.4281     C
H       0.9129   0.8848   0.8538     H
C       0.9152  0.36928   0.1503     C
C       0.9158    0.982   0.6349     C
C       0.9199   0.1386   0.7546     C
H       0.9203    0.528   0.3547     H
O       0.9206   0.1872   0.6065     O
C       0.9215   0.5039   0.8584     C
C       0.9218  0.14506    0.371     C
C        0.929  0.88163   0.9211     C
O       0.9313  0.28358   0.9191     O
O       0.9336  0.31628   0.5345     O
C       0.9348  0.33845   0.7762     C
Eu      0.9422   0.2594  0.26737    Eu
C       0.9433  0.95741   0.0572     C
C       0.9442  0.55794   0.4896     C
O       0.9484   0.6937   0.5956     O
C       0.9486   0.4828   0.1243     C
C        0.952   0.5169   0.4135     C
C       0.9524  0.02995   0.3806     C
H       0.9564   0.0944   0.4865     H
H       0.9605    0.412   0.0292     H
C       0.9632  0.94336   0.9617     C
C       0.9647  0.16477   0.0641     C
H       0.9664   0.0225   0.1592     H
C       0.9664  0.07969   0.7073     C
C       0.9724  0.66988   0.5165     C
O       0.9748  0.21672  0.10593     O
C       0.9772  0.40159   0.8091     C
C         0.98  0.01368   0.0952     C
O       0.9818  0.14588   0.2951     O
H       0.9888   0.6852   0.2431     H
H       0.9904    0.567   0.6282     H
H       0.9929   0.1576    0.788     H
O       0.9934  0.36777   0.2172     O
C       0.9938   0.5402   0.5764     C
