data_I
_chemical_name_common  '/home/zhangsd/repos/MofS-CGCNN/ML/data/TSD/clean_cifs/DANVAQ_clean'
_cell_length_a 19.98180
_cell_length_b 19.98180
_cell_length_c 19.98180
_cell_angle_alpha 90.00000
_cell_angle_beta  90.00000
_cell_angle_gamma 90.00000
_space_group_name_H-M_alt      'P 1'


loop_
_space_group_symop_operation_xyz
  'x, y, z' 

loop_
_atom_site_label
_atom_site_fract_x
_atom_site_fract_y
_atom_site_fract_z
_atom_site_type_symbol
H       0.0003   0.7357   0.4679     H
H       0.0003   0.7643   0.9679     H
N       0.0006   0.2424   0.2174     N
N       0.0006   0.2576   0.7174     N
C       0.0007   0.2371   0.0786     C
C       0.0007   0.2629   0.5786     C
La     0.00707  0.74739  0.15339    La
La     0.00707  0.75261  0.65339    La
C       0.0247   0.6882   0.3175     C
C       0.0247   0.8118   0.8175     C
C        0.027   0.2084   0.6807     C
C        0.027   0.2916   0.1807     C
C        0.027   0.6865    0.386     C
C        0.027   0.8135    0.886     C
C       0.0309   0.2083    0.611     C
C       0.0309   0.2917    0.111     C
H       0.0321   0.5003   0.7357     H
H       0.0321   0.9997   0.2357     H
O       0.0414   0.1563   0.7853     O
O       0.0414   0.3437   0.2853     O
O       0.0467   0.6443   0.2098     O
O       0.0467   0.8557   0.7098     O
H       0.0473   0.6508   0.4079     H
H       0.0473   0.8492   0.9079     H
H       0.0521   0.1743   0.5874     H
H       0.0521   0.3257   0.0874     H
C        0.053   0.6348   0.2734     C
C        0.053   0.8652   0.7734     C
C       0.0559   0.1545   0.7227     C
C       0.0559   0.3455   0.2227     C
C       0.0786   0.0007   0.2371     C
C       0.0786   0.4993   0.7371     C
O       0.0809   0.5858   0.2981     O
O       0.0809   0.9142   0.7981     O
O       0.0858   0.2019   0.9191     O
O       0.0858   0.2981   0.4191     O
H       0.0874   0.0521   0.3257     H
H       0.0874   0.4479   0.8257     H
H       0.0921   0.5473   0.6508     H
H       0.0921   0.9527   0.1508     H
O       0.0939   0.1109   0.6983     O
O       0.0939   0.3891   0.1983     O
O       0.1109   0.6983   0.0939     O
O       0.1109   0.8017   0.5939     O
C        0.111   0.0309   0.2917     C
C        0.111   0.4691   0.7917     C
C        0.114    0.527   0.6865     C
C        0.114    0.973   0.1865     C
C       0.1348   0.2266    0.947     C
C       0.1348   0.2734    0.447     C
O       0.1443   0.2098   0.4533     O
O       0.1443   0.2902   0.9533     O
H       0.1508   0.0921   0.9527     H
H       0.1508   0.4079   0.4527     H
La     0.15339  0.00707  0.74739    La
La     0.15339  0.49293  0.24739    La
C       0.1545   0.7227   0.0559     C
C       0.1545   0.7773   0.5559     C
O       0.1563   0.7147   0.5414     O
O       0.1563   0.7853   0.0414     O
H       0.1743   0.5874   0.0521     H
H       0.1743   0.9126   0.5521     H
C       0.1807    0.027   0.2916     C
C       0.1807    0.473   0.7916     C
C       0.1825   0.5247   0.6882     C
C       0.1825   0.9753   0.1882     C
C       0.1865    0.114    0.973     C
C       0.1865    0.386    0.473     C
C       0.1882   0.1825   0.9753     C
C       0.1882   0.3175   0.4753     C
O       0.1983   0.0939   0.3891     O
O       0.1983   0.4061   0.8891     O
O       0.2019   0.5809   0.5858     O
O       0.2019   0.9191   0.0858     O
C       0.2083    0.611   0.0309     C
C       0.2083    0.889   0.5309     C
C       0.2084   0.6807    0.027     C
C       0.2084   0.8193    0.527     C
O       0.2098   0.0467   0.6443     O
O       0.2098   0.4533   0.1443     O
O       0.2147   0.5414   0.3437     O
O       0.2147   0.9586   0.8437     O
N       0.2174   0.0006   0.2424     N
N       0.2174   0.4994   0.7424     N
C       0.2227   0.0559   0.3455     C
C       0.2227   0.4441   0.8455     C
C       0.2266    0.553   0.6348     C
C       0.2266    0.947   0.1348     C
H       0.2357   0.0321   0.9997     H
H       0.2357   0.4679   0.4997     H
C       0.2371   0.0786   0.0007     C
C       0.2371   0.4214   0.5007     C
N       0.2424   0.2174   0.0006     N
N       0.2424   0.2826   0.5006     N
La     0.24739  0.15339  0.49293    La
La     0.24739  0.34661  0.99293    La
La     0.25261  0.65339  0.49293    La
La     0.25261  0.84661  0.99293    La
N       0.2576   0.7174   0.0006     N
N       0.2576   0.7826   0.5006     N
C       0.2629   0.5786   0.0007     C
C       0.2629   0.9214   0.5007     C
H       0.2643   0.5321   0.9997     H
H       0.2643   0.9679   0.4997     H
C       0.2734    0.053   0.6348     C
C       0.2734    0.447   0.1348     C
C       0.2773   0.5559   0.3455     C
C       0.2773   0.9441   0.8455     C
N       0.2826   0.5006   0.2424     N
N       0.2826   0.9994   0.7424     N
O       0.2853   0.0414   0.3437     O
O       0.2853   0.4586   0.8437     O
O       0.2902   0.5467   0.6443     O
O       0.2902   0.9533   0.1443     O
C       0.2916   0.1807    0.027     C
C       0.2916   0.3193    0.527     C
C       0.2917    0.111   0.0309     C
C       0.2917    0.389   0.5309     C
O       0.2981   0.0809   0.5858     O
O       0.2981   0.4191   0.0858     O
O       0.3017   0.5939   0.3891     O
O       0.3017   0.9061   0.8891     O
C       0.3118   0.6825   0.9753     C
C       0.3118   0.8175   0.4753     C
C       0.3135    0.614    0.973     C
C       0.3135    0.886    0.473     C
C       0.3175   0.0247   0.6882     C
C       0.3175   0.4753   0.1882     C
C       0.3193    0.527   0.2916     C
C       0.3193    0.973   0.7916     C
H       0.3257   0.0874   0.0521     H
H       0.3257   0.4126   0.5521     H
O       0.3437   0.2147   0.5414     O
O       0.3437   0.2853   0.0414     O
C       0.3455   0.2227   0.0559     C
C       0.3455   0.2773   0.5559     C
La     0.34661  0.50707  0.74739    La
La     0.34661  0.99293  0.24739    La
H       0.3492   0.5921   0.9527     H
H       0.3492   0.9079   0.4527     H
O       0.3557   0.7098   0.4533     O
O       0.3557   0.7902   0.9533     O
C       0.3652   0.7266    0.947     C
C       0.3652   0.7734    0.447     C
C        0.386    0.027   0.6865     C
C        0.386    0.473   0.1865     C
C        0.389   0.5309   0.2917     C
C        0.389   0.9691   0.7917     C
O       0.3891   0.1983   0.0939     O
O       0.3891   0.3017   0.5939     O
O       0.4061   0.6109   0.6983     O
O       0.4061   0.8891   0.1983     O
H       0.4079   0.0473   0.6508     H
H       0.4079   0.4527   0.1508     H
H       0.4126   0.5521   0.3257     H
H       0.4126   0.9479   0.8257     H
O       0.4142   0.7019   0.9191     O
O       0.4142   0.7981   0.4191     O
O       0.4191   0.0858   0.2981     O
O       0.4191   0.4142   0.7981     O
C       0.4214   0.5007   0.2371     C
C       0.4214   0.9993   0.7371     C
C       0.4441   0.6545   0.7227     C
C       0.4441   0.8455   0.2227     C
C        0.447   0.1348   0.2734     C
C        0.447   0.3652   0.7734     C
H       0.4479   0.6743   0.5874     H
H       0.4479   0.8257   0.0874     H
H       0.4527   0.1508   0.4079     H
H       0.4527   0.3492   0.9079     H
O       0.4533   0.1443   0.2098     O
O       0.4533   0.3557   0.7098     O
O       0.4586   0.6563   0.7853     O
O       0.4586   0.8437   0.2853     O
H       0.4679   0.0003   0.7357     H
H       0.4679   0.4997   0.2357     H
C       0.4691   0.7083    0.611     C
C       0.4691   0.7917    0.111     C
C        0.473   0.1865    0.386     C
C        0.473   0.3135    0.886     C
C        0.473   0.7084   0.6807     C
C        0.473   0.7916   0.1807     C
C       0.4753   0.1882   0.3175     C
C       0.4753   0.3118   0.8175     C
La     0.49293  0.24739  0.15339    La
La     0.49293  0.25261  0.65339    La
C       0.4993   0.7371   0.0786     C
C       0.4993   0.7629   0.5786     C
N       0.4994   0.7424   0.2174     N
N       0.4994   0.7576   0.7174     N
H       0.4997   0.2357   0.4679     H
H       0.4997   0.2643   0.9679     H
H       0.5003   0.7357   0.0321     H
H       0.5003   0.7643   0.5321     H
N       0.5006   0.2424   0.2826     N
N       0.5006   0.2576   0.7826     N
C       0.5007   0.2371   0.4214     C
C       0.5007   0.2629   0.9214     C
La     0.50707  0.74739  0.34661    La
La     0.50707  0.75261  0.84661    La
C       0.5247   0.6882   0.1825     C
C       0.5247   0.8118   0.6825     C
C        0.527   0.2084   0.8193     C
C        0.527   0.2916   0.3193     C
C        0.527   0.6865    0.114     C
C        0.527   0.8135    0.614     C
C       0.5309   0.2083    0.889     C
C       0.5309   0.2917    0.389     C
H       0.5321   0.5003   0.7643     H
H       0.5321   0.9997   0.2643     H
O       0.5414   0.1563   0.7147     O
O       0.5414   0.3437   0.2147     O
O       0.5467   0.6443   0.2902     O
O       0.5467   0.8557   0.7902     O
H       0.5473   0.6508   0.0921     H
H       0.5473   0.8492   0.5921     H
H       0.5521   0.1743   0.9126     H
H       0.5521   0.3257   0.4126     H
C        0.553   0.6348   0.2266     C
C        0.553   0.8652   0.7266     C
C       0.5559   0.1545   0.7773     C
C       0.5559   0.3455   0.2773     C
C       0.5786   0.0007   0.2629     C
C       0.5786   0.4993   0.7629     C
O       0.5809   0.5858   0.2019     O
O       0.5809   0.9142   0.7019     O
O       0.5858   0.2019   0.5809     O
O       0.5858   0.2981   0.0809     O
H       0.5874   0.0521   0.1743     H
H       0.5874   0.4479   0.6743     H
H       0.5921   0.5473   0.8492     H
H       0.5921   0.9527   0.3492     H
O       0.5939   0.1109   0.8017     O
O       0.5939   0.3891   0.3017     O
O       0.6109   0.6983   0.4061     O
O       0.6109   0.8017   0.9061     O
C        0.611   0.0309   0.2083     C
C        0.611   0.4691   0.7083     C
C        0.614    0.527   0.8135     C
C        0.614    0.973   0.3135     C
C       0.6348   0.2266    0.553     C
C       0.6348   0.2734    0.053     C
O       0.6443   0.2098   0.0467     O
O       0.6443   0.2902   0.5467     O
H       0.6508   0.0921   0.5473     H
H       0.6508   0.4079   0.0473     H
La     0.65339  0.00707  0.75261    La
La     0.65339  0.49293  0.25261    La
C       0.6545   0.7227   0.4441     C
C       0.6545   0.7773   0.9441     C
O       0.6563   0.7147   0.9586     O
O       0.6563   0.7853   0.4586     O
H       0.6743   0.5874   0.4479     H
H       0.6743   0.9126   0.9479     H
C       0.6807    0.027   0.2084     C
C       0.6807    0.473   0.7084     C
C       0.6825   0.5247   0.8118     C
C       0.6825   0.9753   0.3118     C
C       0.6865    0.114    0.527     C
C       0.6865    0.386    0.027     C
C       0.6882   0.1825   0.5247     C
C       0.6882   0.3175   0.0247     C
O       0.6983   0.0939   0.1109     O
O       0.6983   0.4061   0.6109     O
O       0.7019   0.5809   0.9142     O
O       0.7019   0.9191   0.4142     O
C       0.7083    0.611   0.4691     C
C       0.7083    0.889   0.9691     C
C       0.7084   0.6807    0.473     C
C       0.7084   0.8193    0.973     C
O       0.7098   0.0467   0.8557     O
O       0.7098   0.4533   0.3557     O
O       0.7147   0.5414   0.1563     O
O       0.7147   0.9586   0.6563     O
N       0.7174   0.0006   0.2576     N
N       0.7174   0.4994   0.7576     N
C       0.7227   0.0559   0.1545     C
C       0.7227   0.4441   0.6545     C
C       0.7266    0.553   0.8652     C
C       0.7266    0.947   0.3652     C
H       0.7357   0.0321   0.5003     H
H       0.7357   0.4679   0.0003     H
C       0.7371   0.0786   0.4993     C
C       0.7371   0.4214   0.9993     C
N       0.7424   0.2174   0.4994     N
N       0.7424   0.2826   0.9994     N
La     0.74739  0.15339  0.00707    La
La     0.74739  0.34661  0.50707    La
La     0.75261  0.65339  0.00707    La
La     0.75261  0.84661  0.50707    La
N       0.7576   0.7174   0.4994     N
N       0.7576   0.7826   0.9994     N
C       0.7629   0.5786   0.4993     C
C       0.7629   0.9214   0.9993     C
H       0.7643   0.5321   0.5003     H
H       0.7643   0.9679   0.0003     H
C       0.7734    0.053   0.8652     C
C       0.7734    0.447   0.3652     C
C       0.7773   0.5559   0.1545     C
C       0.7773   0.9441   0.6545     C
N       0.7826   0.5006   0.2576     N
N       0.7826   0.9994   0.7576     N
O       0.7853   0.0414   0.1563     O
O       0.7853   0.4586   0.6563     O
O       0.7902   0.5467   0.8557     O
O       0.7902   0.9533   0.3557     O
C       0.7916   0.1807    0.473     C
C       0.7916   0.3193    0.973     C
C       0.7917    0.111   0.4691     C
C       0.7917    0.389   0.9691     C
O       0.7981   0.0809   0.9142     O
O       0.7981   0.4191   0.4142     O
O       0.8017   0.5939   0.1109     O
O       0.8017   0.9061   0.6109     O
C       0.8118   0.6825   0.5247     C
C       0.8118   0.8175   0.0247     C
C       0.8135    0.614    0.527     C
C       0.8135    0.886    0.027     C
C       0.8175   0.0247   0.8118     C
C       0.8175   0.4753   0.3118     C
C       0.8193    0.527   0.2084     C
C       0.8193    0.973   0.7084     C
H       0.8257   0.0874   0.4479     H
H       0.8257   0.4126   0.9479     H
O       0.8437   0.2147   0.9586     O
O       0.8437   0.2853   0.4586     O
C       0.8455   0.2227   0.4441     C
C       0.8455   0.2773   0.9441     C
La     0.84661  0.50707  0.75261    La
La     0.84661  0.99293  0.25261    La
H       0.8492   0.5921   0.5473     H
H       0.8492   0.9079   0.0473     H
O       0.8557   0.7098   0.0467     O
O       0.8557   0.7902   0.5467     O
C       0.8652   0.7266    0.553     C
C       0.8652   0.7734    0.053     C
C        0.886    0.027   0.8135     C
C        0.886    0.473   0.3135     C
C        0.889   0.5309   0.2083     C
C        0.889   0.9691   0.7083     C
O       0.8891   0.1983   0.4061     O
O       0.8891   0.3017   0.9061     O
O       0.9061   0.6109   0.8017     O
O       0.9061   0.8891   0.3017     O
H       0.9079   0.0473   0.8492     H
H       0.9079   0.4527   0.3492     H
H       0.9126   0.5521   0.1743     H
H       0.9126   0.9479   0.6743     H
O       0.9142   0.7019   0.5809     O
O       0.9142   0.7981   0.0809     O
O       0.9191   0.0858   0.2019     O
O       0.9191   0.4142   0.7019     O
C       0.9214   0.5007   0.2629     C
C       0.9214   0.9993   0.7629     C
C       0.9441   0.6545   0.7773     C
C       0.9441   0.8455   0.2773     C
C        0.947   0.1348   0.2266     C
C        0.947   0.3652   0.7266     C
H       0.9479   0.6743   0.9126     H
H       0.9479   0.8257   0.4126     H
H       0.9527   0.1508   0.0921     H
H       0.9527   0.3492   0.5921     H
O       0.9533   0.1443   0.2902     O
O       0.9533   0.3557   0.7902     O
O       0.9586   0.6563   0.7147     O
O       0.9586   0.8437   0.2147     O
H       0.9679   0.0003   0.7643     H
H       0.9679   0.4997   0.2643     H
C       0.9691   0.7083    0.889     C
C       0.9691   0.7917    0.389     C
C        0.973   0.1865    0.114     C
C        0.973   0.3135    0.614     C
C        0.973   0.7084   0.8193     C
C        0.973   0.7916   0.3193     C
C       0.9753   0.1882   0.1825     C
C       0.9753   0.3118   0.6825     C
La     0.99293  0.24739  0.34661    La
La     0.99293  0.25261  0.84661    La
C       0.9993   0.7371   0.4214     C
C       0.9993   0.7629   0.9214     C
N       0.9994   0.7424   0.2826     N
N       0.9994   0.7576   0.7826     N
H       0.9997   0.2357   0.0321     H
H       0.9997   0.2643   0.5321     H
