data_I
_chemical_name_common  '/home/zhangsd/repos/MofS-CGCNN/ML/data/TSD/clean_cifs/DAPBED_clean'
_cell_length_a 26.57170
_cell_length_b 26.57170
_cell_length_c 26.57170
_cell_angle_alpha 90.00000
_cell_angle_beta  90.00000
_cell_angle_gamma 90.00000
_space_group_name_H-M_alt      'P 1'


loop_
_space_group_symop_operation_xyz
  'x, y, z' 

loop_
_atom_site_label
_atom_site_fract_x
_atom_site_fract_y
_atom_site_fract_z
_atom_site_type_symbol
Fe         0.0  0.21081  0.28919    Fe
Fe         0.0  0.21081  0.71081    Fe
Fe         0.0  0.28919  0.21081    Fe
Fe         0.0  0.28919  0.78919    Fe
Fe         0.0  0.71081  0.21081    Fe
Fe         0.0  0.71081  0.78919    Fe
Fe         0.0  0.78919  0.28919    Fe
Fe         0.0  0.78919  0.71081    Fe
O       0.0537   0.1829   0.2419     O
O       0.0537   0.1829   0.7581     O
O       0.0537   0.2419   0.1829     O
O       0.0537   0.2419   0.8171     O
O       0.0537   0.2581   0.3171     O
O       0.0537   0.2581   0.6829     O
O       0.0537   0.3171   0.2581     O
O       0.0537   0.3171   0.7419     O
O       0.0537   0.6829   0.2581     O
O       0.0537   0.6829   0.7419     O
O       0.0537   0.7419   0.3171     O
O       0.0537   0.7419   0.6829     O
O       0.0537   0.7581   0.1829     O
O       0.0537   0.7581   0.8171     O
O       0.0537   0.8171   0.2419     O
O       0.0537   0.8171   0.7581     O
C       0.0697   0.2025   0.2025     C
C       0.0697   0.2025   0.7975     C
C       0.0697   0.2975   0.2975     C
C       0.0697   0.2975   0.7025     C
C       0.0697   0.7025   0.2975     C
C       0.0697   0.7025   0.7025     C
C       0.0697   0.7975   0.2025     C
C       0.0697   0.7975   0.7975     C
C       0.1132   0.1775   0.1775     C
C       0.1132   0.1775   0.8225     C
C       0.1132   0.3225   0.3225     C
C       0.1132   0.3225   0.6775     C
C       0.1132   0.6775   0.3225     C
C       0.1132   0.6775   0.6775     C
C       0.1132   0.8225   0.1775     C
C       0.1132   0.8225   0.8225     C
H       0.1209   0.1209   0.2278     H
H       0.1209   0.1209   0.7722     H
H       0.1209   0.2278   0.1209     H
H       0.1209   0.2278   0.8791     H
H       0.1209   0.2722   0.3791     H
H       0.1209   0.2722   0.6209     H
H       0.1209   0.3791   0.2722     H
H       0.1209   0.3791   0.7278     H
H       0.1209   0.6209   0.2722     H
H       0.1209   0.6209   0.7278     H
H       0.1209   0.7278   0.3791     H
H       0.1209   0.7278   0.6209     H
H       0.1209   0.7722   0.1209     H
H       0.1209   0.7722   0.8791     H
H       0.1209   0.8791   0.2278     H
H       0.1209   0.8791   0.7722     H
C       0.1352   0.1352   0.1983     C
C       0.1352   0.1352   0.8017     C
C       0.1352   0.1983   0.1352     C
C       0.1352   0.1983   0.8648     C
C       0.1352   0.3017   0.3648     C
C       0.1352   0.3017   0.6352     C
C       0.1352   0.3648   0.3017     C
C       0.1352   0.3648   0.6983     C
C       0.1352   0.6352   0.3017     C
C       0.1352   0.6352   0.6983     C
C       0.1352   0.6983   0.3648     C
C       0.1352   0.6983   0.6352     C
C       0.1352   0.8017   0.1352     C
C       0.1352   0.8017   0.8648     C
C       0.1352   0.8648   0.1983     C
C       0.1352   0.8648   0.8017     C
C       0.1775   0.1132   0.1775     C
C       0.1775   0.1132   0.8225     C
C       0.1775   0.1775   0.1132     C
C       0.1775   0.1775   0.8868     C
C       0.1775   0.3225   0.3868     C
C       0.1775   0.3225   0.6132     C
C       0.1775   0.3868   0.3225     C
C       0.1775   0.3868   0.6775     C
C       0.1775   0.6132   0.3225     C
C       0.1775   0.6132   0.6775     C
C       0.1775   0.6775   0.3868     C
C       0.1775   0.6775   0.6132     C
C       0.1775   0.8225   0.1132     C
C       0.1775   0.8225   0.8868     C
C       0.1775   0.8868   0.1775     C
C       0.1775   0.8868   0.8225     C
O       0.1829   0.0537   0.2419     O
O       0.1829   0.0537   0.7581     O
O       0.1829   0.2419   0.0537     O
O       0.1829   0.2419   0.9463     O
O       0.1829   0.2581   0.4463     O
O       0.1829   0.2581   0.5537     O
O       0.1829   0.4463   0.2581     O
O       0.1829   0.4463   0.7419     O
O       0.1829   0.5537   0.2581     O
O       0.1829   0.5537   0.7419     O
O       0.1829   0.7419   0.4463     O
O       0.1829   0.7419   0.5537     O
O       0.1829   0.7581   0.0537     O
O       0.1829   0.7581   0.9463     O
O       0.1829   0.9463   0.2419     O
O       0.1829   0.9463   0.7581     O
C       0.1983   0.1352   0.1352     C
C       0.1983   0.1352   0.8648     C
C       0.1983   0.3648   0.3648     C
C       0.1983   0.3648   0.6352     C
C       0.1983   0.6352   0.3648     C
C       0.1983   0.6352   0.6352     C
C       0.1983   0.8648   0.1352     C
C       0.1983   0.8648   0.8648     C
C       0.2025   0.0697   0.2025     C
C       0.2025   0.0697   0.7975     C
C       0.2025   0.2025   0.0697     C
C       0.2025   0.2025   0.9303     C
C       0.2025   0.2975   0.4303     C
C       0.2025   0.2975   0.5697     C
C       0.2025   0.4303   0.2975     C
C       0.2025   0.4303   0.7025     C
C       0.2025   0.5697   0.2975     C
C       0.2025   0.5697   0.7025     C
C       0.2025   0.7025   0.4303     C
C       0.2025   0.7025   0.5697     C
C       0.2025   0.7975   0.0697     C
C       0.2025   0.7975   0.9303     C
C       0.2025   0.9303   0.2025     C
C       0.2025   0.9303   0.7975     C
Fe     0.21081      0.0  0.28919    Fe
Fe     0.21081      0.0  0.71081    Fe
Fe     0.21081  0.21081      0.5    Fe
Fe     0.21081  0.28919      0.0    Fe
Fe     0.21081      0.5  0.21081    Fe
Fe     0.21081      0.5  0.78919    Fe
Fe     0.21081  0.71081      0.0    Fe
Fe     0.21081  0.78919      0.5    Fe
H       0.2278   0.1209   0.1209     H
H       0.2278   0.1209   0.8791     H
H       0.2278   0.3791   0.3791     H
H       0.2278   0.3791   0.6209     H
H       0.2278   0.6209   0.3791     H
H       0.2278   0.6209   0.6209     H
H       0.2278   0.8791   0.1209     H
H       0.2278   0.8791   0.8791     H
O       0.2419   0.0537   0.1829     O
O       0.2419   0.0537   0.8171     O
O       0.2419   0.1829   0.0537     O
O       0.2419   0.1829   0.9463     O
O       0.2419   0.3171   0.4463     O
O       0.2419   0.3171   0.5537     O
O       0.2419   0.4463   0.3171     O
O       0.2419   0.4463   0.6829     O
O       0.2419   0.5537   0.3171     O
O       0.2419   0.5537   0.6829     O
O       0.2419   0.6829   0.4463     O
O       0.2419   0.6829   0.5537     O
O       0.2419   0.8171   0.0537     O
O       0.2419   0.8171   0.9463     O
O       0.2419   0.9463   0.1829     O
O       0.2419   0.9463   0.8171     O
O       0.2581   0.0537   0.3171     O
O       0.2581   0.0537   0.6829     O
O       0.2581   0.1829   0.4463     O
O       0.2581   0.1829   0.5537     O
O       0.2581   0.3171   0.0537     O
O       0.2581   0.3171   0.9463     O
O       0.2581   0.4463   0.1829     O
O       0.2581   0.4463   0.8171     O
O       0.2581   0.5537   0.1829     O
O       0.2581   0.5537   0.8171     O
O       0.2581   0.6829   0.0537     O
O       0.2581   0.6829   0.9463     O
O       0.2581   0.8171   0.4463     O
O       0.2581   0.8171   0.5537     O
O       0.2581   0.9463   0.3171     O
O       0.2581   0.9463   0.6829     O
H       0.2722   0.1209   0.3791     H
H       0.2722   0.1209   0.6209     H
H       0.2722   0.3791   0.1209     H
H       0.2722   0.3791   0.8791     H
H       0.2722   0.6209   0.1209     H
H       0.2722   0.6209   0.8791     H
H       0.2722   0.8791   0.3791     H
H       0.2722   0.8791   0.6209     H
Fe     0.28919      0.0  0.21081    Fe
Fe     0.28919      0.0  0.78919    Fe
Fe     0.28919  0.21081      0.0    Fe
Fe     0.28919  0.28919      0.5    Fe
Fe     0.28919      0.5  0.28919    Fe
Fe     0.28919      0.5  0.71081    Fe
Fe     0.28919  0.71081      0.5    Fe
Fe     0.28919  0.78919      0.0    Fe
C       0.2975   0.0697   0.2975     C
C       0.2975   0.0697   0.7025     C
C       0.2975   0.2025   0.4303     C
C       0.2975   0.2025   0.5697     C
C       0.2975   0.2975   0.0697     C
C       0.2975   0.2975   0.9303     C
C       0.2975   0.4303   0.2025     C
C       0.2975   0.4303   0.7975     C
C       0.2975   0.5697   0.2025     C
C       0.2975   0.5697   0.7975     C
C       0.2975   0.7025   0.0697     C
C       0.2975   0.7025   0.9303     C
C       0.2975   0.7975   0.4303     C
C       0.2975   0.7975   0.5697     C
C       0.2975   0.9303   0.2975     C
C       0.2975   0.9303   0.7025     C
C       0.3017   0.1352   0.3648     C
C       0.3017   0.1352   0.6352     C
C       0.3017   0.3648   0.1352     C
C       0.3017   0.3648   0.8648     C
C       0.3017   0.6352   0.1352     C
C       0.3017   0.6352   0.8648     C
C       0.3017   0.8648   0.3648     C
C       0.3017   0.8648   0.6352     C
O       0.3171   0.0537   0.2581     O
O       0.3171   0.0537   0.7419     O
O       0.3171   0.2419   0.4463     O
O       0.3171   0.2419   0.5537     O
O       0.3171   0.2581   0.0537     O
O       0.3171   0.2581   0.9463     O
O       0.3171   0.4463   0.2419     O
O       0.3171   0.4463   0.7581     O
O       0.3171   0.5537   0.2419     O
O       0.3171   0.5537   0.7581     O
O       0.3171   0.7419   0.0537     O
O       0.3171   0.7419   0.9463     O
O       0.3171   0.7581   0.4463     O
O       0.3171   0.7581   0.5537     O
O       0.3171   0.9463   0.2581     O
O       0.3171   0.9463   0.7419     O
C       0.3225   0.1132   0.3225     C
C       0.3225   0.1132   0.6775     C
C       0.3225   0.1775   0.3868     C
C       0.3225   0.1775   0.6132     C
C       0.3225   0.3225   0.1132     C
C       0.3225   0.3225   0.8868     C
C       0.3225   0.3868   0.1775     C
C       0.3225   0.3868   0.8225     C
C       0.3225   0.6132   0.1775     C
C       0.3225   0.6132   0.8225     C
C       0.3225   0.6775   0.1132     C
C       0.3225   0.6775   0.8868     C
C       0.3225   0.8225   0.3868     C
C       0.3225   0.8225   0.6132     C
C       0.3225   0.8868   0.3225     C
C       0.3225   0.8868   0.6775     C
C       0.3648   0.1352   0.3017     C
C       0.3648   0.1352   0.6983     C
C       0.3648   0.1983   0.3648     C
C       0.3648   0.1983   0.6352     C
C       0.3648   0.3017   0.1352     C
C       0.3648   0.3017   0.8648     C
C       0.3648   0.3648   0.1983     C
C       0.3648   0.3648   0.8017     C
C       0.3648   0.6352   0.1983     C
C       0.3648   0.6352   0.8017     C
C       0.3648   0.6983   0.1352     C
C       0.3648   0.6983   0.8648     C
C       0.3648   0.8017   0.3648     C
C       0.3648   0.8017   0.6352     C
C       0.3648   0.8648   0.3017     C
C       0.3648   0.8648   0.6983     C
H       0.3791   0.1209   0.2722     H
H       0.3791   0.1209   0.7278     H
H       0.3791   0.2278   0.3791     H
H       0.3791   0.2278   0.6209     H
H       0.3791   0.2722   0.1209     H
H       0.3791   0.2722   0.8791     H
H       0.3791   0.3791   0.2278     H
H       0.3791   0.3791   0.7722     H
H       0.3791   0.6209   0.2278     H
H       0.3791   0.6209   0.7722     H
H       0.3791   0.7278   0.1209     H
H       0.3791   0.7278   0.8791     H
H       0.3791   0.7722   0.3791     H
H       0.3791   0.7722   0.6209     H
H       0.3791   0.8791   0.2722     H
H       0.3791   0.8791   0.7278     H
C       0.3868   0.1775   0.3225     C
C       0.3868   0.1775   0.6775     C
C       0.3868   0.3225   0.1775     C
C       0.3868   0.3225   0.8225     C
C       0.3868   0.6775   0.1775     C
C       0.3868   0.6775   0.8225     C
C       0.3868   0.8225   0.3225     C
C       0.3868   0.8225   0.6775     C
C       0.4303   0.2025   0.2975     C
C       0.4303   0.2025   0.7025     C
C       0.4303   0.2975   0.2025     C
C       0.4303   0.2975   0.7975     C
C       0.4303   0.7025   0.2025     C
C       0.4303   0.7025   0.7975     C
C       0.4303   0.7975   0.2975     C
C       0.4303   0.7975   0.7025     C
O       0.4463   0.1829   0.2581     O
O       0.4463   0.1829   0.7419     O
O       0.4463   0.2419   0.3171     O
O       0.4463   0.2419   0.6829     O
O       0.4463   0.2581   0.1829     O
O       0.4463   0.2581   0.8171     O
O       0.4463   0.3171   0.2419     O
O       0.4463   0.3171   0.7581     O
O       0.4463   0.6829   0.2419     O
O       0.4463   0.6829   0.7581     O
O       0.4463   0.7419   0.1829     O
O       0.4463   0.7419   0.8171     O
O       0.4463   0.7581   0.3171     O
O       0.4463   0.7581   0.6829     O
O       0.4463   0.8171   0.2581     O
O       0.4463   0.8171   0.7419     O
Fe         0.5  0.21081  0.21081    Fe
Fe         0.5  0.21081  0.78919    Fe
Fe         0.5  0.28919  0.28919    Fe
Fe         0.5  0.28919  0.71081    Fe
Fe         0.5  0.71081  0.28919    Fe
Fe         0.5  0.71081  0.71081    Fe
Fe         0.5  0.78919  0.21081    Fe
Fe         0.5  0.78919  0.78919    Fe
O       0.5537   0.1829   0.2581     O
O       0.5537   0.1829   0.7419     O
O       0.5537   0.2419   0.3171     O
O       0.5537   0.2419   0.6829     O
O       0.5537   0.2581   0.1829     O
O       0.5537   0.2581   0.8171     O
O       0.5537   0.3171   0.2419     O
O       0.5537   0.3171   0.7581     O
O       0.5537   0.6829   0.2419     O
O       0.5537   0.6829   0.7581     O
O       0.5537   0.7419   0.1829     O
O       0.5537   0.7419   0.8171     O
O       0.5537   0.7581   0.3171     O
O       0.5537   0.7581   0.6829     O
O       0.5537   0.8171   0.2581     O
O       0.5537   0.8171   0.7419     O
C       0.5697   0.2025   0.2975     C
C       0.5697   0.2025   0.7025     C
C       0.5697   0.2975   0.2025     C
C       0.5697   0.2975   0.7975     C
C       0.5697   0.7025   0.2025     C
C       0.5697   0.7025   0.7975     C
C       0.5697   0.7975   0.2975     C
C       0.5697   0.7975   0.7025     C
C       0.6132   0.1775   0.3225     C
C       0.6132   0.1775   0.6775     C
C       0.6132   0.3225   0.1775     C
C       0.6132   0.3225   0.8225     C
C       0.6132   0.6775   0.1775     C
C       0.6132   0.6775   0.8225     C
C       0.6132   0.8225   0.3225     C
C       0.6132   0.8225   0.6775     C
H       0.6209   0.1209   0.2722     H
H       0.6209   0.1209   0.7278     H
H       0.6209   0.2278   0.3791     H
H       0.6209   0.2278   0.6209     H
H       0.6209   0.2722   0.1209     H
H       0.6209   0.2722   0.8791     H
H       0.6209   0.3791   0.2278     H
H       0.6209   0.3791   0.7722     H
H       0.6209   0.6209   0.2278     H
H       0.6209   0.6209   0.7722     H
H       0.6209   0.7278   0.1209     H
H       0.6209   0.7278   0.8791     H
H       0.6209   0.7722   0.3791     H
H       0.6209   0.7722   0.6209     H
H       0.6209   0.8791   0.2722     H
H       0.6209   0.8791   0.7278     H
C       0.6352   0.1352   0.3017     C
C       0.6352   0.1352   0.6983     C
C       0.6352   0.1983   0.3648     C
C       0.6352   0.1983   0.6352     C
C       0.6352   0.3017   0.1352     C
C       0.6352   0.3017   0.8648     C
C       0.6352   0.3648   0.1983     C
C       0.6352   0.3648   0.8017     C
C       0.6352   0.6352   0.1983     C
C       0.6352   0.6352   0.8017     C
C       0.6352   0.6983   0.1352     C
C       0.6352   0.6983   0.8648     C
C       0.6352   0.8017   0.3648     C
C       0.6352   0.8017   0.6352     C
C       0.6352   0.8648   0.3017     C
C       0.6352   0.8648   0.6983     C
C       0.6775   0.1132   0.3225     C
C       0.6775   0.1132   0.6775     C
C       0.6775   0.1775   0.3868     C
C       0.6775   0.1775   0.6132     C
C       0.6775   0.3225   0.1132     C
C       0.6775   0.3225   0.8868     C
C       0.6775   0.3868   0.1775     C
C       0.6775   0.3868   0.8225     C
C       0.6775   0.6132   0.1775     C
C       0.6775   0.6132   0.8225     C
C       0.6775   0.6775   0.1132     C
C       0.6775   0.6775   0.8868     C
C       0.6775   0.8225   0.3868     C
C       0.6775   0.8225   0.6132     C
C       0.6775   0.8868   0.3225     C
C       0.6775   0.8868   0.6775     C
O       0.6829   0.0537   0.2581     O
O       0.6829   0.0537   0.7419     O
O       0.6829   0.2419   0.4463     O
O       0.6829   0.2419   0.5537     O
O       0.6829   0.2581   0.0537     O
O       0.6829   0.2581   0.9463     O
O       0.6829   0.4463   0.2419     O
O       0.6829   0.4463   0.7581     O
O       0.6829   0.5537   0.2419     O
O       0.6829   0.5537   0.7581     O
O       0.6829   0.7419   0.0537     O
O       0.6829   0.7419   0.9463     O
O       0.6829   0.7581   0.4463     O
O       0.6829   0.7581   0.5537     O
O       0.6829   0.9463   0.2581     O
O       0.6829   0.9463   0.7419     O
C       0.6983   0.1352   0.3648     C
C       0.6983   0.1352   0.6352     C
C       0.6983   0.3648   0.1352     C
C       0.6983   0.3648   0.8648     C
C       0.6983   0.6352   0.1352     C
C       0.6983   0.6352   0.8648     C
C       0.6983   0.8648   0.3648     C
C       0.6983   0.8648   0.6352     C
C       0.7025   0.0697   0.2975     C
C       0.7025   0.0697   0.7025     C
C       0.7025   0.2025   0.4303     C
C       0.7025   0.2025   0.5697     C
C       0.7025   0.2975   0.0697     C
C       0.7025   0.2975   0.9303     C
C       0.7025   0.4303   0.2025     C
C       0.7025   0.4303   0.7975     C
C       0.7025   0.5697   0.2025     C
C       0.7025   0.5697   0.7975     C
C       0.7025   0.7025   0.0697     C
C       0.7025   0.7025   0.9303     C
C       0.7025   0.7975   0.4303     C
C       0.7025   0.7975   0.5697     C
C       0.7025   0.9303   0.2975     C
C       0.7025   0.9303   0.7025     C
Fe     0.71081      0.0  0.21081    Fe
Fe     0.71081      0.0  0.78919    Fe
Fe     0.71081  0.21081      0.0    Fe
Fe     0.71081  0.28919      0.5    Fe
Fe     0.71081      0.5  0.28919    Fe
Fe     0.71081      0.5  0.71081    Fe
Fe     0.71081  0.71081      0.5    Fe
Fe     0.71081  0.78919      0.0    Fe
H       0.7278   0.1209   0.3791     H
H       0.7278   0.1209   0.6209     H
H       0.7278   0.3791   0.1209     H
H       0.7278   0.3791   0.8791     H
H       0.7278   0.6209   0.1209     H
H       0.7278   0.6209   0.8791     H
H       0.7278   0.8791   0.3791     H
H       0.7278   0.8791   0.6209     H
O       0.7419   0.0537   0.3171     O
O       0.7419   0.0537   0.6829     O
O       0.7419   0.1829   0.4463     O
O       0.7419   0.1829   0.5537     O
O       0.7419   0.3171   0.0537     O
O       0.7419   0.3171   0.9463     O
O       0.7419   0.4463   0.1829     O
O       0.7419   0.4463   0.8171     O
O       0.7419   0.5537   0.1829     O
O       0.7419   0.5537   0.8171     O
O       0.7419   0.6829   0.0537     O
O       0.7419   0.6829   0.9463     O
O       0.7419   0.8171   0.4463     O
O       0.7419   0.8171   0.5537     O
O       0.7419   0.9463   0.3171     O
O       0.7419   0.9463   0.6829     O
O       0.7581   0.0537   0.1829     O
O       0.7581   0.0537   0.8171     O
O       0.7581   0.1829   0.0537     O
O       0.7581   0.1829   0.9463     O
O       0.7581   0.3171   0.4463     O
O       0.7581   0.3171   0.5537     O
O       0.7581   0.4463   0.3171     O
O       0.7581   0.4463   0.6829     O
O       0.7581   0.5537   0.3171     O
O       0.7581   0.5537   0.6829     O
O       0.7581   0.6829   0.4463     O
O       0.7581   0.6829   0.5537     O
O       0.7581   0.8171   0.0537     O
O       0.7581   0.8171   0.9463     O
O       0.7581   0.9463   0.1829     O
O       0.7581   0.9463   0.8171     O
H       0.7722   0.1209   0.1209     H
H       0.7722   0.1209   0.8791     H
H       0.7722   0.3791   0.3791     H
H       0.7722   0.3791   0.6209     H
H       0.7722   0.6209   0.3791     H
H       0.7722   0.6209   0.6209     H
H       0.7722   0.8791   0.1209     H
H       0.7722   0.8791   0.8791     H
Fe     0.78919      0.0  0.28919    Fe
Fe     0.78919      0.0  0.71081    Fe
Fe     0.78919  0.21081      0.5    Fe
Fe     0.78919  0.28919      0.0    Fe
Fe     0.78919      0.5  0.21081    Fe
Fe     0.78919      0.5  0.78919    Fe
Fe     0.78919  0.71081      0.0    Fe
Fe     0.78919  0.78919      0.5    Fe
C       0.7975   0.0697   0.2025     C
C       0.7975   0.0697   0.7975     C
C       0.7975   0.2025   0.0697     C
C       0.7975   0.2025   0.9303     C
C       0.7975   0.2975   0.4303     C
C       0.7975   0.2975   0.5697     C
C       0.7975   0.4303   0.2975     C
C       0.7975   0.4303   0.7025     C
C       0.7975   0.5697   0.2975     C
C       0.7975   0.5697   0.7025     C
C       0.7975   0.7025   0.4303     C
C       0.7975   0.7025   0.5697     C
C       0.7975   0.7975   0.0697     C
C       0.7975   0.7975   0.9303     C
C       0.7975   0.9303   0.2025     C
C       0.7975   0.9303   0.7975     C
C       0.8017   0.1352   0.1352     C
C       0.8017   0.1352   0.8648     C
C       0.8017   0.3648   0.3648     C
C       0.8017   0.3648   0.6352     C
C       0.8017   0.6352   0.3648     C
C       0.8017   0.6352   0.6352     C
C       0.8017   0.8648   0.1352     C
C       0.8017   0.8648   0.8648     C
O       0.8171   0.0537   0.2419     O
O       0.8171   0.0537   0.7581     O
O       0.8171   0.2419   0.0537     O
O       0.8171   0.2419   0.9463     O
O       0.8171   0.2581   0.4463     O
O       0.8171   0.2581   0.5537     O
O       0.8171   0.4463   0.2581     O
O       0.8171   0.4463   0.7419     O
O       0.8171   0.5537   0.2581     O
O       0.8171   0.5537   0.7419     O
O       0.8171   0.7419   0.4463     O
O       0.8171   0.7419   0.5537     O
O       0.8171   0.7581   0.0537     O
O       0.8171   0.7581   0.9463     O
O       0.8171   0.9463   0.2419     O
O       0.8171   0.9463   0.7581     O
C       0.8225   0.1132   0.1775     C
C       0.8225   0.1132   0.8225     C
C       0.8225   0.1775   0.1132     C
C       0.8225   0.1775   0.8868     C
C       0.8225   0.3225   0.3868     C
C       0.8225   0.3225   0.6132     C
C       0.8225   0.3868   0.3225     C
C       0.8225   0.3868   0.6775     C
C       0.8225   0.6132   0.3225     C
C       0.8225   0.6132   0.6775     C
C       0.8225   0.6775   0.3868     C
C       0.8225   0.6775   0.6132     C
C       0.8225   0.8225   0.1132     C
C       0.8225   0.8225   0.8868     C
C       0.8225   0.8868   0.1775     C
C       0.8225   0.8868   0.8225     C
C       0.8648   0.1352   0.1983     C
C       0.8648   0.1352   0.8017     C
C       0.8648   0.1983   0.1352     C
C       0.8648   0.1983   0.8648     C
C       0.8648   0.3017   0.3648     C
C       0.8648   0.3017   0.6352     C
C       0.8648   0.3648   0.3017     C
C       0.8648   0.3648   0.6983     C
C       0.8648   0.6352   0.3017     C
C       0.8648   0.6352   0.6983     C
C       0.8648   0.6983   0.3648     C
C       0.8648   0.6983   0.6352     C
C       0.8648   0.8017   0.1352     C
C       0.8648   0.8017   0.8648     C
C       0.8648   0.8648   0.1983     C
C       0.8648   0.8648   0.8017     C
H       0.8791   0.1209   0.2278     H
H       0.8791   0.1209   0.7722     H
H       0.8791   0.2278   0.1209     H
H       0.8791   0.2278   0.8791     H
H       0.8791   0.2722   0.3791     H
H       0.8791   0.2722   0.6209     H
H       0.8791   0.3791   0.2722     H
H       0.8791   0.3791   0.7278     H
H       0.8791   0.6209   0.2722     H
H       0.8791   0.6209   0.7278     H
H       0.8791   0.7278   0.3791     H
H       0.8791   0.7278   0.6209     H
H       0.8791   0.7722   0.1209     H
H       0.8791   0.7722   0.8791     H
H       0.8791   0.8791   0.2278     H
H       0.8791   0.8791   0.7722     H
C       0.8868   0.1775   0.1775     C
C       0.8868   0.1775   0.8225     C
C       0.8868   0.3225   0.3225     C
C       0.8868   0.3225   0.6775     C
C       0.8868   0.6775   0.3225     C
C       0.8868   0.6775   0.6775     C
C       0.8868   0.8225   0.1775     C
C       0.8868   0.8225   0.8225     C
C       0.9303   0.2025   0.2025     C
C       0.9303   0.2025   0.7975     C
C       0.9303   0.2975   0.2975     C
C       0.9303   0.2975   0.7025     C
C       0.9303   0.7025   0.2975     C
C       0.9303   0.7025   0.7025     C
C       0.9303   0.7975   0.2025     C
C       0.9303   0.7975   0.7975     C
O       0.9463   0.1829   0.2419     O
O       0.9463   0.1829   0.7581     O
O       0.9463   0.2419   0.1829     O
O       0.9463   0.2419   0.8171     O
O       0.9463   0.2581   0.3171     O
O       0.9463   0.2581   0.6829     O
O       0.9463   0.3171   0.2581     O
O       0.9463   0.3171   0.7419     O
O       0.9463   0.6829   0.2581     O
O       0.9463   0.6829   0.7419     O
O       0.9463   0.7419   0.3171     O
O       0.9463   0.7419   0.6829     O
O       0.9463   0.7581   0.1829     O
O       0.9463   0.7581   0.8171     O
O       0.9463   0.8171   0.2419     O
O       0.9463   0.8171   0.7581     O
