data_I
_chemical_name_common  '/home/zhangsd/repos/MofS-CGCNN/ML/data/TSD/clean_cifs/DAPXEZ_clean'
_cell_length_a  9.87070
_cell_length_b 16.50870
_cell_length_c 16.47220
_cell_angle_alpha 90.00000
_cell_angle_beta  90.00000
_cell_angle_gamma 90.00000
_space_group_name_H-M_alt      'P 1'


loop_
_space_group_symop_operation_xyz
  'x, y, z' 

loop_
_atom_site_label
_atom_site_fract_x
_atom_site_fract_y
_atom_site_fract_z
_atom_site_type_symbol
O       0.0139   0.1653    0.965     O
O       0.0139   0.3347    0.465     O
O       0.0234   0.1289   0.5346     O
O       0.0234   0.3711   0.0346     O
Ge     0.02435  0.55814  0.72244    Ge
Ge     0.02435  0.94186  0.22244    Ge
O        0.028   0.1001    0.814     O
O        0.028   0.3999    0.314     O
Ge     0.04548  0.07292  0.91424    Ge
Ge     0.04548  0.42708  0.41424    Ge
O       0.0565   0.1712   0.1364     O
O       0.0565   0.3288   0.6364     O
Ge     0.06377  0.66318  0.06008    Ge
Ge     0.06377  0.83682  0.56008    Ge
O       0.0683   0.0023   0.4402     O
O       0.0683   0.4977   0.9402     O
O       0.0891   0.0177   0.0735     O
O       0.0891   0.4823   0.5735     O
Ge     0.09054  0.02502  0.55226    Ge
Ge     0.09054  0.47498  0.05226    Ge
O       0.1153   0.0312   0.2426     O
O       0.1153   0.4688   0.7426     O
O       0.1173   0.0443   0.6625     O
O       0.1173   0.4557   0.1625     O
Ge     0.13241  0.65125  0.57743    Ge
Ge     0.13241  0.84875  0.07743    Ge
O       0.1357   0.6315   0.6813     O
O       0.1357   0.8685   0.1813     O
O       0.1675   0.5795   0.0684     O
O       0.1675   0.9205   0.5684     O
O       0.1714   0.7464   0.0668     O
O       0.1714   0.7536   0.5668     O
Ge     0.17333  0.09544  0.16394    Ge
Ge     0.17333  0.40456  0.66394    Ge
O       0.2133   0.0471   0.9281     O
O       0.2133   0.4529   0.4281     O
H       0.2629   0.1542    0.598     H
H       0.2629   0.3458    0.098     H
O       0.2662   0.6023   0.5292     O
O       0.2662   0.8977   0.0292     O
O       0.2686   0.0584   0.5266     O
O       0.2686   0.4416   0.0266     O
Ge     0.27042  0.00521  0.02202    Ge
Ge     0.27042  0.49479  0.52202    Ge
O       0.3173   0.0683   0.1041     O
O       0.3173   0.4317   0.6041     O
C       0.3322   0.1201   0.5741     C
C       0.3322   0.3799   0.0741     C
N       0.3348   0.5756   0.9123     N
N       0.3348   0.9244   0.4123     N
Ni     0.37116  0.55204  0.03555    Ni
Ni     0.37116  0.94796  0.53555    Ni
H       0.3873   0.1538   0.5389     H
H       0.3873   0.3462   0.0389     H
H       0.3993   0.1126   0.6923     H
H       0.3993   0.3874   0.1923     H
H       0.4016   0.5408   0.3796     H
H       0.4016   0.9592   0.8796     H
N       0.4023   0.5075   0.1524     N
N       0.4023   0.9925   0.6524     N
H       0.4128   0.5208   0.8111     H
H       0.4128   0.9792   0.3111     H
C       0.4212   0.0857   0.6416     C
C       0.4212   0.4143   0.1416     C
C       0.4483   0.5419   0.8618     C
C       0.4483   0.9581   0.3618     C
O       0.4494   0.0051   0.9881     O
O       0.4494   0.4949   0.4881     O
H       0.4571   0.0707    0.412     H
H       0.4571   0.4293    0.912     H
C       0.4833   0.5242   0.4078     C
C       0.4833   0.9758   0.9078     C
H       0.4846   0.5969   0.6292     H
H       0.4846   0.9031   0.1292     H
H       0.4871   0.0843   0.8493     H
H       0.4871   0.4157   0.3493     H
H       0.5129   0.5843   0.8493     H
H       0.5129   0.9157   0.3493     H
H       0.5154   0.0969   0.6292     H
H       0.5154   0.4031   0.1292     H
C       0.5167   0.0242   0.4078     C
C       0.5167   0.4758   0.9078     C
H       0.5429   0.5707    0.412     H
H       0.5429   0.9293    0.912     H
O       0.5506   0.5051   0.9881     O
O       0.5506   0.9949   0.4881     O
C       0.5517   0.0419   0.8618     C
C       0.5517   0.4581   0.3618     C
C       0.5788   0.5857   0.6416     C
C       0.5788   0.9143   0.1416     C
H       0.5872   0.0208   0.8111     H
H       0.5872   0.4792   0.3111     H
N       0.5977   0.0075   0.1524     N
N       0.5977   0.4925   0.6524     N
H       0.5984   0.0408   0.3796     H
H       0.5984   0.4592   0.8796     H
H       0.6007   0.6126   0.6923     H
H       0.6007   0.8874   0.1923     H
H       0.6127   0.6538   0.5389     H
H       0.6127   0.8462   0.0389     H
Ni     0.62884  0.05204  0.03555    Ni
Ni     0.62884  0.44796  0.53555    Ni
N       0.6652   0.0756   0.9123     N
N       0.6652   0.4244   0.4123     N
C       0.6678   0.6201   0.5741     C
C       0.6678   0.8799   0.0741     C
O       0.6827   0.5683   0.1041     O
O       0.6827   0.9317   0.6041     O
Ge     0.72958  0.50521  0.02202    Ge
Ge     0.72958  0.99479  0.52202    Ge
O       0.7314   0.5584   0.5266     O
O       0.7314   0.9416   0.0266     O
O       0.7338   0.1023   0.5292     O
O       0.7338   0.3977   0.0292     O
H       0.7371   0.6542    0.598     H
H       0.7371   0.8458    0.098     H
O       0.7867   0.5471   0.9281     O
O       0.7867   0.9529   0.4281     O
Ge     0.82667  0.59544  0.16394    Ge
Ge     0.82667  0.90456  0.66394    Ge
O       0.8286   0.2464   0.0668     O
O       0.8286   0.2536   0.5668     O
O       0.8325   0.0795   0.0684     O
O       0.8325   0.4205   0.5684     O
O       0.8643   0.1315   0.6813     O
O       0.8643   0.3685   0.1813     O
Ge     0.86759  0.15125  0.57743    Ge
Ge     0.86759  0.34875  0.07743    Ge
O       0.8827   0.5443   0.6625     O
O       0.8827   0.9557   0.1625     O
O       0.8847   0.5312   0.2426     O
O       0.8847   0.9688   0.7426     O
Ge     0.90946  0.52502  0.55226    Ge
Ge     0.90946  0.97498  0.05226    Ge
O       0.9109   0.5177   0.0735     O
O       0.9109   0.9823   0.5735     O
O       0.9317   0.5023   0.4402     O
O       0.9317   0.9977   0.9402     O
Ge     0.93623  0.16318  0.06008    Ge
Ge     0.93623  0.33682  0.56008    Ge
O       0.9435   0.6712   0.1364     O
O       0.9435   0.8288   0.6364     O
Ge     0.95452  0.57292  0.91424    Ge
Ge     0.95452  0.92708  0.41424    Ge
O        0.972   0.6001    0.814     O
O        0.972   0.8999    0.314     O
Ge     0.97565  0.05814  0.72244    Ge
Ge     0.97565  0.44186  0.22244    Ge
O       0.9766   0.6289   0.5346     O
O       0.9766   0.8711   0.0346     O
O       0.9861   0.6653    0.965     O
O       0.9861   0.8347    0.465     O
