data_I
_chemical_name_common  '/home/zhangsd/repos/MofS-CGCNN/ML/data/TSD/clean_cifs/DARJUD_clean'
_cell_length_a  8.88500
_cell_length_b 14.23100
_cell_length_c 15.04900
_cell_angle_alpha 90.00000
_cell_angle_beta  94.95700
_cell_angle_gamma 90.00000
_space_group_name_H-M_alt      'P 1'


loop_
_space_group_symop_operation_xyz
  'x, y, z' 

loop_
_atom_site_label
_atom_site_fract_x
_atom_site_fract_y
_atom_site_fract_z
_atom_site_type_symbol
O       0.0037   0.5379   0.3776     O
O       0.0037   0.9621   0.8776     O
O        0.013   0.1655   0.9002     O
O        0.013   0.3345   0.4002     O
O       0.0282   0.7441   0.7461     O
O       0.0282   0.7559   0.2461     O
O       0.0442   0.0264   0.3776     O
O       0.0442   0.4736   0.8776     O
O       0.0457    0.645   0.9086     O
O       0.0457    0.855   0.4086     O
Zn     0.07589   0.2142  0.66429    Zn
Al     0.07589   0.2858  0.16429    Al
P      0.09925  0.71818  0.66227     P
P      0.09925  0.78182  0.16227     P
Al     0.12114  0.05971  0.90992    Al
Al     0.12114  0.44029  0.40992    Al
O       0.1386   0.1859   0.1155     O
O       0.1386   0.3141   0.6155     O
P      0.14032   0.5558  0.91283     P
P      0.14032   0.9442  0.41283     P
Al     0.14067  0.57051  0.11507    Al
Al     0.14067  0.92949  0.61507    Al
O        0.146   0.6927   0.1178     O
O        0.146   0.8073   0.6178     O
P      0.14955  0.07982  0.11219     P
P      0.14955  0.42018  0.61219     P
O       0.2003   0.5393   0.0093     O
O       0.2003   0.9607   0.5093     O
O       0.2013   0.0531   0.0215     O
O       0.2013   0.4469   0.5215     O
O       0.2353   0.1473   0.6969     O
O       0.2353   0.3527   0.1969     O
O       0.2389   0.6605   0.6829     O
O       0.2389   0.8395   0.1829     O
O       0.2654   0.0467   0.1851     O
O       0.2654   0.4533   0.6851     O
O       0.2658   0.5246   0.1991     O
O       0.2658   0.9754   0.6991     O
O       0.2735   0.0637   0.8416     O
O       0.2735   0.4363   0.3416     O
O       0.2745   0.5656   0.8587     O
O       0.2745   0.9344   0.3587     O
P      0.31439  0.06616  0.74639     P
P      0.31439  0.43384  0.24639     P
Al     0.32124  0.55903  0.74364    Al
Al     0.32124  0.94097  0.24364    Al
O       0.4809   0.0796   0.7483     O
O       0.4809   0.4204   0.2483     O
O       0.5191   0.5796   0.7517     O
O       0.5191   0.9204   0.2517     O
Al     0.67876  0.05903  0.75636    Al
Al     0.67876  0.44097  0.25636    Al
P      0.68561  0.56616  0.75361     P
P      0.68561  0.93384  0.25361     P
O       0.7255   0.0656   0.6413     O
O       0.7255   0.4344   0.1413     O
O       0.7265   0.5637   0.6584     O
O       0.7265   0.9363   0.1584     O
O       0.7342   0.0246   0.3009     O
O       0.7342   0.4754   0.8009     O
O       0.7346   0.5467   0.3149     O
O       0.7346   0.9533   0.8149     O
O       0.7611   0.1605   0.8171     O
O       0.7611   0.3395   0.3171     O
O       0.7647   0.6473   0.8031     O
O       0.7647   0.8527   0.3031     O
O       0.7987   0.5531   0.4785     O
O       0.7987   0.9469   0.9785     O
O       0.7997   0.0393   0.4907     O
O       0.7997   0.4607   0.9907     O
P      0.85045  0.57982  0.38781     P
P      0.85045  0.92018  0.88781     P
O        0.854   0.1927   0.3822     O
O        0.854   0.3073   0.8822     O
Al     0.85933  0.07051  0.38493    Al
Al     0.85933  0.42949  0.88493    Al
P      0.85968   0.0558  0.58717     P
P      0.85968   0.4442  0.08717     P
O       0.8614   0.6859   0.3845     O
O       0.8614   0.8141   0.8845     O
Al     0.87886  0.55971  0.59008    Al
Al     0.87886  0.94029  0.09008    Al
P      0.90075  0.21818  0.83773     P
P      0.90075  0.28182  0.33773     P
Zn     0.92411   0.7142  0.83571    Zn
Al     0.92411   0.7858  0.33571    Al
O       0.9543    0.145   0.5914     O
O       0.9543    0.355   0.0914     O
O       0.9558   0.5264   0.1224     O
O       0.9558   0.9736   0.6224     O
O       0.9718   0.2441   0.7539     O
O       0.9718   0.2559   0.2539     O
O        0.987   0.6655   0.5998     O
O        0.987   0.8345   0.0998     O
O       0.9963   0.0379   0.1224     O
O       0.9963   0.4621   0.6224     O
