data_I
_chemical_name_common  '/home/zhangsd/repos/MofS-CGCNN/ML/data/TSD/clean_cifs/DAWBOU_clean'
_cell_length_a  6.64000
_cell_length_b 26.17920
_cell_length_c  7.67020
_cell_angle_alpha 90.00000
_cell_angle_beta  90.00000
_cell_angle_gamma 90.00000
_space_group_name_H-M_alt      'P 1'


loop_
_space_group_symop_operation_xyz
  'x, y, z' 

loop_
_atom_site_label
_atom_site_fract_x
_atom_site_fract_y
_atom_site_fract_z
_atom_site_type_symbol
Ni     0.00194  0.71677   0.7536    Ni
H       0.0108   0.8513   0.9087     H
C       0.0147   0.8911   0.2766     C
H       0.0371   0.6056   0.8657     H
C        0.043   0.1789    0.849     C
N       0.0437    0.021   0.2188     N
H       0.0838   0.8182   0.3222     H
C        0.091   0.9358     0.22     C
H        0.093   0.1368   0.6309     H
C       0.0957   0.3935   0.8272     C
H       0.1192   0.1111   0.3112     H
O       0.1206  0.79219   0.7816     O
C       0.1377   0.8489   0.2826     C
O         0.15  0.25776   0.9723     O
O        0.154  0.68504   0.5543     O
H       0.1561   0.4684   0.8781     H
N       0.1698  0.34983   0.7655     N
C       0.1699   0.2095   0.9782     C
C       0.1705   0.1614   0.6976     C
O       0.2066  0.24867   0.5953     O
C       0.2108   0.4381    0.836     C
H       0.2133   0.6435   0.2558     H
O       0.2169  0.68583    0.922     O
C        0.246   0.2022   0.5726     C
C        0.254   0.7022   0.4274     C
O       0.2831  0.18583    0.078     O
H       0.2867   0.1435   0.7442     H
C       0.2892   0.9381    0.164     C
O       0.2934  0.74867   0.4047     O
C       0.3295   0.6614   0.3024     C
C       0.3301   0.7095   0.0218     C
N       0.3302  0.84983   0.2345     N
H       0.3439   0.9684   0.1219     H
O        0.346  0.18504   0.4457     O
O         0.35  0.75776   0.0277     O
C       0.3623   0.3489   0.7174     C
O       0.3794  0.29219   0.2184     O
H       0.3808   0.6111   0.6888     H
C       0.4043   0.8935   0.1728     C
H        0.407   0.6368   0.3691     H
C        0.409   0.4358     0.78     C
H       0.4162   0.3182   0.6778     H
N       0.4563    0.521   0.7812     N
C        0.457   0.6789    0.151     C
H       0.4629   0.1056   0.1343     H
C       0.4853   0.3911   0.7234     C
H       0.4892   0.3513   0.0913     H
Ni     0.49806  0.21677   0.2464    Ni
Ni     0.50194  0.78323   0.2464    Ni
H       0.5108   0.6487   0.0913     H
C       0.5147   0.6089   0.7234     C
H       0.5371   0.8944   0.1343     H
C        0.543   0.3211    0.151     C
N       0.5437    0.479   0.7812     N
H       0.5838   0.6818   0.6778     H
C        0.591   0.5642     0.78     C
H        0.593   0.3632   0.3691     H
C       0.5957   0.1065   0.1728     C
H       0.6192   0.3889   0.6888     H
O       0.6206  0.70781   0.2184     O
C       0.6377   0.6511   0.7174     C
O         0.65  0.24224   0.0277     O
O        0.654  0.81496   0.4457     O
H       0.6561   0.0316   0.1219     H
N       0.6698  0.15017   0.2345     N
C       0.6699   0.2905   0.0218     C
C       0.6705   0.3386   0.3024     C
O       0.7066  0.25133   0.4047     O
C       0.7108   0.0619    0.164     C
H       0.7133   0.8565   0.7442     H
O       0.7169  0.81417    0.078     O
C        0.746   0.2978   0.4274     C
C        0.754   0.7978   0.5726     C
O       0.7831  0.31417    0.922     O
H       0.7867   0.3565   0.2558     H
C       0.7892   0.5619    0.836     C
O       0.7934  0.75133   0.5953     O
C       0.8295   0.8386   0.6976     C
C       0.8301   0.7905   0.9782     C
N       0.8302  0.65017   0.7655     N
H       0.8439   0.5316   0.8781     H
O        0.846  0.31496   0.5543     O
O         0.85  0.74224   0.9723     O
C       0.8623   0.1511   0.2826     C
O       0.8794  0.20781   0.7816     O
H       0.8808   0.8889   0.3112     H
C       0.9043   0.6065   0.8272     C
H        0.907   0.8632   0.6309     H
C        0.909   0.0642     0.22     C
H       0.9162   0.1818   0.3222     H
N       0.9563    0.979   0.2188     N
C        0.957   0.8211    0.849     C
H       0.9629   0.3944   0.8657     H
C       0.9853   0.1089   0.2766     C
H       0.9892   0.1487   0.9087     H
Ni     0.99806  0.28323   0.7536    Ni
