data_I
_chemical_name_common  '/home/zhangsd/repos/MofS-CGCNN/ML/data/TSD/clean_cifs/DAWCIP_clean'
_cell_length_a 16.74800
_cell_length_b 24.51800
_cell_length_c 33.29100
_cell_angle_alpha 90.00000
_cell_angle_beta  90.00000
_cell_angle_gamma 90.00000
_space_group_name_H-M_alt      'P 1'


loop_
_space_group_symop_operation_xyz
  'x, y, z' 

loop_
_atom_site_label
_atom_site_fract_x
_atom_site_fract_y
_atom_site_fract_z
_atom_site_type_symbol
C       0.0007  0.10957  0.59132     C
C       0.0007  0.60957  0.90868     C
O       0.0029  0.31279  0.20523     O
O       0.0029  0.81279  0.29477     O
H       0.0051   0.0354   0.1004     H
C       0.0051  0.44958  0.08422     C
H       0.0051   0.5354   0.3996     H
C       0.0051  0.94958  0.41578     C
H       0.0062   0.1338   0.7666     H
H       0.0062   0.6338   0.7334     H
O       0.0069  0.24519  0.02207     O
O       0.0069  0.74519  0.47793     O
O      0.01159  0.25041  0.12079     O
O      0.01159  0.75041  0.37921     O
C       0.0116  0.06108  0.43199     C
C       0.0116  0.56108  0.06801     C
C       0.0185  0.12218  0.44287     C
C       0.0185  0.62218  0.05713     C
O       0.0188  0.12244  0.62759     O
O       0.0188  0.62244  0.87241     O
O        0.019  0.35863  0.06433     O
O        0.019  0.85863  0.43567     O
H         0.02   0.2145   0.9494     H
H         0.02   0.7145   0.5506     H
H       0.0247   0.1245   0.4721     H
H       0.0247   0.6245   0.0279     H
H        0.025    0.321   0.3889     H
H        0.025    0.821   0.1111     H
O       0.0262  0.13261  0.11469     O
O       0.0262  0.63261  0.38531     O
C      0.02658  0.30613   0.4486     C
C      0.02658  0.80613   0.0514     C
H        0.027   0.3124   0.8796     H
H        0.027   0.8124   0.6204     H
C       0.0304  0.45798  0.90009     C
C       0.0304  0.95798  0.59991     C
H       0.0315   0.4061   0.3229     H
H       0.0315   0.9061   0.1771     H
C       0.0331  0.01352   0.6092     C
C       0.0331  0.51352   0.8908     C
H       0.0351   0.4432   0.4043     H
H       0.0351   0.9432   0.0957     H
C       0.0401    0.354  0.27915     C
C       0.0401    0.854  0.22085     C
C       0.0405  0.29348  0.52234     C
C       0.0405  0.79348  0.97766     C
Zn     0.04327  0.19441  0.65229    Zn
Zn     0.04327  0.69441  0.84771    Zn
Zn     0.04382  0.28041  0.07038    Zn
Zn     0.04382  0.78041  0.42962    Zn
C       0.0462  0.46889  0.05151     C
C       0.0462  0.96889  0.44849     C
C       0.0496   0.0242  0.45696     C
C       0.0496   0.5242  0.04304     C
C      0.05159  0.02192  0.11196     C
C      0.05159  0.52192  0.38804     C
C      0.05354  0.32742  0.41236     C
C      0.05354  0.82742  0.08764     C
H       0.0582   0.4334    0.884     H
H       0.0582   0.9334    0.616     H
C      0.06019  0.34776  0.93191     C
C      0.06019  0.84776  0.56809     C
H       0.0603   0.0256   0.6319     H
H       0.0603   0.5256   0.8681     H
C       0.0611   0.3769   0.3132     C
C       0.0611   0.8769   0.1868     C
C        0.063   0.2915  0.22119     C
C        0.063   0.7915  0.27881     C
Zn     0.06814  0.30927   0.6137    Zn
Zn     0.06814  0.80927   0.8863    Zn
O       0.0687  0.31641  0.55335     O
O       0.0687  0.81641  0.94665     O
C      0.06919  0.31573  0.48373     C
C      0.06919  0.81573  0.01627     C
C       0.0696  0.46671  0.39084     C
C       0.0696  0.96671  0.10916     C
C      0.06982  0.31721  0.89707     C
C      0.06982  0.81721  0.60293     C
H       0.0723   0.4444   0.0347     H
H       0.0723   0.9444   0.4653     H
H       0.0774   0.0365   0.4794     H
H       0.0774   0.5365   0.0206     H
C        0.082  0.11677  0.13401     C
C        0.082  0.61677  0.36599     C
C       0.0833  0.31233  0.26077     C
C       0.0833  0.81233  0.23923     C
C        0.091  0.14824  0.42433     C
C        0.091  0.64824  0.07567     C
H       0.0924   0.1059   0.3723     H
H       0.0924   0.6059   0.1277     H
Zn     0.10263  0.22465  0.15073    Zn
Zn     0.10263  0.72465  0.34927    Zn
C      0.10311  0.05698  0.13208     C
C      0.10311  0.55698  0.36792     C
O       0.1044  0.25439  0.20568     O
O       0.1044  0.75439  0.29432     O
H       0.1117   0.2015   0.4692     H
H       0.1117   0.7015   0.0308     H
H       0.1177   0.3754   0.9813     H
H       0.1177   0.8754   0.5187     H
C       0.1202    0.132  0.38691     C
C       0.1202    0.632  0.11309     C
C      0.12311   0.3583  0.41124     C
C      0.12311   0.8583  0.08876     C
C      0.12413  0.35494  0.95799     C
C      0.12413  0.85494  0.54201     C
C       0.1271  0.35843  0.33523     C
C       0.1271  0.85843  0.16477     C
O       0.1274  0.14768  0.15369     O
O       0.1274  0.64768  0.34631     O
C       0.1305  0.18947  0.44442     C
C       0.1305  0.68947  0.05558     C
C      0.13876  0.34661  0.48261     C
C      0.13876  0.84661  0.01739     C
C      0.13912  0.44656  0.37353     C
C      0.13912  0.94656  0.12647     C
C      0.14341  0.29383  0.88832     C
C      0.14341  0.79383  0.61168     C
C       0.1469   0.2916  0.28256     C
C       0.1469   0.7916  0.21744     C
H       0.1499   0.2734    0.865     H
H       0.1499   0.7734    0.635     H
O       0.1582  0.19169  0.65029     O
O       0.1582  0.69169  0.84971     O
C       0.1589  0.38594  0.37393     C
C       0.1589  0.88594  0.12607     C
O      0.15982  0.28219  0.06864     O
O      0.15982  0.78219  0.43136     O
C      0.16572  0.36789  0.44637     C
C      0.16572  0.86789  0.05363     C
H       0.1673    0.353   0.5061     H
H       0.1673    0.853   0.9939     H
O       0.1689   0.2607  0.60706     O
O       0.1689   0.7607  0.89294     O
C       0.1703   0.3154  0.31921     C
C       0.1703   0.8154  0.18079     C
C      0.17263  0.03684  0.14939     C
C      0.17263  0.53684  0.35061     C
H       0.1745   0.2615   0.2728     H
H       0.1745   0.7615   0.2272     H
C       0.1898   0.1539  0.37104     C
C       0.1898   0.6539  0.12896     C
C      0.19064  0.48163  0.35341     C
C      0.19064  0.98163  0.14659     C
C       0.1925   0.2172  0.62311     C
C       0.1925   0.7172  0.87689     C
C       0.1969   0.2125  0.42799     C
C       0.1969   0.7125  0.07201     C
C      0.19772  0.33156  0.94925     C
C      0.19772  0.83156  0.55075     C
O      0.20189  0.25612  0.12839     O
O      0.20189  0.75612  0.37161     O
H       0.2071   0.0603   0.1629     H
H       0.2071   0.5603   0.3371     H
C      0.20736  0.30101  0.91441     C
C      0.20736  0.80101  0.58559     C
H       0.2099   0.1412   0.3467     H
H       0.2099   0.6412   0.1533     H
H       0.2123   0.3886   0.4456     H
H       0.2123   0.8886   0.0544     H
C       0.2133  0.27803  0.09478     C
C       0.2133  0.77803  0.40522     C
H        0.215   0.3021   0.3327     H
H        0.215   0.8021   0.1673     H
H       0.2171   0.3817   0.3747     H
H       0.2171   0.8817   0.1253     H
H       0.2215   0.2411   0.4415     H
H       0.2215   0.7411   0.0585     H
C       0.2292  0.19509  0.39187     C
C       0.2292  0.69509  0.10813     C
H       0.2372   0.4681   0.3418     H
H       0.2372   0.9681   0.1582     H
H       0.2405   0.3364   0.9667     H
H       0.2405   0.8364   0.5333     H
H       0.2595   0.3364   0.0333     H
H       0.2595   0.8364   0.4667     H
H       0.2628   0.4681   0.6582     H
H       0.2628   0.9681   0.8418     H
C       0.2708  0.19509  0.60813     C
C       0.2708  0.69509  0.89187     C
H       0.2785   0.2411   0.5585     H
H       0.2785   0.7411   0.9415     H
H       0.2829   0.3817   0.6253     H
H       0.2829   0.8817   0.8747     H
H        0.285   0.3021   0.6673     H
H        0.285   0.8021   0.8327     H
C       0.2867  0.27803  0.90522     C
C       0.2867  0.77803  0.59478     C
H       0.2877   0.3886   0.5544     H
H       0.2877   0.8886   0.9456     H
H       0.2901   0.1412   0.6533     H
H       0.2901   0.6412   0.8467     H
C      0.29264  0.30101  0.08559     C
C      0.29264  0.80101  0.41441     C
H       0.2929   0.0603   0.8371     H
H       0.2929   0.5603   0.6629     H
O      0.29811  0.25612  0.87161     O
O      0.29811  0.75612  0.62839     O
C      0.30228  0.33156  0.05075     C
C      0.30228  0.83156  0.44925     C
C       0.3031   0.2125  0.57201     C
C       0.3031   0.7125  0.92799     C
C       0.3075   0.2172  0.37689     C
C       0.3075   0.7172  0.12311     C
C      0.30936  0.48163  0.64659     C
C      0.30936  0.98163  0.85341     C
C       0.3102   0.1539  0.62896     C
C       0.3102   0.6539  0.87104     C
H       0.3255   0.2615   0.7272     H
H       0.3255   0.7615   0.7728     H
C      0.32737  0.03684  0.85061     C
C      0.32737  0.53684  0.64939     C
C       0.3297   0.3154  0.68079     C
C       0.3297   0.8154  0.81921     C
O       0.3311   0.2607  0.39294     O
O       0.3311   0.7607  0.10706     O
H       0.3327    0.353   0.4939     H
H       0.3327    0.853   0.0061     H
C      0.33428  0.36789  0.55363     C
C      0.33428  0.86789  0.94637     C
O      0.34018  0.28219  0.93136     O
O      0.34018  0.78219  0.56864     O
C       0.3411  0.38594  0.62607     C
C       0.3411  0.88594  0.87393     C
O       0.3418  0.19169  0.34971     O
O       0.3418  0.69169  0.15029     O
H       0.3501   0.2734    0.135     H
H       0.3501   0.7734    0.365     H
C       0.3531   0.2916  0.71744     C
C       0.3531   0.7916  0.78256     C
C      0.35659  0.29383  0.11168     C
C      0.35659  0.79383  0.38832     C
C      0.36088  0.44656  0.62647     C
C      0.36088  0.94656  0.87353     C
C      0.36124  0.34661  0.51739     C
C      0.36124  0.84661  0.98261     C
C       0.3695  0.18947  0.55558     C
C       0.3695  0.68947  0.94442     C
O       0.3726  0.14768  0.84631     O
O       0.3726  0.64768  0.65369     O
C       0.3729  0.35843  0.66477     C
C       0.3729  0.85843  0.83523     C
C      0.37587  0.35494  0.04201     C
C      0.37587  0.85494  0.45799     C
C      0.37689   0.3583  0.58876     C
C      0.37689   0.8583  0.91124     C
C       0.3798    0.132  0.61309     C
C       0.3798    0.632  0.88691     C
H       0.3823   0.3754   0.0187     H
H       0.3823   0.8754   0.4813     H
H       0.3883   0.2015   0.5308     H
H       0.3883   0.7015   0.9692     H
O       0.3956  0.25439  0.79432     O
O       0.3956  0.75439  0.70568     O
C      0.39689  0.05698  0.86792     C
C      0.39689  0.55698  0.63208     C
Zn     0.39737  0.22465  0.84927    Zn
Zn     0.39737  0.72465  0.65073    Zn
H       0.4076   0.1059   0.6277     H
H       0.4076   0.6059   0.8723     H
C        0.409  0.14824  0.57567     C
C        0.409  0.64824  0.92433     C
C       0.4167  0.31233  0.73923     C
C       0.4167  0.81233  0.76077     C
C        0.418  0.11677  0.86599     C
C        0.418  0.61677  0.63401     C
H       0.4226   0.0365   0.5206     H
H       0.4226   0.5365   0.9794     H
H       0.4277   0.4444   0.9653     H
H       0.4277   0.9444   0.5347     H
C      0.43018  0.31721  0.10293     C
C      0.43018  0.81721  0.39707     C
C       0.4304  0.46671  0.60916     C
C       0.4304  0.96671  0.89084     C
C      0.43081  0.31573  0.51627     C
C      0.43081  0.81573  0.98373     C
O       0.4313  0.31641  0.44665     O
O       0.4313  0.81641  0.05335     O
Zn     0.43186  0.30927   0.3863    Zn
Zn     0.43186  0.80927   0.1137    Zn
C        0.437   0.2915  0.77881     C
C        0.437   0.7915  0.72119     C
C       0.4389   0.3769   0.6868     C
C       0.4389   0.8769   0.8132     C
H       0.4397   0.0256   0.3681     H
H       0.4397   0.5256   0.1319     H
C      0.43981  0.34776  0.06809     C
C      0.43981  0.84776  0.43191     C
H       0.4418   0.4334    0.116     H
H       0.4418   0.9334    0.384     H
C      0.44646  0.32742  0.58764     C
C      0.44646  0.82742  0.91236     C
C      0.44841  0.02192  0.88804     C
C      0.44841  0.52192  0.61196     C
C       0.4504   0.0242  0.54304     C
C       0.4504   0.5242  0.95696     C
C       0.4538  0.46889  0.94849     C
C       0.4538  0.96889  0.55151     C
Zn     0.45618  0.28041  0.92962    Zn
Zn     0.45618  0.78041  0.57038    Zn
Zn     0.45673  0.19441  0.34771    Zn
Zn     0.45673  0.69441  0.15229    Zn
C       0.4595  0.29348  0.47766     C
C       0.4595  0.79348  0.02234     C
C       0.4599    0.354  0.72085     C
C       0.4599    0.854  0.77915     C
H       0.4649   0.4432   0.5957     H
H       0.4649   0.9432   0.9043     H
C       0.4669  0.01352   0.3908     C
C       0.4669  0.51352   0.1092     C
H       0.4685   0.4061   0.6771     H
H       0.4685   0.9061   0.8229     H
C       0.4696  0.45798  0.09991     C
C       0.4696  0.95798  0.40009     C
H        0.473   0.3124   0.1204     H
H        0.473   0.8124   0.3796     H
C      0.47342  0.30613   0.5514     C
C      0.47342  0.80613   0.9486     C
O       0.4738  0.13261  0.88531     O
O       0.4738  0.63261  0.61469     O
H        0.475    0.321   0.6111     H
H        0.475    0.821   0.8889     H
H       0.4753   0.1245   0.5279     H
H       0.4753   0.6245   0.9721     H
H         0.48   0.2145   0.0506     H
H         0.48   0.7145   0.4494     H
O        0.481  0.35863  0.93567     O
O        0.481  0.85863  0.56433     O
O       0.4812  0.12244  0.37241     O
O       0.4812  0.62244  0.12759     O
C       0.4815  0.12218  0.55713     C
C       0.4815  0.62218  0.94287     C
C       0.4884  0.06108  0.56801     C
C       0.4884  0.56108  0.93199     C
O      0.48841  0.25041  0.87921     O
O      0.48841  0.75041  0.62079     O
O       0.4931  0.24519  0.97793     O
O       0.4931  0.74519  0.52207     O
H       0.4938   0.1338   0.2334     H
H       0.4938   0.6338   0.2666     H
H       0.4949   0.0354   0.8996     H
C       0.4949  0.44958  0.91578     C
H       0.4949   0.5354   0.6004     H
C       0.4949  0.94958  0.58422     C
O       0.4971  0.31279  0.79477     O
O       0.4971  0.81279  0.70523     O
C       0.4993  0.10957  0.40868     C
C       0.4993  0.60957  0.09132     C
C       0.5007  0.39043  0.90868     C
C       0.5007  0.89043  0.59132     C
O       0.5029  0.18721  0.29477     O
O       0.5029  0.68721  0.20523     O
C       0.5051  0.05042  0.41578     C
H       0.5051   0.4646   0.3996     H
C       0.5051  0.55042  0.08422     C
H       0.5051   0.9646   0.1004     H
H       0.5062   0.3662   0.7334     H
H       0.5062   0.8662   0.7666     H
O       0.5069  0.25481  0.47793     O
O       0.5069  0.75481  0.02207     O
O      0.51159  0.24959  0.37921     O
O      0.51159  0.74959  0.12079     O
C       0.5116  0.43892  0.06801     C
C       0.5116  0.93892  0.43199     C
C       0.5185  0.37782  0.05713     C
C       0.5185  0.87782  0.44287     C
O       0.5188  0.37756  0.87241     O
O       0.5188  0.87756  0.62759     O
O        0.519  0.14137  0.43567     O
O        0.519  0.64137  0.06433     O
H         0.52   0.2855   0.5506     H
H         0.52   0.7855   0.9494     H
H       0.5247   0.3755   0.0279     H
H       0.5247   0.8755   0.4721     H
H        0.525    0.179   0.1111     H
H        0.525    0.679   0.3889     H
O       0.5262  0.36739  0.38531     O
O       0.5262  0.86739  0.11469     O
C      0.52658  0.19387   0.0514     C
C      0.52658  0.69387   0.4486     C
H        0.527   0.1876   0.6204     H
H        0.527   0.6876   0.8796     H
C       0.5304  0.04202  0.59991     C
C       0.5304  0.54202  0.90009     C
H       0.5315   0.0939   0.1771     H
H       0.5315   0.5939   0.3229     H
C       0.5331  0.48648   0.8908     C
C       0.5331  0.98648   0.6092     C
H       0.5351   0.0568   0.0957     H
H       0.5351   0.5568   0.4043     H
C       0.5401    0.146  0.22085     C
C       0.5401    0.646  0.27915     C
C       0.5405  0.20652  0.97766     C
C       0.5405  0.70652  0.52234     C
Zn     0.54327  0.30559  0.84771    Zn
Zn     0.54327  0.80559  0.65229    Zn
Zn     0.54382  0.21959  0.42962    Zn
Zn     0.54382  0.71959  0.07038    Zn
C       0.5462  0.03111  0.44849     C
C       0.5462  0.53111  0.05151     C
C       0.5496   0.4758  0.04304     C
C       0.5496   0.9758  0.45696     C
C      0.55159  0.47808  0.38804     C
C      0.55159  0.97808  0.11196     C
C      0.55354  0.17258  0.08764     C
C      0.55354  0.67258  0.41236     C
H       0.5582   0.0666    0.616     H
H       0.5582   0.5666    0.884     H
C      0.56019  0.15224  0.56809     C
C      0.56019  0.65224  0.93191     C
H       0.5603   0.4744   0.8681     H
H       0.5603   0.9744   0.6319     H
C       0.5611   0.1231   0.1868     C
C       0.5611   0.6231   0.3132     C
C        0.563   0.2085  0.27881     C
C        0.563   0.7085  0.22119     C
Zn     0.56814  0.19073   0.8863    Zn
Zn     0.56814  0.69073   0.6137    Zn
O       0.5687  0.18359  0.94665     O
O       0.5687  0.68359  0.55335     O
C      0.56919  0.18427  0.01627     C
C      0.56919  0.68427  0.48373     C
C       0.5696  0.03329  0.10916     C
C       0.5696  0.53329  0.39084     C
C      0.56982  0.18279  0.60293     C
C      0.56982  0.68279  0.89707     C
H       0.5723   0.0556   0.4653     H
H       0.5723   0.5556   0.0347     H
H       0.5774   0.4635   0.0206     H
H       0.5774   0.9635   0.4794     H
C        0.582  0.38323  0.36599     C
C        0.582  0.88323  0.13401     C
C       0.5833  0.18767  0.23923     C
C       0.5833  0.68767  0.26077     C
C        0.591  0.35176  0.07567     C
C        0.591  0.85176  0.42433     C
H       0.5924   0.3941   0.1277     H
H       0.5924   0.8941   0.3723     H
Zn     0.60263  0.27535  0.34927    Zn
Zn     0.60263  0.77535  0.15073    Zn
C      0.60311  0.44302  0.36792     C
C      0.60311  0.94302  0.13208     C
O       0.6044  0.24561  0.29432     O
O       0.6044  0.74561  0.20568     O
H       0.6117   0.2985   0.0308     H
H       0.6117   0.7985   0.4692     H
H       0.6177   0.1246   0.5187     H
H       0.6177   0.6246   0.9813     H
C       0.6202    0.368  0.11309     C
C       0.6202    0.868  0.38691     C
C      0.62311   0.1417  0.08876     C
C      0.62311   0.6417  0.41124     C
C      0.62413  0.14506  0.54201     C
C      0.62413  0.64506  0.95799     C
C       0.6271  0.14157  0.16477     C
C       0.6271  0.64157  0.33523     C
O       0.6274  0.35232  0.34631     O
O       0.6274  0.85232  0.15369     O
C       0.6305  0.31053  0.05558     C
C       0.6305  0.81053  0.44442     C
C      0.63876  0.15339  0.01739     C
C      0.63876  0.65339  0.48261     C
C      0.63912  0.05344  0.12647     C
C      0.63912  0.55344  0.37353     C
C      0.64341  0.20617  0.61168     C
C      0.64341  0.70617  0.88832     C
C       0.6469   0.2084  0.21744     C
C       0.6469   0.7084  0.28256     C
H       0.6499   0.2266    0.635     H
H       0.6499   0.7266    0.865     H
O       0.6582  0.30831  0.84971     O
O       0.6582  0.80831  0.65029     O
C       0.6589  0.11406  0.12607     C
C       0.6589  0.61406  0.37393     C
O      0.65982  0.21781  0.43136     O
O      0.65982  0.71781  0.06864     O
C      0.66572  0.13211  0.05363     C
C      0.66572  0.63211  0.44637     C
H       0.6673    0.147   0.9939     H
H       0.6673    0.647   0.5061     H
O       0.6689   0.2393  0.89294     O
O       0.6689   0.7393  0.60706     O
C       0.6703   0.1846  0.18079     C
C       0.6703   0.6846  0.31921     C
C      0.67263  0.46316  0.35061     C
C      0.67263  0.96316  0.14939     C
H       0.6745   0.2385   0.2272     H
H       0.6745   0.7385   0.2728     H
C       0.6898   0.3461  0.12896     C
C       0.6898   0.8461  0.37104     C
C      0.69064  0.01837  0.14659     C
C      0.69064  0.51837  0.35341     C
C       0.6925   0.2828  0.87689     C
C       0.6925   0.7828  0.62311     C
C       0.6969   0.2875  0.07201     C
C       0.6969   0.7875  0.42799     C
C      0.69772  0.16844  0.55075     C
C      0.69772  0.66844  0.94925     C
O      0.70189  0.24388  0.37161     O
O      0.70189  0.74388  0.12839     O
H       0.7071   0.4397   0.3371     H
H       0.7071   0.9397   0.1629     H
C      0.70736  0.19899  0.58559     C
C      0.70736  0.69899  0.91441     C
H       0.7099   0.3588   0.1533     H
H       0.7099   0.8588   0.3467     H
H       0.7123   0.1114   0.0544     H
H       0.7123   0.6114   0.4456     H
C       0.7133  0.22197  0.40522     C
C       0.7133  0.72197  0.09478     C
H        0.715   0.1979   0.1673     H
H        0.715   0.6979   0.3327     H
H       0.7171   0.1183   0.1253     H
H       0.7171   0.6183   0.3747     H
H       0.7215   0.2589   0.0585     H
H       0.7215   0.7589   0.4415     H
C       0.7292  0.30491  0.10813     C
C       0.7292  0.80491  0.39187     C
H       0.7372   0.0319   0.1582     H
H       0.7372   0.5319   0.3418     H
H       0.7405   0.1636   0.5333     H
H       0.7405   0.6636   0.9667     H
H       0.7595   0.1636   0.4667     H
H       0.7595   0.6636   0.0333     H
H       0.7628   0.0319   0.8418     H
H       0.7628   0.5319   0.6582     H
C       0.7708  0.30491  0.89187     C
C       0.7708  0.80491  0.60813     C
H       0.7785   0.2589   0.9415     H
H       0.7785   0.7589   0.5585     H
H       0.7829   0.1183   0.8747     H
H       0.7829   0.6183   0.6253     H
H        0.785   0.1979   0.8327     H
H        0.785   0.6979   0.6673     H
C       0.7867  0.22197  0.59478     C
C       0.7867  0.72197  0.90522     C
H       0.7877   0.1114   0.9456     H
H       0.7877   0.6114   0.5544     H
H       0.7901   0.3588   0.8467     H
H       0.7901   0.8588   0.6533     H
C      0.79264  0.19899  0.41441     C
C      0.79264  0.69899  0.08559     C
H       0.7929   0.4397   0.6629     H
H       0.7929   0.9397   0.8371     H
O      0.79811  0.24388  0.62839     O
O      0.79811  0.74388  0.87161     O
C      0.80228  0.16844  0.44925     C
C      0.80228  0.66844  0.05075     C
C       0.8031   0.2875  0.92799     C
C       0.8031   0.7875  0.57201     C
C       0.8075   0.2828  0.12311     C
C       0.8075   0.7828  0.37689     C
C      0.80936  0.01837  0.85341     C
C      0.80936  0.51837  0.64659     C
C       0.8102   0.3461  0.87104     C
C       0.8102   0.8461  0.62896     C
H       0.8255   0.2385   0.7728     H
H       0.8255   0.7385   0.7272     H
C      0.82737  0.46316  0.64939     C
C      0.82737  0.96316  0.85061     C
C       0.8297   0.1846  0.81921     C
C       0.8297   0.6846  0.68079     C
O       0.8311   0.2393  0.10706     O
O       0.8311   0.7393  0.39294     O
H       0.8327    0.147   0.0061     H
H       0.8327    0.647   0.4939     H
C      0.83428  0.13211  0.94637     C
C      0.83428  0.63211  0.55363     C
O      0.84018  0.21781  0.56864     O
O      0.84018  0.71781  0.93136     O
C       0.8411  0.11406  0.87393     C
C       0.8411  0.61406  0.62607     C
O       0.8418  0.30831  0.15029     O
O       0.8418  0.80831  0.34971     O
H       0.8501   0.2266    0.365     H
H       0.8501   0.7266    0.135     H
C       0.8531   0.2084  0.78256     C
C       0.8531   0.7084  0.71744     C
C      0.85659  0.20617  0.38832     C
C      0.85659  0.70617  0.11168     C
C      0.86088  0.05344  0.87353     C
C      0.86088  0.55344  0.62647     C
C      0.86124  0.15339  0.98261     C
C      0.86124  0.65339  0.51739     C
C       0.8695  0.31053  0.94442     C
C       0.8695  0.81053  0.55558     C
O       0.8726  0.35232  0.65369     O
O       0.8726  0.85232  0.84631     O
C       0.8729  0.14157  0.83523     C
C       0.8729  0.64157  0.66477     C
C      0.87587  0.14506  0.45799     C
C      0.87587  0.64506  0.04201     C
C      0.87689   0.1417  0.91124     C
C      0.87689   0.6417  0.58876     C
C       0.8798    0.368  0.88691     C
C       0.8798    0.868  0.61309     C
H       0.8823   0.1246   0.4813     H
H       0.8823   0.6246   0.0187     H
H       0.8883   0.2985   0.9692     H
H       0.8883   0.7985   0.5308     H
O       0.8956  0.24561  0.70568     O
O       0.8956  0.74561  0.79432     O
C      0.89689  0.44302  0.63208     C
C      0.89689  0.94302  0.86792     C
Zn     0.89737  0.27535  0.65073    Zn
Zn     0.89737  0.77535  0.84927    Zn
H       0.9076   0.3941   0.8723     H
H       0.9076   0.8941   0.6277     H
C        0.909  0.35176  0.92433     C
C        0.909  0.85176  0.57567     C
C       0.9167  0.18767  0.76077     C
C       0.9167  0.68767  0.73923     C
C        0.918  0.38323  0.63401     C
C        0.918  0.88323  0.86599     C
H       0.9226   0.4635   0.9794     H
H       0.9226   0.9635   0.5206     H
H       0.9277   0.0556   0.5347     H
H       0.9277   0.5556   0.9653     H
C      0.93018  0.18279  0.39707     C
C      0.93018  0.68279  0.10293     C
C       0.9304  0.03329  0.89084     C
C       0.9304  0.53329  0.60916     C
C      0.93081  0.18427  0.98373     C
C      0.93081  0.68427  0.51627     C
O       0.9313  0.18359  0.05335     O
O       0.9313  0.68359  0.44665     O
Zn     0.93186  0.19073   0.1137    Zn
Zn     0.93186  0.69073   0.3863    Zn
C        0.937   0.2085  0.72119     C
C        0.937   0.7085  0.77881     C
C       0.9389   0.1231   0.8132     C
C       0.9389   0.6231   0.6868     C
H       0.9397   0.4744   0.1319     H
H       0.9397   0.9744   0.3681     H
C      0.93981  0.15224  0.43191     C
C      0.93981  0.65224  0.06809     C
H       0.9418   0.0666    0.384     H
H       0.9418   0.5666    0.116     H
C      0.94646  0.17258  0.91236     C
C      0.94646  0.67258  0.58764     C
C      0.94841  0.47808  0.61196     C
C      0.94841  0.97808  0.88804     C
C       0.9504   0.4758  0.95696     C
C       0.9504   0.9758  0.54304     C
C       0.9538  0.03111  0.55151     C
C       0.9538  0.53111  0.94849     C
Zn     0.95618  0.21959  0.57038    Zn
Zn     0.95618  0.71959  0.92962    Zn
Zn     0.95673  0.30559  0.15229    Zn
Zn     0.95673  0.80559  0.34771    Zn
C       0.9595  0.20652  0.02234     C
C       0.9595  0.70652  0.47766     C
C       0.9599    0.146  0.77915     C
C       0.9599    0.646  0.72085     C
H       0.9649   0.0568   0.9043     H
H       0.9649   0.5568   0.5957     H
C       0.9669  0.48648   0.1092     C
C       0.9669  0.98648   0.3908     C
H       0.9685   0.0939   0.8229     H
H       0.9685   0.5939   0.6771     H
C       0.9696  0.04202  0.40009     C
C       0.9696  0.54202  0.09991     C
H        0.973   0.1876   0.3796     H
H        0.973   0.6876   0.1204     H
C      0.97342  0.19387   0.9486     C
C      0.97342  0.69387   0.5514     C
O       0.9738  0.36739  0.61469     O
O       0.9738  0.86739  0.88531     O
H        0.975    0.179   0.8889     H
H        0.975    0.679   0.6111     H
H       0.9753   0.3755   0.9721     H
H       0.9753   0.8755   0.5279     H
H         0.98   0.2855   0.4494     H
H         0.98   0.7855   0.0506     H
O        0.981  0.14137  0.56433     O
O        0.981  0.64137  0.93567     O
O       0.9812  0.37756  0.12759     O
O       0.9812  0.87756  0.37241     O
C       0.9815  0.37782  0.94287     C
C       0.9815  0.87782  0.55713     C
C       0.9884  0.43892  0.93199     C
C       0.9884  0.93892  0.56801     C
O      0.98841  0.24959  0.62079     O
O      0.98841  0.74959  0.87921     O
O       0.9931  0.25481  0.52207     O
O       0.9931  0.75481  0.97793     O
H       0.9938   0.3662   0.2666     H
H       0.9938   0.8662   0.2334     H
C       0.9949  0.05042  0.58422     C
H       0.9949   0.4646   0.6004     H
C       0.9949  0.55042  0.91578     C
H       0.9949   0.9646   0.8996     H
O       0.9971  0.18721  0.70523     O
O       0.9971  0.68721  0.79477     O
C       0.9993  0.39043  0.09132     C
C       0.9993  0.89043  0.40868     C
