data_I
_chemical_name_common  '/home/zhangsd/repos/MofS-CGCNN/ML/data/TSD/clean_cifs/DAWWIJ_clean'
_cell_length_a 12.17000
_cell_length_b 13.60100
_cell_length_c 17.40000
_cell_angle_alpha 90.00000
_cell_angle_beta  90.00000
_cell_angle_gamma 90.00000
_space_group_name_H-M_alt      'P 1'


loop_
_space_group_symop_operation_xyz
  'x, y, z' 

loop_
_atom_site_label
_atom_site_fract_x
_atom_site_fract_y
_atom_site_fract_z
_atom_site_type_symbol
Mn         0.0      0.0      0.5    Mn
Mn         0.0      0.5      0.0    Mn
C       0.0089   0.6697  0.79612     C
C       0.0089   0.8303  0.29612     C
H       0.0117   0.5947   0.2764     H
H       0.0117   0.9053   0.7764     H
O       0.0337  0.74889  0.17913     O
O       0.0337  0.75111  0.67913     O
C       0.0352   0.1146  0.64388     C
C       0.0352   0.3854  0.14388     C
C       0.0356   0.2254   0.7704     C
C       0.0356   0.2746   0.2704     C
N       0.0507   0.5812  0.89992     N
N       0.0507   0.9188  0.39992     N
C       0.0792   0.5696    0.292     C
C       0.0792   0.9304    0.792     C
N       0.0882   0.0062    0.838     N
N       0.0882   0.4938    0.338     N
N       0.1217   0.6689  0.80357     N
N       0.1217   0.8311  0.30357     N
O       0.1354  0.24817  0.77376     O
O       0.1354  0.25183  0.27376     O
C       0.1416   0.6163  0.86693     C
C       0.1416   0.8837  0.36693     C
C       0.1476   0.0807   0.6228     C
C       0.1476   0.4193   0.1228     C
O       0.1516  0.01527  0.57056     O
O       0.1516  0.48473  0.07056     O
N       0.1759   0.6082   0.2691     N
N       0.1759   0.8918   0.7691     N
H       0.1762     0.06   0.3022     H
H       0.1762     0.44   0.8022     H
N       0.1977   0.0161  0.84624     N
N       0.1977   0.4839  0.34624     N
H       0.1996   0.1514   0.8929     H
H       0.1996   0.3486   0.3929     H
Mn     0.21266  0.74503  0.71202    Mn
Mn     0.21266  0.75497  0.21202    Mn
O       0.2322   0.1136  0.65448     O
O       0.2322   0.3864  0.15448     O
C       0.2451   0.0929   0.8949     C
C       0.2451   0.4071   0.3949     C
C        0.248   0.5523   0.3052     C
C        0.248   0.9477   0.8052     C
H       0.2482   0.0705   0.9478     H
H       0.2482   0.4295   0.4478     H
H       0.2518   0.5705   0.9478     H
H       0.2518   0.9295   0.4478     H
C        0.252   0.0523   0.3052     C
C        0.252   0.4477   0.8052     C
C       0.2549   0.5929   0.8949     C
C       0.2549   0.9071   0.3949     C
O       0.2678   0.6136  0.65448     O
O       0.2678   0.8864  0.15448     O
Mn     0.28734  0.24503  0.71202    Mn
Mn     0.28734  0.25497  0.21202    Mn
H       0.3004   0.6514   0.8929     H
H       0.3004   0.8486   0.3929     H
N       0.3023   0.5161  0.84624     N
N       0.3023   0.9839  0.34624     N
H       0.3238     0.56   0.3022     H
H       0.3238     0.94   0.8022     H
N       0.3241   0.1082   0.2691     N
N       0.3241   0.3918   0.7691     N
O       0.3484  0.51527  0.57056     O
O       0.3484  0.98473  0.07056     O
C       0.3524   0.5807   0.6228     C
C       0.3524   0.9193   0.1228     C
C       0.3584   0.1163  0.86693     C
C       0.3584   0.3837  0.36693     C
O       0.3646  0.74817  0.77376     O
O       0.3646  0.75183  0.27376     O
N       0.3783   0.1689  0.80357     N
N       0.3783   0.3311  0.30357     N
N       0.4118   0.5062    0.838     N
N       0.4118   0.9938    0.338     N
C       0.4208   0.0696    0.292     C
C       0.4208   0.4304    0.792     C
N       0.4493   0.0812  0.89992     N
N       0.4493   0.4188  0.39992     N
C       0.4644   0.7254   0.7704     C
C       0.4644   0.7746   0.2704     C
C       0.4648   0.6146  0.64388     C
C       0.4648   0.8854  0.14388     C
O       0.4663  0.24889  0.17913     O
O       0.4663  0.25111  0.67913     O
H       0.4883   0.0947   0.2764     H
H       0.4883   0.4053   0.7764     H
C       0.4911   0.1697  0.79612     C
C       0.4911   0.3303  0.29612     C
Mn         0.5      0.0      0.0    Mn
Mn         0.5      0.5      0.5    Mn
C       0.5089   0.6697  0.70388     C
C       0.5089   0.8303  0.20388     C
H       0.5117   0.5947   0.2236     H
H       0.5117   0.9053   0.7236     H
O       0.5337  0.74889  0.32087     O
O       0.5337  0.75111  0.82087     O
C       0.5352   0.1146  0.85612     C
C       0.5352   0.3854  0.35612     C
C       0.5356   0.2254   0.7296     C
C       0.5356   0.2746   0.2296     C
N       0.5507   0.5812  0.60008     N
N       0.5507   0.9188  0.10008     N
C       0.5792   0.5696    0.208     C
C       0.5792   0.9304    0.708     C
N       0.5882   0.0062    0.662     N
N       0.5882   0.4938    0.162     N
N       0.6217   0.6689  0.69643     N
N       0.6217   0.8311  0.19643     N
O       0.6354  0.24817  0.72624     O
O       0.6354  0.25183  0.22624     O
C       0.6416   0.6163  0.63307     C
C       0.6416   0.8837  0.13307     C
C       0.6476   0.0807   0.8772     C
C       0.6476   0.4193   0.3772     C
O       0.6516  0.01527  0.92944     O
O       0.6516  0.48473  0.42944     O
N       0.6759   0.6082   0.2309     N
N       0.6759   0.8918   0.7309     N
H       0.6762     0.06   0.1978     H
H       0.6762     0.44   0.6978     H
N       0.6977   0.0161  0.65376     N
N       0.6977   0.4839  0.15376     N
H       0.6996   0.1514   0.6071     H
H       0.6996   0.3486   0.1071     H
Mn     0.71266  0.74503  0.78798    Mn
Mn     0.71266  0.75497  0.28798    Mn
O       0.7322   0.1136  0.84552     O
O       0.7322   0.3864  0.34552     O
C       0.7451   0.0929   0.6051     C
C       0.7451   0.4071   0.1051     C
C        0.748   0.5523   0.1948     C
C        0.748   0.9477   0.6948     C
H       0.7482   0.0705   0.5522     H
H       0.7482   0.4295   0.0522     H
H       0.7518   0.5705   0.5522     H
H       0.7518   0.9295   0.0522     H
C        0.752   0.0523   0.1948     C
C        0.752   0.4477   0.6948     C
C       0.7549   0.5929   0.6051     C
C       0.7549   0.9071   0.1051     C
O       0.7678   0.6136  0.84552     O
O       0.7678   0.8864  0.34552     O
Mn     0.78734  0.24503  0.78798    Mn
Mn     0.78734  0.25497  0.28798    Mn
H       0.8004   0.6514   0.6071     H
H       0.8004   0.8486   0.1071     H
N       0.8023   0.5161  0.65376     N
N       0.8023   0.9839  0.15376     N
H       0.8238     0.56   0.1978     H
H       0.8238     0.94   0.6978     H
N       0.8241   0.1082   0.2309     N
N       0.8241   0.3918   0.7309     N
O       0.8484  0.51527  0.92944     O
O       0.8484  0.98473  0.42944     O
C       0.8524   0.5807   0.8772     C
C       0.8524   0.9193   0.3772     C
C       0.8584   0.1163  0.63307     C
C       0.8584   0.3837  0.13307     C
O       0.8646  0.74817  0.72624     O
O       0.8646  0.75183  0.22624     O
N       0.8783   0.1689  0.69643     N
N       0.8783   0.3311  0.19643     N
N       0.9118   0.5062    0.662     N
N       0.9118   0.9938    0.162     N
C       0.9208   0.0696    0.208     C
C       0.9208   0.4304    0.708     C
N       0.9493   0.0812  0.60008     N
N       0.9493   0.4188  0.10008     N
C       0.9644   0.7254   0.7296     C
C       0.9644   0.7746   0.2296     C
C       0.9648   0.6146  0.85612     C
C       0.9648   0.8854  0.35612     C
O       0.9663  0.24889  0.32087     O
O       0.9663  0.25111  0.82087     O
H       0.9883   0.0947   0.2236     H
H       0.9883   0.4053   0.7236     H
C       0.9911   0.1697  0.70388     C
C       0.9911   0.3303  0.20388     C
