data_I
_chemical_name_common  '/home/zhangsd/repos/MofS-CGCNN/ML/data/TSD/clean_cifs/DAWWEF_clean'
_cell_length_a 12.58790
_cell_length_b 12.58790
_cell_length_c 25.09000
_cell_angle_alpha 90.00000
_cell_angle_beta  90.00000
_cell_angle_gamma 90.00000
_space_group_name_H-M_alt      'P 1'


loop_
_space_group_symop_operation_xyz
  'x, y, z' 

loop_
_atom_site_label
_atom_site_fract_x
_atom_site_fract_y
_atom_site_fract_z
_atom_site_type_symbol
H       0.0042   0.5853   0.3304     H
O       0.0128    0.955   0.5525     O
N       0.0147   0.2372  0.88206     N
O       0.0183    0.808   0.0291     O
C       0.0191   0.8493   0.4114     C
N        0.029   0.7356   0.2531     N
O        0.045   0.9872   0.9475     O
H       0.0468   0.7991   0.1812     H
C       0.0658   0.0756   0.9278     C
Co     0.06919  0.06919      0.5    Co
H        0.071    0.373   0.0888     H
C       0.0722   0.6215   0.3289     C
C       0.0722   0.7115   0.3672     C
C       0.0726     0.75   0.2056     C
C       0.0756   0.0658   0.0722     C
H       0.0802   0.2804   0.9967     H
H       0.0853   0.4958   0.0804     H
C       0.0912    0.788   0.0609     C
N       0.0914   0.6588  0.27518     N
O       0.1046   0.1603  0.08198     O
O       0.1126   0.6939  0.07553     O
C       0.1215   0.4278   0.0789     C
H        0.127    0.571   0.3388     H
C       0.1273   0.8438   0.4144     C
C       0.1311   0.3325   0.9905     C
C       0.1507   0.9809   0.0886     C
C       0.1562   0.8727   0.0856     C
N       0.1573   0.6878   0.1956     N
N       0.1588   0.4086  0.02518     N
O       0.1603   0.1046  0.91802     O
N       0.1613   0.7577  0.38595     N
C       0.1675   0.6311   0.2405     C
Co     0.17718  0.24949  0.87457    Co
N       0.1878   0.3427   0.9456     N
O        0.192   0.9817   0.4709     O
O       0.1939   0.3874  0.82553     O
H       0.2009   0.9532   0.3188     H
C       0.2115   0.4278   0.1172     C
C        0.212   0.9088   0.4391     C
H       0.2196   0.5802   0.2467     H
N       0.2356    0.471   0.0031     N
N       0.2372   0.0147  0.11794     N
N       0.2423   0.8387  0.11405     N
Co     0.24949  0.17718  0.12543    Co
C         0.25   0.4274   0.9556     C
C         0.25   0.9274   0.2944     C
Co     0.25051  0.67718  0.12457    Co
N       0.2577   0.3387  0.13595     N
N       0.2628   0.5147  0.13206     N
N       0.2644    0.971   0.2469     N
H       0.2804   0.0802   0.0033     H
C        0.288   0.4088   0.8109     C
C       0.2885   0.9278   0.1328     C
H       0.2991   0.4532   0.9312     H
O       0.3061   0.8874  0.42447     O
O        0.308   0.4817   0.7791     O
N       0.3122   0.8427   0.3044     N
Co     0.32282  0.74949  0.37543    Co
C       0.3325   0.1311   0.0095     C
N       0.3387   0.2577  0.86405     N
O       0.3397   0.6046  0.33198     O
N       0.3412   0.9086  0.22482     N
N       0.3427   0.1878   0.0544     N
C       0.3438   0.3727   0.1644     C
C       0.3493   0.4809   0.1614     C
C       0.3689   0.8325   0.2595     C
C       0.3727   0.3438   0.8356     C
H        0.373    0.071   0.9112     H
C       0.3785   0.9278   0.1711     C
O       0.3874   0.1939  0.17447     O
O       0.3954   0.6603  0.16802     O
N       0.4086   0.1588  0.97482     N
C       0.4088    0.288   0.1891     C
H       0.4147   0.9958   0.1696     H
H       0.4198   0.7804   0.2533     H
C       0.4244   0.5658   0.1778     C
C       0.4274     0.25   0.0444     C
C       0.4278   0.1215   0.9211     C
C       0.4278   0.2115   0.8828     C
H        0.429    0.873   0.1612     H
Co     0.43081  0.56919     0.75    Co
C       0.4342   0.5756   0.3222     C
H       0.4532   0.2991   0.0688     H
O        0.455   0.4872   0.3025     O
N        0.471   0.2356   0.9969     N
C       0.4809   0.3493   0.8386     C
O       0.4817    0.308   0.2209     O
N       0.4853   0.7372  0.36794     N
O       0.4872    0.455   0.6975     O
H       0.4958   0.0853   0.9196     H
H       0.5042   0.9147   0.4196     H
O       0.5128    0.545   0.1975     O
N       0.5147   0.2628  0.86794     N
O       0.5183    0.692   0.7209     O
C       0.5191   0.6507   0.3386     C
N        0.529   0.7644   0.4969     N
O        0.545   0.5128   0.8025     O
H       0.5468   0.7009   0.5688     H
C       0.5658   0.4244   0.8222     C
Co     0.56919  0.43081     0.25    Co
H        0.571    0.127   0.6612     H
C       0.5722   0.7885   0.3828     C
C       0.5722   0.8785   0.4211     C
C       0.5726     0.75   0.5444     C
C       0.5756   0.4342   0.6778     C
H       0.5802   0.2196   0.7533     H
H       0.5853   0.0042   0.6696     H
C       0.5912    0.712   0.6891     C
N       0.5914   0.8412  0.47482     N
O       0.6046   0.3397  0.66802     O
O       0.6126   0.8061  0.67447     O
C       0.6215   0.0722   0.6711     C
H        0.627    0.929   0.4112     H
C       0.6273   0.6562   0.3356     C
C       0.6311   0.1675   0.7595     C
C       0.6507   0.5191   0.6614     C
C       0.6562   0.6273   0.6644     C
N       0.6573   0.8122   0.5544     N
N       0.6588   0.0914  0.72482     N
O       0.6603   0.3954  0.83198     O
N       0.6613   0.7423  0.36405     N
C       0.6675   0.8689   0.5095     C
Co     0.67718  0.25051  0.87543    Co
N       0.6878   0.1573   0.8044     N
O        0.692   0.5183   0.2791     O
O       0.6939   0.1126  0.92447     O
H       0.7009   0.5468   0.4312     H
C       0.7115   0.0722   0.6328     C
C        0.712   0.5912   0.3109     C
H       0.7196   0.9198   0.5033     H
N       0.7356    0.029   0.7469     N
N       0.7372   0.4853  0.63206     N
N       0.7423   0.6613  0.63595     N
Co     0.74949  0.32282  0.62457    Co
C         0.75   0.0726   0.7944     C
C         0.75   0.5726   0.4556     C
Co     0.75051  0.82282  0.62543    Co
N       0.7577   0.1613  0.61405     N
N       0.7628   0.9853  0.61794     N
N       0.7644    0.529   0.5031     N
H       0.7804   0.4198   0.7467     H
C        0.788   0.0912   0.9391     C
C       0.7885   0.5722   0.6172     C
H       0.7991   0.0468   0.8188     H
O       0.8061   0.6126  0.32553     O
O        0.808   0.0183   0.9709     O
N       0.8122   0.6573   0.4456     N
Co     0.82282  0.75051  0.37457    Co
C       0.8325   0.3689   0.7405     C
N       0.8387   0.2423  0.88595     N
O       0.8397   0.8954  0.41802     O
N       0.8412   0.5914  0.52518     N
N       0.8427   0.3122   0.6956     N
C       0.8438   0.1273   0.5856     C
C       0.8493   0.0191   0.5886     C
C       0.8689   0.6675   0.4905     C
C       0.8727   0.1562   0.9144     C
H        0.873    0.429   0.8388     H
C       0.8785   0.5722   0.5789     C
O       0.8874   0.3061  0.57553     O
O       0.8954   0.8397  0.58198     O
N       0.9086   0.3412  0.77518     N
C       0.9088    0.212   0.5609     C
H       0.9147   0.5042   0.5804     H
H       0.9198   0.7196   0.4967     H
C       0.9244   0.9342   0.5722     C
C       0.9274     0.25   0.7056     C
C       0.9278   0.2885   0.8672     C
C       0.9278   0.3785   0.8289     C
H        0.929    0.627   0.5888     H
Co     0.93081  0.93081      0.0    Co
C       0.9342   0.9244   0.4278     C
H       0.9532   0.2009   0.6812     H
O        0.955   0.0128   0.4475     O
N        0.971   0.2644   0.7531     N
C       0.9809   0.1507   0.9114     C
O       0.9817    0.192   0.5291     O
N       0.9853   0.7628  0.38206     N
O       0.9872    0.045   0.0525     O
H       0.9958   0.4147   0.8304     H
