data_I
_chemical_name_common  '/home/zhangsd/repos/MofS-CGCNN/ML/data/TSD/clean_cifs/DAXKIY_clean'
_cell_length_a  9.15900
_cell_length_b  9.15900
_cell_length_c 24.44500
_cell_angle_alpha 90.00000
_cell_angle_beta  90.00000
_cell_angle_gamma 90.00000
_space_group_name_H-M_alt      'P 1'


loop_
_space_group_symop_operation_xyz
  'x, y, z' 

loop_
_atom_site_label
_atom_site_fract_x
_atom_site_fract_y
_atom_site_fract_z
_atom_site_type_symbol
In         0.0     0.25    0.625    In
In         0.0     0.75    0.375    In
N       0.0147   0.0932  0.54413     N
N       0.0147   0.5932  0.45587     N
O       0.0565   0.0293  0.65201     O
O       0.0565   0.5293  0.34799     O
C       0.1169   0.4498   0.5267     C
C       0.1169   0.9498   0.4733     C
O       0.1292   0.0677  0.95707     O
O       0.1292   0.5677  0.04293     O
C       0.1321   0.0431  0.51775     C
C       0.1321   0.5431  0.48225     C
C       0.1422   0.0008  0.69239     C
C       0.1422   0.5008  0.30761     C
N       0.1568   0.2647  0.70587     N
N       0.1568   0.7647  0.29413     N
H       0.1791   0.4749   0.7208     H
H       0.1791   0.9749   0.2792     H
O       0.1823   0.3792  0.29293     O
O       0.1823   0.8792  0.70707     O
C       0.1998   0.1331   0.7233     C
C       0.1998   0.6331   0.2767     C
C       0.2069   0.3821  0.73225     C
C       0.2069   0.8821  0.26775     C
O       0.2207   0.3065  0.59799     O
O       0.2207   0.8065  0.40201     O
H       0.2249   0.0709   0.5292     H
H       0.2249   0.5709   0.4708     H
C       0.2492   0.3922  0.55761     C
C       0.2492   0.8922  0.44239     C
C       0.2508   0.1078  0.94239     C
C       0.2508   0.6078  0.05761     C
H       0.2751   0.4291   0.9708     H
H       0.2751   0.9291   0.0292     H
O       0.2793   0.1935  0.90201     O
O       0.2793   0.6935  0.09799     O
C       0.2931   0.1179  0.76775     C
C       0.2931   0.6179  0.23225     C
C       0.3002   0.3669   0.7767     C
C       0.3002   0.8669   0.2233     C
O       0.3177   0.1208  0.20707     O
O       0.3177   0.6208  0.79293     O
H       0.3209   0.0251   0.7792     H
H       0.3209   0.5251   0.2208     H
N       0.3432   0.2353  0.79413     N
N       0.3432   0.7353  0.20587     N
C       0.3578   0.4992  0.80761     C
C       0.3578   0.9992  0.19239     C
C       0.3679   0.4569  0.98225     C
C       0.3679   0.9569  0.01775     C
O       0.3708   0.4323  0.54293     O
O       0.3708   0.9323  0.45707     O
C       0.3831   0.0502   0.9733     C
C       0.3831   0.5502   0.0267     C
O       0.4435   0.4707  0.84799     O
O       0.4435   0.9707  0.15201     O
N       0.4853   0.4068  0.95587     N
N       0.4853   0.9068  0.04413     N
In         0.5     0.25    0.875    In
In         0.5     0.75    0.125    In
N       0.5147   0.0932  0.95587     N
N       0.5147   0.5932  0.04413     N
O       0.5565   0.0293  0.84799     O
O       0.5565   0.5293  0.15201     O
C       0.6169   0.4498   0.9733     C
C       0.6169   0.9498   0.0267     C
O       0.6292   0.0677  0.54293     O
O       0.6292   0.5677  0.45707     O
C       0.6321   0.0431  0.98225     C
C       0.6321   0.5431  0.01775     C
C       0.6422   0.0008  0.80761     C
C       0.6422   0.5008  0.19239     C
N       0.6568   0.2647  0.79413     N
N       0.6568   0.7647  0.20587     N
H       0.6791   0.4749   0.7792     H
H       0.6791   0.9749   0.2208     H
O       0.6823   0.3792  0.20707     O
O       0.6823   0.8792  0.79293     O
C       0.6998   0.1331   0.7767     C
C       0.6998   0.6331   0.2233     C
C       0.7069   0.3821  0.76775     C
C       0.7069   0.8821  0.23225     C
O       0.7207   0.3065  0.90201     O
O       0.7207   0.8065  0.09799     O
H       0.7249   0.0709   0.9708     H
H       0.7249   0.5709   0.0292     H
C       0.7492   0.3922  0.94239     C
C       0.7492   0.8922  0.05761     C
C       0.7508   0.1078  0.55761     C
C       0.7508   0.6078  0.44239     C
H       0.7751   0.4291   0.5292     H
H       0.7751   0.9291   0.4708     H
O       0.7793   0.1935  0.59799     O
O       0.7793   0.6935  0.40201     O
C       0.7931   0.1179  0.73225     C
C       0.7931   0.6179  0.26775     C
C       0.8002   0.3669   0.7233     C
C       0.8002   0.8669   0.2767     C
O       0.8177   0.1208  0.29293     O
O       0.8177   0.6208  0.70707     O
H       0.8209   0.0251   0.7208     H
H       0.8209   0.5251   0.2792     H
N       0.8432   0.2353  0.70587     N
N       0.8432   0.7353  0.29413     N
C       0.8578   0.4992  0.69239     C
C       0.8578   0.9992  0.30761     C
C       0.8679   0.4569  0.51775     C
C       0.8679   0.9569  0.48225     C
O       0.8708   0.4323  0.95707     O
O       0.8708   0.9323  0.04293     O
C       0.8831   0.0502   0.5267     C
C       0.8831   0.5502   0.4733     C
O       0.9435   0.4707  0.65201     O
O       0.9435   0.9707  0.34799     O
N       0.9853   0.4068  0.54413     N
N       0.9853   0.9068  0.45587     N
