data_I
_chemical_name_common  '/home/zhangsd/repos/MofS-CGCNN/ML/data/TSD/clean_cifs/DAXKOE_charged'
_cell_length_a 10.11490
_cell_length_b 10.11490
_cell_length_c 11.46700
_cell_angle_alpha 98.92040
_cell_angle_beta  98.92040
_cell_angle_gamma 115.27800
_space_group_name_H-M_alt      'P 1'


loop_
_space_group_symop_operation_xyz
  'x, y, z' 

loop_
_atom_site_label
_atom_site_fract_x
_atom_site_fract_y
_atom_site_fract_z
_atom_site_type_symbol
C       0.0133   0.5135   0.1196     C
C       0.0318    0.534   0.2561     C
O       0.0806   0.5016   0.7046     O
C       0.1275   0.5487   0.9614     C
N       0.1407   0.5621   0.0809     N
O      0.16652  0.59128   0.3214     O
O       0.1767   0.2165   0.5687     O
H       0.2138   0.5814    0.932     H
O       0.2165   0.1767   0.0687     O
H       0.2461   0.4163   0.4423     H
O      0.25011  0.38589   0.1946     O
C       0.2775   0.3155    0.109     C
C       0.3155   0.2775    0.609     C
C       0.3499   0.4511   0.4649     C
In     0.36303  0.63697     0.25    In
O      0.38589  0.25011   0.6946     O
C       0.3937   0.4111   0.0494     C
O      0.40872  0.83348   0.1786     O
C       0.4111   0.3937   0.5494     C
H       0.4163   0.2461   0.9423     H
H       0.4186   0.7862    0.568     H
N       0.4379   0.8593   0.4191     N
N      0.44073  0.55607   0.4165     N
N      0.44393  0.55927   0.0835     N
C       0.4511   0.3499   0.9649     C
C       0.4513   0.8725   0.5386     C
C        0.466   0.9682   0.2439     C
C       0.4865   0.9867   0.3804     C
O       0.4984   0.9194   0.7954     O
O       0.5016   0.0806   0.2046     O
C       0.5135   0.0133   0.6196     C
C        0.534   0.0318   0.7561     C
C       0.5487   0.1275   0.4614     C
C       0.5489   0.6501   0.0351     C
N      0.55607  0.44073   0.9165     N
N      0.55927  0.44393   0.5835     N
N       0.5621   0.1407   0.5809     N
H       0.5814   0.2138    0.432     H
H       0.5837   0.7539   0.0577     H
C       0.5889   0.6063   0.4506     C
O      0.59128  0.16652   0.8214     O
C       0.6063   0.5889   0.9506     C
O      0.61411  0.74989   0.3054     O
In     0.63697  0.36303     0.75    In
C       0.6501   0.5489   0.5351     C
C       0.6845   0.7225    0.391     C
C       0.7225   0.6845    0.891     C
O      0.74989  0.61411   0.8054     O
H       0.7539   0.5837   0.5577     H
O       0.7835   0.8233   0.9313     O
H       0.7862   0.4186    0.068     H
O       0.8233   0.7835   0.4313     O
O      0.83348  0.40872   0.6786     O
N       0.8593   0.4379   0.9191     N
C       0.8725   0.4513   0.0386     C
O       0.9194   0.4984   0.2954     O
C       0.9682    0.466   0.7439     C
C       0.9867   0.4865   0.8804     C
