data_I
_chemical_name_common  '/home/zhangsd/repos/MofS-CGCNN/ML/data/TSD/clean_cifs/DEGPEL_charged'
_cell_length_a 17.55040
_cell_length_b 17.55040
_cell_length_c 17.55040
_cell_angle_alpha 60.00000
_cell_angle_beta  60.00000
_cell_angle_gamma 60.00000
_space_group_name_H-M_alt      'P 1'


loop_
_space_group_symop_operation_xyz
  'x, y, z' 

loop_
_atom_site_label
_atom_site_fract_x
_atom_site_fract_y
_atom_site_fract_z
_atom_site_type_symbol
C       0.0061   0.0563   0.7587     C
C       0.0061   0.1789   0.0563     C
C       0.0061   0.7587   0.1789     C
N       0.0224     0.25   0.9776     N
N       0.0224     0.75     0.25     N
N       0.0224   0.9776     0.75     N
H       0.0486   0.0668    0.766     H
H       0.0486   0.1186   0.0668     H
H       0.0486    0.766   0.1186     H
C       0.0563   0.0061   0.2587     C
C       0.0563   0.2587   0.6789     C
C       0.0563   0.6789   0.0061     C
H       0.0668   0.0486    0.266     H
H       0.0668    0.266   0.6186     H
H       0.0668   0.6186   0.0486     H
N      0.07631  0.24429  0.79657     N
N      0.07631  0.79657  0.88283     N
N      0.07631  0.88283  0.24429     N
N      0.11717  0.25571  0.70343     N
N      0.11717  0.70343  0.92369     N
N      0.11717  0.92369  0.25571     N
H       0.1186   0.0486   0.5668     H
H       0.1186    0.266   0.0486     H
H       0.1186   0.5668    0.266     H
Cu      0.1369     0.25   0.8631    Cu
Cu      0.1369     0.75     0.25    Cu
Cu      0.1369   0.8631     0.75    Cu
C       0.1789   0.0061   0.5563     C
C       0.1789   0.2587   0.0061     C
C       0.1789   0.5563   0.2587     C
N      0.20343  0.25571  0.92369     N
N      0.20343  0.61717  0.25571     N
N      0.20343  0.92369  0.61717     N
H        0.234   0.3814   0.4332     H
H        0.234   0.4332   0.9514     H
H        0.234   0.9514   0.3814     H
C       0.2413   0.3211   0.4437     C
C       0.2413   0.4437   0.9939     C
C       0.2413   0.9939   0.3211     C
N      0.24429  0.07631  0.29657     N
N      0.24429  0.29657  0.38283     N
N      0.24429  0.38283  0.07631     N
N         0.25   0.0224   0.4776     N
Cu        0.25   0.1369   0.3631    Cu
N         0.25     0.25   0.0224     N
Cu        0.25     0.25   0.1369    Cu
O         0.25     0.25     0.25     O
N         0.25     0.25   0.5224     N
Cu        0.25     0.25   0.6369    Cu
O         0.25     0.25     0.75     O
Cu        0.25   0.3631     0.25    Cu
N         0.25   0.4776     0.25     N
N         0.25   0.5224   0.9776     N
Cu        0.25   0.6369   0.8631    Cu
O         0.25     0.75     0.25     O
O         0.25     0.75     0.75     O
Cu        0.25   0.8631     0.25    Cu
N         0.25   0.9776     0.25     N
N      0.25571  0.11717  0.20343     N
N      0.25571  0.20343  0.42369     N
N      0.25571  0.42369  0.11717     N
C       0.2587   0.0563   0.1789     C
C       0.2587   0.1789   0.5061     C
C       0.2587   0.5061   0.0563     C
H        0.266   0.0668   0.1186     H
H        0.266   0.1186   0.5486     H
H        0.266   0.5486   0.0668     H
N      0.29657  0.24429  0.88283     N
N      0.29657  0.57631  0.24429     N
N      0.29657  0.88283  0.57631     N
C       0.3211   0.2413   0.9437     C
C       0.3211   0.4939   0.2413     C
C       0.3211   0.9437   0.4939     C
Cu      0.3631     0.25     0.75    Cu
Cu      0.3631   0.6369     0.25    Cu
Cu      0.3631     0.75   0.6369    Cu
H       0.3814    0.234   0.9332     H
H       0.3814   0.4514    0.234     H
H       0.3814   0.9332   0.4514     H
N      0.38283  0.24429  0.57631     N
N      0.38283  0.57631  0.79657     N
N      0.38283  0.79657  0.24429     N
N      0.42369  0.25571  0.61717     N
N      0.42369  0.61717  0.70343     N
N      0.42369  0.70343  0.25571     N
H       0.4332    0.234   0.4514     H
H       0.4332   0.4514   0.8814     H
H       0.4332   0.8814    0.234     H
C       0.4437   0.2413   0.4939     C
C       0.4437   0.4939   0.8211     C
C       0.4437   0.8211   0.2413     C
H       0.4514   0.3814    0.734     H
H       0.4514   0.4332   0.3814     H
H       0.4514    0.734   0.4332     H
N       0.4776     0.25     0.75     N
N       0.4776   0.5224     0.25     N
N       0.4776     0.75   0.5224     N
C       0.4939   0.3211   0.7413     C
C       0.4939   0.4437   0.3211     C
C       0.4939   0.7413   0.4437     C
C       0.5061   0.2587   0.5563     C
C       0.5061   0.5563   0.6789     C
C       0.5061   0.6789   0.2587     C
N       0.5224     0.25   0.4776     N
N       0.5224   0.4776     0.75     N
N       0.5224     0.75     0.25     N
H       0.5486    0.266   0.5668     H
H       0.5486   0.5668   0.6186     H
H       0.5486   0.6186    0.266     H
C       0.5563   0.1789   0.7587     C
C       0.5563   0.5061   0.1789     C
C       0.5563   0.7587   0.5061     C
H       0.5668   0.1186    0.766     H
H       0.5668   0.5486   0.1186     H
H       0.5668    0.766   0.5486     H
N      0.57631  0.29657  0.74429     N
N      0.57631  0.38283  0.29657     N
N      0.57631  0.74429  0.38283     N
N      0.61717  0.20343  0.75571     N
N      0.61717  0.42369  0.20343     N
N      0.61717  0.75571  0.42369     N
H       0.6186   0.0668   0.5486     H
H       0.6186   0.5486    0.766     H
H       0.6186    0.766   0.0668     H
Cu      0.6369     0.25   0.3631    Cu
Cu      0.6369   0.3631     0.75    Cu
Cu      0.6369     0.75     0.25    Cu
C       0.6789   0.0563   0.5061     C
C       0.6789   0.5061   0.7587     C
C       0.6789   0.7587   0.0563     C
N      0.70343  0.11717  0.42369     N
N      0.70343  0.42369  0.75571     N
N      0.70343  0.75571  0.11717     N
H        0.734   0.4514   0.9332     H
H        0.734   0.8814   0.4514     H
H        0.734   0.9332   0.8814     H
C       0.7413   0.4939   0.9437     C
C       0.7413   0.8211   0.4939     C
C       0.7413   0.9437   0.8211     C
N      0.74429  0.57631  0.88283     N
N      0.74429  0.79657  0.57631     N
N      0.74429  0.88283  0.79657     N
N         0.75   0.0224     0.75     N
Cu        0.75   0.1369     0.75    Cu
O         0.75     0.25     0.25     O
O         0.75     0.25     0.75     O
Cu        0.75   0.3631   0.1369    Cu
N         0.75   0.4776   0.0224     N
N         0.75   0.5224     0.75     N
Cu        0.75   0.6369     0.75    Cu
O         0.75     0.75     0.25     O
Cu        0.75     0.75   0.3631    Cu
N         0.75     0.75   0.4776     N
O         0.75     0.75     0.75     O
Cu        0.75     0.75   0.8631    Cu
N         0.75     0.75   0.9776     N
Cu        0.75   0.8631   0.6369    Cu
N         0.75   0.9776   0.5224     N
N      0.75571  0.61717  0.92369     N
N      0.75571  0.70343  0.61717     N
N      0.75571  0.92369  0.70343     N
C       0.7587   0.0061   0.6789     C
C       0.7587   0.5563   0.0061     C
C       0.7587   0.6789   0.5563     C
H        0.766   0.0486   0.6186     H
H        0.766   0.5668   0.0486     H
H        0.766   0.6186   0.5668     H
N      0.79657  0.07631  0.38283     N
N      0.79657  0.38283  0.74429     N
N      0.79657  0.74429  0.07631     N
C       0.8211   0.4437   0.7413     C
C       0.8211   0.7413   0.9939     C
C       0.8211   0.9939   0.4437     C
Cu      0.8631   0.1369     0.25    Cu
Cu      0.8631     0.25     0.75    Cu
Cu      0.8631     0.75   0.1369    Cu
H       0.8814   0.4332    0.734     H
H       0.8814    0.734   0.9514     H
H       0.8814   0.9514   0.4332     H
N      0.88283  0.07631  0.74429     N
N      0.88283  0.29657  0.07631     N
N      0.88283  0.74429  0.29657     N
N      0.92369  0.11717  0.75571     N
N      0.92369  0.20343  0.11717     N
N      0.92369  0.75571  0.20343     N
H       0.9332   0.3814   0.9514     H
H       0.9332    0.734   0.3814     H
H       0.9332   0.9514    0.734     H
C       0.9437   0.3211   0.9939     C
C       0.9437   0.7413   0.3211     C
C       0.9437   0.9939   0.7413     C
H       0.9514    0.234   0.8814     H
H       0.9514   0.8814   0.9332     H
H       0.9514   0.9332    0.234     H
N       0.9776   0.0224     0.25     N
N       0.9776     0.25     0.75     N
N       0.9776     0.75   0.0224     N
C       0.9939   0.2413   0.8211     C
C       0.9939   0.8211   0.9437     C
C       0.9939   0.9437   0.2413     C
