data_I
_chemical_name_common  '/home/zhangsd/repos/MofS-CGCNN/ML/data/TSD/clean_cifs/DEXZIR_clean'
_cell_length_a  9.69310
_cell_length_b 12.64530
_cell_length_c 26.41100
_cell_angle_alpha 91.39100
_cell_angle_beta  90.00000
_cell_angle_gamma 90.00000
_space_group_name_H-M_alt      'P 1'


loop_
_space_group_symop_operation_xyz
  'x, y, z' 

loop_
_atom_site_label
_atom_site_fract_x
_atom_site_fract_y
_atom_site_fract_z
_atom_site_type_symbol
O       0.0191   0.8711   0.6908     O
O       0.0464    0.785  0.81313     O
O       0.0594    0.127  0.10463     O
I      0.06241  0.73994  0.52831     I
C       0.0631    0.257    0.173     C
O        0.067   0.6039  0.20874     O
C       0.0683   0.1411  0.01386     C
H       0.0712   0.1625    0.564     H
C       0.0749   0.1379  0.48747     C
O       0.0765    0.619  0.30295     O
I      0.07661  0.73657  0.98284     I
O        0.084   0.0863  0.39905     O
H       0.0845   0.1375    0.937     H
H       0.0877   0.6051   0.3989     H
C       0.0907   0.1751  0.31925     C
C       0.1107   0.1201  0.53763     C
C       0.1124    0.095  0.05837     C
C        0.118   0.1064  0.96703     C
H       0.1221   0.6318   0.1204     H
O       0.1232   0.3347  0.19488     O
C       0.1294   0.0758  0.44799     C
C       0.1309   0.5438   0.3283     C
C       0.1353    0.215  0.12631     C
H       0.1428   0.2717   0.1012     H
O       0.1501   0.2393   0.2912     O
O       0.1521   0.4548  0.31084     O
H       0.1588   0.4342   0.4182     H
H         0.16   0.9831   0.6196     H
C       0.1623    0.159  0.36943     C
C       0.1705   0.5765   0.3814     C
H       0.1708   0.2276    0.388     H
H       0.1723   0.4277    0.017     H
H       0.1724   0.4257   0.5061     H
C       0.1814   0.5752   0.1893     C
H       0.1853   0.4589    0.102     H
H       0.1927   0.9543   0.8938     H
I      0.19627  0.39773  0.90336     I
Eu     0.19708  0.85827  0.75328    Eu
C       0.2043   0.0402   0.5495     C
C       0.2082   0.0133  0.05434     C
C       0.2083   0.6041   0.1352     C
C       0.2163   0.0266  0.96363     C
H       0.2221   0.1613   0.6347     H
C       0.2231   0.9982  0.46046     C
O       0.2297   0.0259  0.71329     O
H       0.2297    0.192   0.1352     H
C       0.2308   0.4884   0.4129     C
I      0.23583  0.43409   0.6199     I
C       0.2384   0.4808     0.01     C
H       0.2389   0.6345   0.3798     H
C       0.2394   0.4805  0.50777     C
C        0.242   0.0139   0.6031     C
H       0.2437   0.6306   0.8634     H
H       0.2563   0.1306   0.3634     H
C        0.258   0.5139   0.1031     C
C       0.2606   0.9805  0.00777     C
H       0.2611   0.1345   0.8798     H
C       0.2616   0.9808     0.51     C
I      0.26417  0.93409   0.1199     I
C       0.2692   0.9884   0.9129     C
O       0.2703   0.5259  0.21329     O
H       0.2703    0.692   0.6352     H
C       0.2769   0.4982  0.96046     C
H       0.2779   0.6613   0.1347     H
C       0.2837   0.5266  0.46363     C
C       0.2917   0.1041   0.6352     C
C       0.2918   0.5133  0.55434     C
C       0.2957   0.5402   0.0495     C
Eu     0.30292  0.35827  0.25328    Eu
I      0.30373  0.89773  0.40336     I
H       0.3073   0.4543   0.3938     H
H       0.3147   0.9589    0.602     H
C       0.3186   0.0752   0.6893     C
H       0.3276   0.9257   0.0061     H
H       0.3277   0.9277    0.517     H
H       0.3292   0.7276    0.888     H
C       0.3295   0.0765   0.8814     C
C       0.3377    0.659  0.86943     C
H         0.34   0.4831   0.1196     H
H       0.3412   0.9342   0.9182     H
O       0.3479   0.9548  0.81084     O
O       0.3499   0.7393   0.7912     O
H       0.3572   0.7717   0.6012     H
C       0.3647    0.715  0.62631     C
C       0.3691   0.0438   0.8283     C
C       0.3706   0.5758  0.94799     C
O       0.3768   0.8347  0.69488     O
H       0.3779   0.1318   0.6204     H
C        0.382   0.6064  0.46703     C
C       0.3876    0.595  0.55837     C
C       0.3893   0.6201  0.03763     C
C       0.4093   0.6751  0.81925     C
H       0.4123   0.1051   0.8989     H
H       0.4155   0.6375    0.437     H
O        0.416   0.5863  0.89905     O
I      0.42339  0.23657  0.48284     I
O       0.4235    0.119  0.80295     O
C       0.4251   0.6379  0.98747     C
H       0.4288   0.6625    0.064     H
C       0.4317   0.6411  0.51386     C
O        0.433   0.1039  0.70874     O
C       0.4369    0.757    0.673     C
I      0.43759  0.23994  0.02831     I
O       0.4406    0.627  0.60463     O
O       0.4536    0.285  0.31313     O
O       0.4809   0.3711   0.1908     O
O       0.5191   0.6289   0.8092     O
O       0.5464    0.715  0.68687     O
O       0.5594    0.373  0.39537     O
I      0.56241  0.76006  0.97169     I
C       0.5631    0.243    0.327     C
O        0.567   0.8961  0.29126     O
C       0.5683   0.3589  0.48614     C
H       0.5712   0.3375    0.936     H
C       0.5749   0.3621  0.01253     C
O       0.5765    0.881  0.19705     O
I      0.57661  0.76343  0.51716     I
O        0.584   0.4137  0.10095     O
H       0.5845   0.3625    0.563     H
H       0.5877   0.8949   0.1011     H
C       0.5907   0.3249  0.18075     C
C       0.6107   0.3799  0.96237     C
C       0.6124    0.405  0.44163     C
C        0.618   0.3936  0.53297     C
H       0.6221   0.8682   0.3796     H
O       0.6232   0.1653  0.30512     O
C       0.6294   0.4242  0.05201     C
C       0.6309   0.9562   0.1717     C
C       0.6353    0.285  0.37369     C
H       0.6428   0.2283   0.3988     H
O       0.6501   0.2607   0.2088     O
O       0.6521   0.0452  0.18916     O
H       0.6588   0.0658   0.0818     H
H         0.66   0.5169   0.8804     H
C       0.6623    0.341  0.13057     C
C       0.6705   0.9235   0.1186     C
H       0.6708   0.2724    0.112     H
H       0.6723   0.0723    0.483     H
H       0.6724   0.0743   0.9939     H
C       0.6814   0.9248   0.3107     C
H       0.6853   0.0411    0.398     H
H       0.6927   0.5457   0.6062     H
I      0.69627  0.10227  0.59664     I
Eu     0.69708  0.64173  0.74672    Eu
C       0.7043   0.4598   0.9505     C
C       0.7082   0.4867  0.44566     C
C       0.7083   0.8959   0.3648     C
C       0.7163   0.4734  0.53637     C
H       0.7221   0.3387   0.8653     H
C       0.7231   0.5018  0.03954     C
H       0.7297    0.308   0.3648     H
O       0.7297   0.4741  0.78671     O
C       0.7308   0.0116   0.0871     C
I      0.73583  0.06591   0.8801     I
C       0.7384   0.0192     0.49     C
H       0.7389   0.8655   0.1202     H
C       0.7394   0.0195  0.99223     C
C        0.742   0.4861   0.8969     C
H       0.7437   0.8694   0.6366     H
H       0.7563   0.3694   0.1366     H
C        0.758   0.9861   0.3969     C
C       0.7606   0.5195  0.49223     C
H       0.7611   0.3655   0.6202     H
C       0.7616   0.5192     0.99     C
I      0.76417  0.56591   0.3801     I
C       0.7692   0.5116   0.5871     C
H       0.7703    0.808   0.8648     H
O       0.7703   0.9741  0.28671     O
C       0.7769   0.0018  0.53954     C
H       0.7779   0.8387   0.3653     H
C       0.7837   0.9734  0.03637     C
C       0.7917   0.3959   0.8648     C
C       0.7918   0.9867  0.94566     C
C       0.7957   0.9598   0.4505     C
Eu     0.80292  0.14173  0.24672    Eu
I      0.80373  0.60227  0.09664     I
H       0.8073   0.0457   0.1062     H
H       0.8147   0.5411    0.898     H
C       0.8186   0.4248   0.8107     C
H       0.8276   0.5743   0.4939     H
H       0.8277   0.5723    0.983     H
H       0.8292   0.7724    0.612     H
C       0.8295   0.4235   0.6186     C
C       0.8377    0.841  0.63057     C
H         0.84   0.0169   0.3804     H
H       0.8412   0.5658   0.5818     H
O       0.8479   0.5452  0.68916     O
O       0.8499   0.7607   0.7088     O
H       0.8572   0.7283   0.8988     H
C       0.8647    0.785  0.87369     C
C       0.8691   0.4562   0.6717     C
C       0.8706   0.9242  0.55201     C
O       0.8768   0.6653  0.80512     O
H       0.8779   0.3682   0.8796     H
C        0.882   0.8936  0.03297     C
C       0.8876    0.905  0.94163     C
C       0.8893   0.8799  0.46237     C
C       0.9093   0.8249  0.68075     C
H       0.9123   0.3949   0.6011     H
H       0.9155   0.8625    0.063     H
O        0.916   0.9137  0.60095     O
I      0.92339  0.26343  0.01716     I
O       0.9235    0.381  0.69705     O
C       0.9251   0.8621  0.51253     C
H       0.9288   0.8375    0.436     H
C       0.9317   0.8589  0.98614     C
O        0.933   0.3961  0.79126     O
C       0.9369    0.743    0.827     C
I      0.93759  0.26006  0.47169     I
O       0.9406    0.873  0.89537     O
O       0.9536    0.215  0.18687     O
O       0.9809   0.1289   0.3092     O
