data_I
_chemical_name_common  '/home/zhangsd/repos/MofS-CGCNN/ML/data/TSD/clean_cifs/DEYJOI_clean'
_cell_length_a  7.77450
_cell_length_b 11.46350
_cell_length_c 13.53770
_cell_angle_alpha 96.80300
_cell_angle_beta  105.71000
_cell_angle_gamma 99.22500
_space_group_name_H-M_alt      'P 1'


loop_
_space_group_symop_operation_xyz
  'x, y, z' 

loop_
_atom_site_label
_atom_site_fract_x
_atom_site_fract_y
_atom_site_fract_z
_atom_site_type_symbol
Co         0.0      0.0      0.0    Co
O      0.00154  0.63258  0.08305     O
C       0.0063    0.533  0.54534     C
C       0.0202   0.9618  0.46695     C
C       0.0219  0.97549  0.36118     C
N       0.0244   0.9939  0.15741     N
C       0.0361  0.92622  0.78735     C
C       0.0393  0.93157   0.6869     C
H       0.0508   0.8923   0.4895     H
H       0.0591   0.4057   0.4573     H
O      0.06195  0.18436  0.03318     O
H       0.0781   0.8639   0.8184     H
H        0.082   0.8736   0.6513     H
C       0.0853  0.89304  0.30377     C
C       0.0858  0.90625  0.20336     C
H       0.0864   0.6725   0.7266     H
C       0.1132   0.5184   0.6486     C
H       0.1271   0.8293   0.3324     H
H       0.1313   0.8512   0.1665     H
C       0.1409   0.6063   0.7345     C
V      0.14243  0.32339  0.02523     V
O      0.15265  0.42152   0.1412     O
H       0.1805    0.358   0.6134     H
C       0.1926   0.4193   0.6678     C
V      0.20555  0.58047  0.13956     V
C       0.2485   0.5964   0.8315     C
H       0.2692    0.659   0.8864     H
C       0.2909  0.41293  0.76998     C
N       0.3239  0.50235  0.85046     N
H       0.3367   0.3443   0.7827     H
O      0.34591  0.59634  0.06739     O
O      0.34944  0.33652  0.01021     O
Co         0.5      0.5     -0.0    Co
O      0.65056  0.66348  0.98979     O
O      0.65409  0.40366  0.93261     O
H       0.6633   0.6557   0.2173     H
N       0.6761  0.49765  0.14954     N
C       0.7091  0.58707  0.23002     C
H       0.7308    0.341   0.1136     H
C       0.7515   0.4036   0.1685     C
V      0.79445  0.41953  0.86044     V
C       0.8074   0.5807   0.3322     C
H       0.8195    0.642   0.3866     H
O      0.84735  0.57848   0.8588     O
V      0.85757  0.67661  0.97477     V
C       0.8591   0.3937   0.2655     C
H       0.8687   0.1488   0.8335     H
H       0.8729   0.1707   0.6676     H
C       0.8868   0.4816   0.3514     C
H       0.9136   0.3275   0.2734     H
C       0.9142  0.09375  0.79664     C
C       0.9147  0.10696  0.69623     C
H        0.918   0.1264   0.3487     H
H       0.9219   0.1361   0.1816     H
O      0.93805  0.81564  0.96682     O
H       0.9409   0.5943   0.5427     H
H       0.9492   0.1077   0.5105     H
C       0.9607  0.06843   0.3131     C
C       0.9639  0.07378  0.21265     C
N       0.9756   0.0061  0.84259     N
C       0.9781  0.02451  0.63882     C
C       0.9798   0.0382  0.53305     C
C       0.9937    0.467  0.45466     C
O      0.99846  0.36742  0.91695     O
