data_I
_chemical_name_common  '/home/zhangsd/repos/MofS-CGCNN/ML/data/TSD/clean_cifs/DIBWUI_clean'
_cell_length_a 10.67200
_cell_length_b 10.71940
_cell_length_c 11.93510
_cell_angle_alpha 70.34100
_cell_angle_beta  77.92800
_cell_angle_gamma 60.85440
_space_group_name_H-M_alt      'P 1'


loop_
_space_group_symop_operation_xyz
  'x, y, z' 

loop_
_atom_site_label
_atom_site_fract_x
_atom_site_fract_y
_atom_site_fract_z
_atom_site_type_symbol
Cu         0.0      0.0      0.0    Cu
Cu         0.0      0.0      0.5    Cu
H       0.0052   0.2785   0.8231     H
H       0.0106   0.2708   0.5148     H
N       0.0239   0.0185   0.7387     N
N       0.0476   0.9897   0.1553     N
N       0.0548   0.9761   0.3377     N
C       0.0563   0.6866   0.5427     C
C       0.0766   0.6819   0.1287     C
H        0.086    0.479   0.5715     H
N       0.0928   0.7734   0.5717     N
N       0.1115   0.7747   0.0364     N
C       0.1137   0.5362   0.5947     C
H       0.1314   0.4692   0.2206     H
C       0.1573   0.5305   0.1547     C
C       0.1729   0.9882   0.1651     C
C       0.1782   0.9772   0.2831     C
C       0.1896     0.71   0.6522     C
C       0.2114   0.4698   0.6804     C
H       0.2189   0.7688   0.6712     H
O       0.2232   0.0129   0.9588     O
C       0.2281   0.7157   0.9659     C
O       0.2346   0.9918   0.4559     O
C       0.2488   0.5604    0.709     C
H       0.2518   0.7793   0.9006     H
O       0.2604   0.2189   0.7051     O
C       0.2647   0.0019   0.0553     C
C       0.2761   0.3064    0.743     C
C       0.2783   0.4691   0.0817     C
C       0.2837   0.9652   0.3581     C
C       0.3126   0.5669   0.9864     C
H       0.3145   0.5206   0.7669     H
O       0.3325   0.2195   0.1925     O
O       0.3501   0.2597   0.8308     O
C       0.3706   0.3054   0.1083     C
O       0.3818   0.0041   0.0563     O
H       0.3934   0.5305   0.9365     H
O       0.4136   0.9231   0.3192     O
Tb     0.45062  0.00173  0.83754    Tb
O       0.4863   0.2552   0.0475     O
O       0.5137   0.7448   0.9525     O
Tb     0.54938  0.99827  0.16246    Tb
O       0.5864   0.0769   0.6808     O
H       0.6066   0.4695   0.0635     H
O       0.6182   0.9959   0.9437     O
C       0.6294   0.6946   0.8917     C
O       0.6499   0.7403   0.1692     O
O       0.6675   0.7805   0.8075     O
H       0.6855   0.4794   0.2331     H
C       0.6874   0.4331   0.0136     C
C       0.7163   0.0348   0.6419     C
C       0.7217   0.5309   0.9183     C
C       0.7239   0.6936    0.257     C
C       0.7353   0.9981   0.9447     C
O       0.7396   0.7811   0.2949     O
H       0.7482   0.2207   0.0994     H
C       0.7512   0.4396    0.291     C
O       0.7654   0.0082   0.5441     O
C       0.7719   0.2843   0.0341     C
O       0.7768   0.9871   0.0412     O
H       0.7811   0.2312   0.3288     H
C       0.7886   0.5302   0.3196     C
C       0.8104     0.29   0.3478     C
C       0.8218   0.0228   0.7169     C
C       0.8271   0.0118   0.8349     C
C       0.8427   0.4695   0.8453     C
H       0.8686   0.5308   0.7794     H
C       0.8863   0.4638   0.4053     C
N       0.8885   0.2253   0.9636     N
N       0.9072   0.2266   0.4283     N
H        0.914    0.521   0.4285     H
C       0.9234   0.3181   0.8713     C
C       0.9437   0.3134   0.4573     C
N       0.9452   0.0239   0.6623     N
N       0.9524   0.0103   0.8447     N
N       0.9761   0.9815   0.2613     N
H       0.9894   0.7292   0.4852     H
H       0.9948   0.7215   0.1769     H
