data_I
_chemical_name_common  '/home/zhangsd/repos/MofS-CGCNN/ML/data/TSD/clean_cifs/DIBXAP_clean'
_cell_length_a 10.63900
_cell_length_b 10.69820
_cell_length_c 11.93750
_cell_angle_alpha 70.07800
_cell_angle_beta  77.61000
_cell_angle_gamma 60.79970
_space_group_name_H-M_alt      'P 1'


loop_
_space_group_symop_operation_xyz
  'x, y, z' 

loop_
_atom_site_label
_atom_site_fract_x
_atom_site_fract_y
_atom_site_fract_z
_atom_site_type_symbol
Cu         0.0      0.0      0.0    Cu
Cu         0.0      0.0      0.5    Cu
H       0.0029   0.2787   0.8213     H
H       0.0096    0.273    0.514     H
N       0.0245   0.0189   0.7381     N
N       0.0473   0.9897    0.156     N
N       0.0539   0.9765    0.337     N
C       0.0571   0.6846   0.5436     C
C       0.0779   0.6815   0.1293     C
H       0.0878   0.4753   0.5717     H
N       0.0921   0.7735   0.5711     N
N       0.1121   0.7747   0.0356     N
C       0.1139   0.5334   0.5953     C
H       0.1318   0.4661   0.2207     H
C       0.1583   0.5281   0.1552     C
C       0.1717   0.9887   0.1643     C
C       0.1775    0.978   0.2819     C
C       0.1882   0.7098    0.653     C
C       0.2101   0.4694   0.6827     C
H       0.2166   0.7693   0.6722     H
O       0.2234   0.0146   0.9582     O
C        0.229   0.7144   0.9658     C
O       0.2351   0.9921   0.4545     O
C       0.2477   0.5598    0.711     C
H       0.2534   0.7779   0.9002     H
O       0.2618   0.2168   0.7074     O
C       0.2649   0.0028   0.0539     C
C       0.2792   0.3031   0.7442     C
C       0.2794   0.4682   0.0814     C
C       0.2844   0.9648   0.3571     C
H       0.3132   0.5201    0.769     H
C       0.3133   0.5659   0.9861     C
O       0.3331   0.2176   0.1916     O
O       0.3506   0.2588   0.8319     O
C       0.3708   0.3032   0.1071     C
O       0.3821   0.0048   0.0566     O
H       0.3942   0.5297   0.9356     H
O       0.4137    0.923   0.3173     O
Ho     0.45124  0.00192  0.83917    Ho
O        0.487   0.2534   0.0461     O
O        0.513   0.7466   0.9539     O
Ho     0.54876  0.99808  0.16083    Ho
O       0.5863    0.077   0.6827     O
H       0.6058   0.4703   0.0644     H
O       0.6179   0.9952   0.9434     O
C       0.6292   0.6968   0.8929     C
O       0.6494   0.7412   0.1681     O
O       0.6669   0.7824   0.8084     O
C       0.6867   0.4341   0.0139     C
H       0.6868   0.4799    0.231     H
C       0.7156   0.0352   0.6429     C
C       0.7206   0.5318   0.9186     C
C       0.7208   0.6969   0.2558     C
C       0.7351   0.9972   0.9461     C
O       0.7382   0.7832   0.2926     O
H       0.7466   0.2221   0.0998     H
C       0.7523   0.4402    0.289     C
O       0.7649   0.0079   0.5455     O
C        0.771   0.2856   0.0342     C
O       0.7766   0.9854   0.0418     O
H       0.7834   0.2307   0.3278     H
C       0.7899   0.5306   0.3173     C
C       0.8118   0.2902    0.347     C
C       0.8225    0.022   0.7181     C
C       0.8283   0.0113   0.8357     C
C       0.8417   0.4719   0.8448     C
H       0.8682   0.5339   0.7793     H
C       0.8861   0.4666   0.4047     C
N       0.8879   0.2253   0.9644     N
N       0.9079   0.2265   0.4289     N
H       0.9122   0.5247   0.4283     H
C       0.9221   0.3185   0.8707     C
C       0.9429   0.3154   0.4564     C
N       0.9461   0.0235    0.663     N
N       0.9527   0.0103    0.844     N
N       0.9755   0.9811   0.2619     N
H       0.9904    0.727    0.486     H
H       0.9971   0.7213   0.1787     H
