data_I
_chemical_name_common  '/home/zhangsd/repos/MofS-CGCNN/ML/data/TSD/clean_cifs/DIMJUG_clean'
_cell_length_a  9.21400
_cell_length_b 13.02590
_cell_length_c 18.59590
_cell_angle_alpha 72.34640
_cell_angle_beta  75.65600
_cell_angle_gamma 69.28750
_space_group_name_H-M_alt      'P 1'


loop_
_space_group_symop_operation_xyz
  'x, y, z' 

loop_
_atom_site_label
_atom_site_fract_x
_atom_site_fract_y
_atom_site_fract_z
_atom_site_type_symbol
C      0.00284  0.55922   0.6853     C
H       0.0083   0.1805   0.1385     H
O      0.01883  0.10054   0.9952     O
C      0.02112  0.21996   0.2334     C
C        0.024   0.6583   0.7001     C
O      0.03168  0.05151  0.62133     O
N      0.03265  0.53494  0.09636     N
O      0.03442  0.77509  0.45187     O
O      0.05781  0.53413  0.62105     O
N      0.05806  0.31148   0.2332     N
C      0.05984  0.63902   0.0723     C
C      0.06282  0.13966   0.5815     C
C      0.06761  0.28018   0.9568     C
O      0.07496  0.49562  0.26246     O
N      0.08102  0.80859  0.70497     N
C      0.08467  0.15746   0.1718     C
H       0.1074   0.0778   0.1942     H
C      0.10824  0.44782   0.9197     C
C      0.11069  0.73172   0.6619     C
H       0.1117   0.6067   0.9085     H
O      0.11457  0.39946   0.5048     O
C      0.11671  0.15508   0.9799     C
Tb     0.15431  0.58921  0.49369    Tb
O      0.16696  0.99562  0.76246     O
N      0.17204  0.33742   0.9511     N
H       0.1792   0.1738    0.143     H
C       0.1888   0.5355   0.9041     C
Zn     0.19738  0.41105  0.16557    Zn
O      0.21299  0.96587  0.87895     O
C      0.21602  0.63966   0.0815     C
Zn       0.226  0.91105  0.66557    Zn
C      0.22744  0.74012    0.591     C
C      0.22884  0.13902   0.5723     C
Tb     0.23721  0.91079  0.00631    Tb
C      0.24736  0.94078   0.8147     C
H       0.2475   0.5428   0.8534     H
C      0.25169  0.34492   0.5201     C
H       0.2587   0.5136   0.9404     H
O      0.25974  0.10265  0.98367     O
O      0.26138  0.72491  0.04813     O
H        0.263   0.3075   0.9653     H
O      0.26679  0.66741  0.55221     O
H       0.2873   0.0136   0.4404     H
O      0.28848  0.81898  0.57486     O
O      0.29548  0.55151  0.12133     O
C      0.30459  0.21982   0.5432     C
O      0.31768  0.31898  0.07486     O
H       0.3273   0.3195   0.3615     H
N      0.33605  0.03494  0.59636     N
O      0.34606  0.39735  0.51633     O
H       0.3563   0.0428   0.3534     H
C       0.3716   0.0355   0.4041     C
H       0.3731   0.1067   0.4085     H
H       0.3794   0.4222   0.3058     H
C       0.3824   0.8417   0.7999     C
N      0.39726  0.81148   0.7332     N
N      0.40542  0.30859  0.20497     N
C      0.41393  0.34254   0.3282     C
C      0.44144  0.24012    0.091     C
N      0.46056  0.16258   0.5489     N
H       0.4642   0.8075   0.4653     H
C      0.47448  0.28004   0.2666     C
C      0.47576  0.05218   0.5803     C
O      0.48641  0.83259  0.94779     O
C      0.49569  0.23172   0.1619     C
H        0.496   0.3262    0.357     H
H        0.504   0.6738    0.643     H
C      0.50431  0.76828   0.8381     C
O      0.51359  0.16741  0.05221     O
C      0.52424  0.94782   0.4197     C
C      0.52552  0.71996   0.7334     C
H       0.5358   0.1925   0.5347     H
N      0.53944  0.83742   0.4511     N
C      0.55856  0.75988    0.909     C
C      0.58607  0.65746   0.6718     C
N      0.59458  0.69141  0.79503     N
N      0.60274  0.18852   0.2668     N
C       0.6176   0.1583   0.2001     C
H       0.6206   0.5778   0.6942     H
H       0.6269   0.8933   0.5915     H
C       0.6284   0.9645   0.5959     C
H       0.6437   0.9572   0.6466     H
O      0.65394  0.60265  0.48367     O
N      0.66395  0.96506  0.40364     N
H       0.6727   0.6805   0.6385     H
O      0.68232  0.68102  0.92514     O
C      0.69541  0.78018   0.4568     C
O      0.70452  0.44849  0.87867     O
O      0.71152  0.18102  0.42514     O
H       0.7127   0.9864   0.5596     H
O      0.73321  0.33259  0.44779     O
H        0.737   0.6925   0.0347     H
O      0.73862  0.27509  0.95187     O
O      0.74026  0.89735  0.01633     O
H       0.7413   0.4864   0.0596     H
C      0.74831  0.65508   0.4799     C
H       0.7525   0.4572   0.1466     H
C      0.75264  0.05922   0.1853     C
Tb     0.76279  0.08921  0.99369    Tb
C      0.77116  0.86098   0.4277     C
C      0.77256  0.25988    0.409     C
Zn       0.774  0.08895  0.33443    Zn
C      0.78398  0.36034   0.9185     C
O      0.78701  0.03413  0.12105     O
Zn     0.80262  0.58895  0.83443    Zn
C       0.8112   0.4645   0.0959     C
H       0.8208   0.8262    0.857     H
N      0.82796  0.66258   0.0489     N
O      0.83304  0.00438  0.23754     O
Tb     0.84569  0.41079  0.50631    Tb
C      0.88329  0.84492   0.0201     C
O      0.88543  0.60054   0.4952     O
H       0.8883   0.3933   0.0915     H
C      0.88931  0.26828   0.3381     C
C      0.89176  0.55218   0.0803     C
H       0.8926   0.9222   0.8058     H
C      0.91533  0.84254   0.8282     C
N      0.91898  0.19141  0.29503     N
O      0.92504  0.50438  0.73754     O
C      0.93239  0.71982   0.0432     C
C      0.93718  0.86034   0.4185     C
C      0.94016  0.36098   0.9277     C
N      0.94194  0.68852   0.7668     N
O      0.94219  0.46587  0.37895     O
O      0.96558  0.22491  0.54813     O
N      0.96735  0.46506  0.90364     N
O      0.96832  0.94849  0.37867     O
C        0.976   0.3417   0.2999     C
C      0.97888  0.78004   0.7666     C
O      0.98117  0.89946   0.0048     O
H       0.9917   0.8195   0.8615     H
C      0.99716  0.44078   0.3147     C
