data_I
_chemical_name_common  '/home/zhangsd/repos/MofS-CGCNN/ML/data/TSD/clean_cifs/DITYOW_clean'
_cell_length_a 24.07400
_cell_length_b 24.07400
_cell_length_c  5.10210
_cell_angle_alpha 90.00000
_cell_angle_beta  90.00000
_cell_angle_gamma 90.00000
_space_group_name_H-M_alt      'P 1'


loop_
_space_group_symop_operation_xyz
  'x, y, z' 

loop_
_atom_site_label
_atom_site_fract_x
_atom_site_fract_y
_atom_site_fract_z
_atom_site_type_symbol
Cu         0.0      0.0      0.5    Cu
Cu         0.0      0.5      0.5    Cu
O      0.01884  0.43015   0.3187     O
O      0.01884  0.93015   0.6813     O
H       0.0398   0.1254   0.6646     H
H       0.0398   0.6254   0.3354     H
N      0.04748  0.04363   0.7565     N
N      0.04748  0.54363   0.2435     N
C      0.05552  0.09877    0.774     C
C      0.05552  0.59877    0.226     C
H       0.0591   0.3359   0.1817     H
H       0.0591   0.8359   0.8183     H
C      0.06737  0.41159   0.3776     C
C      0.06737  0.91159   0.6224     C
N      0.07883  0.02092    0.956     N
N      0.07883  0.52092    0.044     N
H       0.0859   0.1909   0.0683     H
H       0.0859   0.6909   0.9317     H
C       0.0872  0.36471   0.1894     C
C       0.0872  0.86471   0.8106     C
N      0.08977  0.10918   0.9738     N
N      0.08977  0.60918   0.0262     N
H       0.0916   0.3798   0.0144     H
H       0.0916   0.8798   0.9856     H
O      0.09718  0.42796   0.5571     O
O      0.09718  0.92796   0.4429     O
N      0.10436  0.05989   0.0844     N
N      0.10436  0.55989   0.9156     N
C      0.11471   0.1628   0.0606     C
C      0.11471   0.6628   0.9394     C
H       0.1246   0.2898   0.5854     H
H       0.1246   0.7898   0.4146     H
H       0.1298   0.1584   0.2356     H
H       0.1298   0.6584   0.7644     H
N      0.14082  0.33977   0.2762     N
N      0.14082  0.83977   0.7238     N
C      0.15123  0.30552    0.476     C
C      0.15123  0.80552    0.524     C
C      0.16159  0.18263   0.8724     C
C      0.16159  0.68263   0.1276     C
O      0.17796  0.15282   0.6929     O
O      0.17796  0.65282   0.3071     O
O      0.18015  0.23116   0.9313     O
O      0.18015  0.73116   0.0687     O
N      0.19011  0.35436   0.1656     N
N      0.19011  0.85436   0.8344     N
N      0.20637  0.29748   0.4935     N
N      0.20637  0.79748   0.5065     N
N      0.22908  0.32883    0.294     N
N      0.22908  0.82883    0.706     N
Cu        0.25     0.25     0.75    Cu
Cu        0.25     0.75     0.25    Cu
N      0.27092  0.17117    0.206     N
N      0.27092  0.67117    0.794     N
N      0.29363  0.20252   0.0065     N
N      0.29363  0.70252   0.9935     N
N      0.30989  0.14564   0.3344     N
N      0.30989  0.64564   0.6656     N
O      0.31985  0.26884   0.5687     O
O      0.31985  0.76884   0.4313     O
O      0.32204  0.34718   0.8071     O
O      0.32204  0.84718   0.1929     O
C      0.33841  0.31737   0.6276     C
C      0.33841  0.81737   0.3724     C
C      0.34877  0.19448    0.024     C
C      0.34877  0.69448    0.976     C
N      0.35918  0.16023   0.2238     N
N      0.35918  0.66023   0.7762     N
H       0.3702   0.3416   0.2644     H
H       0.3702   0.8416   0.7356     H
H       0.3754   0.2102   0.9146     H
H       0.3754   0.7102   0.0854     H
C      0.38529   0.3372   0.4394     C
C      0.38529   0.8372   0.5606     C
N      0.39564  0.44011   0.4156     N
N      0.39564  0.94011   0.5844     N
O      0.40282  0.07204   0.9429     O
O      0.40282  0.57204   0.0571     O
H       0.4084   0.1202   0.4856     H
H       0.4084   0.6202   0.5144     H
N      0.41023  0.39082   0.5262     N
N      0.41023  0.89082   0.4738     N
C       0.4128  0.13529   0.3106     C
C       0.4128  0.63529   0.6894     C
H       0.4141   0.3091   0.4317     H
H       0.4141   0.8091   0.5683     H
N      0.42117  0.47908    0.544     N
N      0.42117  0.97908    0.456     N
C      0.43263  0.08841   0.1224     C
C      0.43263  0.58841   0.8776     C
H       0.4409   0.1641   0.3183     H
H       0.4409   0.6641   0.6817     H
C      0.44448  0.40123    0.726     C
C      0.44448  0.90123    0.274     C
N      0.45252  0.45637   0.7435     N
N      0.45252  0.95637   0.2565     N
H       0.4602   0.3746   0.8354     H
H       0.4602   0.8746   0.1646     H
O      0.48116  0.06985   0.1813     O
O      0.48116  0.56985   0.8187     O
Cu         0.5      0.0      0.0    Cu
Cu         0.5      0.5      0.0    Cu
O      0.51884  0.43015   0.1813     O
O      0.51884  0.93015   0.8187     O
H       0.5398   0.1254   0.8354     H
H       0.5398   0.6254   0.1646     H
N      0.54748  0.04363   0.7435     N
N      0.54748  0.54363   0.2565     N
C      0.55552  0.09877    0.726     C
C      0.55552  0.59877    0.274     C
H       0.5591   0.3359   0.3183     H
H       0.5591   0.8359   0.6817     H
C      0.56737  0.41159   0.1224     C
C      0.56737  0.91159   0.8776     C
N      0.57883  0.02092    0.544     N
N      0.57883  0.52092    0.456     N
H       0.5859   0.1909   0.4317     H
H       0.5859   0.6909   0.5683     H
C       0.5872  0.36471   0.3106     C
C       0.5872  0.86471   0.6894     C
N      0.58977  0.10918   0.5262     N
N      0.58977  0.60918   0.4738     N
H       0.5916   0.3798   0.4856     H
H       0.5916   0.8798   0.5144     H
O      0.59718  0.42796   0.9429     O
O      0.59718  0.92796   0.0571     O
N      0.60436  0.05989   0.4156     N
N      0.60436  0.55989   0.5844     N
C      0.61471   0.1628   0.4394     C
C      0.61471   0.6628   0.5606     C
H       0.6246   0.2898   0.9146     H
H       0.6246   0.7898   0.0854     H
H       0.6298   0.1584   0.2644     H
H       0.6298   0.6584   0.7356     H
N      0.64082  0.33977   0.2238     N
N      0.64082  0.83977   0.7762     N
C      0.65123  0.30552    0.024     C
C      0.65123  0.80552    0.976     C
C      0.66159  0.18263   0.6276     C
C      0.66159  0.68263   0.3724     C
O      0.67796  0.15282   0.8071     O
O      0.67796  0.65282   0.1929     O
O      0.68015  0.23116   0.5687     O
O      0.68015  0.73116   0.4313     O
N      0.69011  0.35436   0.3344     N
N      0.69011  0.85436   0.6656     N
N      0.70637  0.29748   0.0065     N
N      0.70637  0.79748   0.9935     N
N      0.72908  0.32883    0.206     N
N      0.72908  0.82883    0.794     N
Cu        0.75     0.25     0.75    Cu
Cu        0.75     0.75     0.25    Cu
N      0.77092  0.17117    0.294     N
N      0.77092  0.67117    0.706     N
N      0.79363  0.20252   0.4935     N
N      0.79363  0.70252   0.5065     N
N      0.80989  0.14564   0.1656     N
N      0.80989  0.64564   0.8344     N
O      0.81985  0.26884   0.9313     O
O      0.81985  0.76884   0.0687     O
O      0.82204  0.34718   0.6929     O
O      0.82204  0.84718   0.3071     O
C      0.83841  0.31737   0.8724     C
C      0.83841  0.81737   0.1276     C
C      0.84877  0.19448    0.476     C
C      0.84877  0.69448    0.524     C
N      0.85918  0.16023   0.2762     N
N      0.85918  0.66023   0.7238     N
H       0.8702   0.3416   0.2356     H
H       0.8702   0.8416   0.7644     H
H       0.8754   0.2102   0.5854     H
H       0.8754   0.7102   0.4146     H
C      0.88529   0.3372   0.0606     C
C      0.88529   0.8372   0.9394     C
N      0.89564  0.44011   0.0844     N
N      0.89564  0.94011   0.9156     N
O      0.90282  0.07204   0.5571     O
O      0.90282  0.57204   0.4429     O
H       0.9084   0.1202   0.0144     H
H       0.9084   0.6202   0.9856     H
N      0.91023  0.39082   0.9738     N
N      0.91023  0.89082   0.0262     N
C       0.9128  0.13529   0.1894     C
C       0.9128  0.63529   0.8106     C
H       0.9141   0.3091   0.0683     H
H       0.9141   0.8091   0.9317     H
N      0.92117  0.47908    0.956     N
N      0.92117  0.97908    0.044     N
C      0.93263  0.08841   0.3776     C
C      0.93263  0.58841   0.6224     C
H       0.9409   0.1641   0.1817     H
H       0.9409   0.6641   0.8183     H
C      0.94448  0.40123    0.774     C
C      0.94448  0.90123    0.226     C
N      0.95252  0.45637   0.7565     N
N      0.95252  0.95637   0.2435     N
H       0.9602   0.3746   0.6646     H
H       0.9602   0.8746   0.3354     H
O      0.98116  0.06985   0.3187     O
O      0.98116  0.56985   0.6813     O
