data_I
_chemical_name_common  '/home/zhangsd/repos/MofS-CGCNN/ML/data/TSD/clean_cifs/DOHNUL_clean'
_cell_length_a 10.58600
_cell_length_b 28.04300
_cell_length_c 17.44800
_cell_angle_alpha 90.00000
_cell_angle_beta  92.08000
_cell_angle_gamma 90.00000
_space_group_name_H-M_alt      'P 1'


loop_
_space_group_symop_operation_xyz
  'x, y, z' 

loop_
_atom_site_label
_atom_site_fract_x
_atom_site_fract_y
_atom_site_fract_z
_atom_site_type_symbol
Zn         0.0  0.41412     0.25    Zn
Zn         0.0  0.58588     0.75    Zn
H       0.0006   0.4241   0.0818     H
H       0.0006   0.5759   0.5818     H
O        0.003  0.34174   0.1515     O
O        0.003  0.65826   0.6515     O
O       0.0041  0.23565   0.3929     O
O       0.0041  0.76435   0.8929     O
C       0.0111   0.2445   0.4628     C
C       0.0111   0.7555   0.9628     C
C       0.0449   0.0933   0.9295     C
C       0.0449   0.9067   0.4295     C
H       0.0548    0.082    0.816     H
H       0.0548    0.918    0.316     H
C       0.0553   0.0588   0.5551     C
C       0.0553   0.9412   0.0551     C
O       0.0618  0.27561   0.0082     O
O       0.0618  0.72439   0.5082     O
C       0.0625   0.4464   0.0955     C
C       0.0625   0.5536   0.5955     C
H       0.0734   0.1176   0.0373     H
H       0.0734   0.8824   0.5373     H
H       0.0789   0.2598   0.6079     H
N       0.0789  0.45725   0.1689     N
N       0.0789  0.54275   0.6689     N
H       0.0789   0.7402   0.1079     H
C       0.0883      0.1   0.8566     C
C       0.0883      0.9   0.3566     C
C        0.099   0.1209   0.9872     C
C        0.099   0.8791   0.4872     C
N       0.1007    0.029   0.6089     N
N       0.1007    0.971   0.1089     N
C       0.1066   0.2197   0.5142     C
C       0.1066   0.7803   0.0142     C
N       0.1101  0.05427   0.4869     N
N       0.1101  0.94573   0.9869     N
C       0.1112  0.35087   0.3439     C
C       0.1112  0.64913   0.8439     C
H       0.1184   0.4569   0.9872     H
H       0.1184   0.5431   0.4872     H
C       0.1274   0.2349   0.5893     C
C       0.1274   0.7651   0.0893     C
C       0.1321   0.4662   0.0379     C
C       0.1321   0.5338   0.5379     C
Zn     0.13853   0.2871  0.12923    Zn
Zn     0.13853   0.7129  0.62923    Zn
O        0.149  0.38654   0.3056     O
O        0.149  0.61346   0.8056     O
C       0.1622   0.4914   0.1867     C
C       0.1622   0.5086   0.6867     C
H       0.1636   0.1721   0.4365     H
H       0.1636   0.8279   0.9365     H
H       0.1721   0.4993   0.7377     H
H       0.1721   0.5007   0.2377     H
O       0.1731  0.28707   0.2425     O
O       0.1731  0.71293   0.7425     O
C       0.1769   0.1825   0.4868     C
C       0.1769   0.8175   0.9868     C
O       0.1801   0.2676   0.7371     O
O       0.1801   0.7324   0.2371     O
C       0.1805   0.1329   0.8439     C
C       0.1805   0.8671   0.3439     C
H       0.1859    0.365   0.4843     H
H       0.1859    0.635   0.9843     H
C       0.1904   0.1531   0.9704     C
C       0.1904   0.8469   0.4704     C
N       0.1917   0.0037   0.5722     N
N       0.1917   0.9963   0.0722     N
C       0.1944   0.0197   0.4999     C
C       0.1944   0.9803   0.9999     C
H       0.2083   0.0375    0.352     H
H       0.2083   0.9625    0.852     H
H       0.2087   0.1366   0.7943     H
H       0.2087   0.8634   0.2943     H
C       0.2106  0.32429    0.391     C
C       0.2106  0.67571    0.891     C
C        0.219   0.2139   0.6373     C
C        0.219   0.7861   0.1373     C
C       0.2223   0.4997   0.5572     C
C       0.2223   0.5003   0.0572     C
H        0.226   0.1712   0.0102     H
H        0.226   0.8288   0.5102     H
N       0.2316   0.1601   0.8999     N
N       0.2316   0.8399   0.3999     N
C       0.2324   0.3396   0.4657     C
C       0.2324   0.6604   0.9657     C
C       0.2349   0.4863    0.633     C
C       0.2349   0.5137    0.133     C
H       0.2386   0.0184   0.0921     H
H       0.2386   0.9816   0.5921     H
C       0.2407    0.233    0.717     C
C       0.2407    0.767    0.217     C
C       0.2593    0.267    0.283     C
C       0.2593    0.733    0.783     C
H       0.2614   0.4816   0.9079     H
H       0.2614   0.5184   0.4079     H
C       0.2651   0.0137    0.367     C
C       0.2651   0.9863    0.867     C
C       0.2676   0.1604   0.5343     C
C       0.2676   0.8396   0.0343     C
N       0.2684   0.3399   0.1001     N
N       0.2684   0.6601   0.6001     N
H        0.274   0.3288   0.9898     H
H        0.274   0.6712   0.4898     H
C       0.2777   0.0003   0.4428     C
C       0.2777   0.9997   0.9428     C
C        0.281   0.2861   0.3627     C
C        0.281   0.7139   0.8627     C
C       0.2894  0.17571    0.609     C
C       0.2894  0.82429    0.109     C
H       0.2913   0.3634   0.2057     H
H       0.2913   0.6366   0.7057     H
H       0.2917   0.4625    0.648     H
H       0.2917   0.5375    0.148     H
C       0.3056   0.4803   0.5001     C
C       0.3056   0.5197   0.0001     C
N       0.3083   0.4963   0.4278     N
N       0.3083   0.5037   0.9278     N
C       0.3096   0.3469   0.0296     C
C       0.3096   0.6531   0.5296     C
H       0.3141    0.135   0.5157     H
H       0.3141    0.865   0.0157     H
C       0.3195   0.3671   0.1561     C
C       0.3195   0.6329   0.6561     C
O       0.3199   0.2324   0.2629     O
O       0.3199   0.7676   0.7629     O
C       0.3231   0.3175   0.5132     C
C       0.3231   0.6825   0.0132     C
O       0.3269  0.21293   0.7575     O
O       0.3269  0.78707   0.2575     O
H       0.3279   0.0007   0.2623     H
H       0.3279   0.9993   0.7623     H
H       0.3364   0.3279   0.5635     H
H       0.3364   0.6721   0.0635     H
C       0.3378   0.0086   0.8133     C
C       0.3378   0.9914   0.3133     C
O        0.351  0.11346   0.6944     O
O        0.351  0.88654   0.1944     O
Zn     0.36147   0.2129  0.87077    Zn
Zn     0.36147   0.7871  0.37077    Zn
C       0.3679   0.0338   0.9621     C
C       0.3679   0.9662   0.4621     C
C       0.3726   0.2651   0.4107     C
C       0.3726   0.7349   0.9107     C
H       0.3816   0.0431   0.0128     H
H       0.3816   0.9569   0.5128     H
C       0.3888  0.14913   0.6561     C
C       0.3888  0.85087   0.1561     C
N       0.3899  0.44573   0.5131     N
N       0.3899  0.55427   0.0131     N
C       0.3934   0.2803   0.4858     C
C       0.3934   0.7197   0.9858     C
N       0.3993    0.471   0.3911     N
N       0.3993    0.529   0.8911     N
C        0.401   0.3791   0.0128     C
C        0.401   0.6209   0.5128     C
C       0.4117      0.4   0.1434     C
C       0.4117      0.6   0.6434     C
N       0.4211  0.04275   0.8311     N
H       0.4211   0.2402   0.3921     H
H       0.4211   0.7598   0.8921     H
N       0.4211  0.95725   0.3311     N
H       0.4266   0.3824   0.9627     H
H       0.4266   0.6176   0.4627     H
C       0.4375   0.0536   0.9045     C
C       0.4375   0.9464   0.4045     C
O       0.4382  0.22439   0.9918     O
O       0.4382  0.77561   0.4918     O
C       0.4447   0.4412   0.4449     C
C       0.4447   0.5588   0.9449     C
H       0.4452    0.418    0.184     H
H       0.4452    0.582    0.684     H
C       0.4551   0.4067   0.0705     C
C       0.4551   0.5933   0.5705     C
C       0.4889   0.2555   0.5372     C
C       0.4889   0.7445   0.0372     C
O       0.4959  0.26435   0.6071     O
O       0.4959  0.73565   0.1071     O
O        0.497  0.15826   0.8485     O
O        0.497  0.84174   0.3485     O
H       0.4994   0.0759   0.9182     H
H       0.4994   0.9241   0.4182     H
Zn         0.5  0.08588     0.75    Zn
Zn         0.5  0.91412     0.25    Zn
H       0.5006   0.0759   0.5818     H
H       0.5006   0.9241   0.0818     H
O        0.503  0.15826   0.6515     O
O        0.503  0.84174   0.1515     O
O       0.5041  0.26435   0.8929     O
O       0.5041  0.73565   0.3929     O
C       0.5111   0.2555   0.9628     C
C       0.5111   0.7445   0.4628     C
C       0.5449   0.4067   0.4295     C
C       0.5449   0.5933   0.9295     C
H       0.5548    0.418    0.316     H
H       0.5548    0.582    0.816     H
C       0.5553   0.4412   0.0551     C
C       0.5553   0.5588   0.5551     C
O       0.5618  0.22439   0.5082     O
O       0.5618  0.77561   0.0082     O
C       0.5625   0.0536   0.5955     C
C       0.5625   0.9464   0.0955     C
H       0.5734   0.3824   0.5373     H
H       0.5734   0.6176   0.0373     H
N       0.5789  0.04275   0.6689     N
H       0.5789   0.2402   0.1079     H
H       0.5789   0.7598   0.6079     H
N       0.5789  0.95725   0.1689     N
C       0.5883      0.4   0.3566     C
C       0.5883      0.6   0.8566     C
C        0.599   0.3791   0.4872     C
C        0.599   0.6209   0.9872     C
N       0.6007    0.471   0.1089     N
N       0.6007    0.529   0.6089     N
C       0.6066   0.2803   0.0142     C
C       0.6066   0.7197   0.5142     C
N       0.6101  0.44573   0.9869     N
N       0.6101  0.55427   0.4869     N
C       0.6112  0.14913   0.8439     C
C       0.6112  0.85087   0.3439     C
H       0.6184   0.0431   0.4872     H
H       0.6184   0.9569   0.9872     H
C       0.6274   0.2651   0.0893     C
C       0.6274   0.7349   0.5893     C
C       0.6321   0.0338   0.5379     C
C       0.6321   0.9662   0.0379     C
Zn     0.63853   0.2129  0.62923    Zn
Zn     0.63853   0.7871  0.12923    Zn
O        0.649  0.11346   0.8056     O
O        0.649  0.88654   0.3056     O
C       0.6622   0.0086   0.6867     C
C       0.6622   0.9914   0.1867     C
H       0.6636   0.3279   0.9365     H
H       0.6636   0.6721   0.4365     H
H       0.6721   0.0007   0.2377     H
H       0.6721   0.9993   0.7377     H
O       0.6731  0.21293   0.7425     O
O       0.6731  0.78707   0.2425     O
C       0.6769   0.3175   0.9868     C
C       0.6769   0.6825   0.4868     C
O       0.6801   0.2324   0.2371     O
O       0.6801   0.7676   0.7371     O
C       0.6805   0.3671   0.3439     C
C       0.6805   0.6329   0.8439     C
H       0.6859    0.135   0.9843     H
H       0.6859    0.865   0.4843     H
C       0.6904   0.3469   0.4704     C
C       0.6904   0.6531   0.9704     C
N       0.6917   0.4963   0.0722     N
N       0.6917   0.5037   0.5722     N
C       0.6944   0.4803   0.9999     C
C       0.6944   0.5197   0.4999     C
H       0.7083   0.4625    0.852     H
H       0.7083   0.5375    0.352     H
H       0.7087   0.3634   0.2943     H
H       0.7087   0.6366   0.7943     H
C       0.7106  0.17571    0.891     C
C       0.7106  0.82429    0.391     C
C        0.719   0.2861   0.1373     C
C        0.719   0.7139   0.6373     C
C       0.7223   0.0003   0.0572     C
C       0.7223   0.9997   0.5572     C
H        0.726   0.3288   0.5102     H
H        0.726   0.6712   0.0102     H
N       0.7316   0.3399   0.3999     N
N       0.7316   0.6601   0.8999     N
C       0.7324   0.1604   0.9657     C
C       0.7324   0.8396   0.4657     C
C       0.7349   0.0137    0.133     C
C       0.7349   0.9863    0.633     C
H       0.7386   0.4816   0.5921     H
H       0.7386   0.5184   0.0921     H
C       0.7407    0.267    0.217     C
C       0.7407    0.733    0.717     C
C       0.7593    0.233    0.783     C
C       0.7593    0.767    0.283     C
H       0.7614   0.0184   0.4079     H
H       0.7614   0.9816   0.9079     H
C       0.7651   0.4863    0.867     C
C       0.7651   0.5137    0.367     C
C       0.7676   0.3396   0.0343     C
C       0.7676   0.6604   0.5343     C
N       0.7684   0.1601   0.6001     N
N       0.7684   0.8399   0.1001     N
H        0.774   0.1712   0.4898     H
H        0.774   0.8288   0.9898     H
C       0.7777   0.4997   0.9428     C
C       0.7777   0.5003   0.4428     C
C        0.781   0.2139   0.8627     C
C        0.781   0.7861   0.3627     C
C       0.7894  0.32429    0.109     C
C       0.7894  0.67571    0.609     C
H       0.7913   0.1366   0.7057     H
H       0.7913   0.8634   0.2057     H
H       0.7917   0.0375    0.148     H
H       0.7917   0.9625    0.648     H
C       0.8056   0.0197   0.0001     C
C       0.8056   0.9803   0.5001     C
N       0.8083   0.0037   0.9278     N
N       0.8083   0.9963   0.4278     N
C       0.8096   0.1531   0.5296     C
C       0.8096   0.8469   0.0296     C
H       0.8141    0.365   0.0157     H
H       0.8141    0.635   0.5157     H
C       0.8195   0.1329   0.6561     C
C       0.8195   0.8671   0.1561     C
O       0.8199   0.2676   0.7629     O
O       0.8199   0.7324   0.2629     O
C       0.8231   0.1825   0.0132     C
C       0.8231   0.8175   0.5132     C
O       0.8269  0.28707   0.2575     O
O       0.8269  0.71293   0.7575     O
H       0.8279   0.4993   0.7623     H
H       0.8279   0.5007   0.2623     H
H       0.8364   0.1721   0.0635     H
H       0.8364   0.8279   0.5635     H
C       0.8378   0.4914   0.3133     C
C       0.8378   0.5086   0.8133     C
O        0.851  0.38654   0.1944     O
O        0.851  0.61346   0.6944     O
Zn     0.86147   0.2871  0.37077    Zn
Zn     0.86147   0.7129  0.87077    Zn
C       0.8679   0.4662   0.4621     C
C       0.8679   0.5338   0.9621     C
C       0.8726   0.2349   0.9107     C
C       0.8726   0.7651   0.4107     C
H       0.8816   0.4569   0.5128     H
H       0.8816   0.5431   0.0128     H
C       0.8888  0.35087   0.1561     C
C       0.8888  0.64913   0.6561     C
N       0.8899  0.05427   0.0131     N
N       0.8899  0.94573   0.5131     N
C       0.8934   0.2197   0.9858     C
C       0.8934   0.7803   0.4858     C
N       0.8993    0.029   0.8911     N
N       0.8993    0.971   0.3911     N
C        0.901   0.1209   0.5128     C
C        0.901   0.8791   0.0128     C
C       0.9117      0.1   0.6434     C
C       0.9117      0.9   0.1434     C
H       0.9211   0.2598   0.8921     H
N       0.9211  0.45725   0.3311     N
N       0.9211  0.54275   0.8311     N
H       0.9211   0.7402   0.3921     H
H       0.9266   0.1176   0.4627     H
H       0.9266   0.8824   0.9627     H
C       0.9375   0.4464   0.4045     C
C       0.9375   0.5536   0.9045     C
O       0.9382  0.27561   0.4918     O
O       0.9382  0.72439   0.9918     O
C       0.9447   0.0588   0.9449     C
C       0.9447   0.9412   0.4449     C
H       0.9452    0.082    0.684     H
H       0.9452    0.918    0.184     H
C       0.9551   0.0933   0.5705     C
C       0.9551   0.9067   0.0705     C
C       0.9889   0.2445   0.0372     C
C       0.9889   0.7555   0.5372     C
O       0.9959  0.23565   0.1071     O
O       0.9959  0.76435   0.6071     O
O        0.997  0.34174   0.3485     O
O        0.997  0.65826   0.8485     O
H       0.9994   0.4241   0.4182     H
H       0.9994   0.5759   0.9182     H
