data_I
_chemical_name_common  '/home/zhangsd/repos/MofS-CGCNN/ML/data/TSD/clean_cifs/DOKHIV_clean'
_cell_length_a  6.66760
_cell_length_b 17.11070
_cell_length_c 17.80620
_cell_angle_alpha 74.83600
_cell_angle_beta  79.20900
_cell_angle_gamma 78.76480
_space_group_name_H-M_alt      'P 1'


loop_
_space_group_symop_operation_xyz
  'x, y, z' 

loop_
_atom_site_label
_atom_site_fract_x
_atom_site_fract_y
_atom_site_fract_z
_atom_site_type_symbol
C        0.023    0.016   0.5994     C
H       0.0288   0.3671   0.0177     H
N       0.0299    0.599   0.0906     N
C       0.0572   0.0208    0.519     C
C       0.0716   0.6035   0.0131     C
H       0.0766    0.014   0.3688     H
H       0.1042   0.0491   0.6865     H
O       0.1297   0.8407   0.7145     O
C       0.1323   0.0541   0.6325     C
O       0.1392   0.7329   0.8173     O
C        0.155   0.7678   0.7418     C
H       0.1602   0.5491   0.1865     H
C       0.1811   0.5541   0.1325     C
H       0.1891    0.604    0.774     H
C       0.2054   0.0681   0.4761     C
C       0.2179   0.7071   0.6899     C
C       0.2274    0.624   0.7204     C
O       0.2309   0.4562   0.7756     O
H       0.2325   0.0755   0.4217     H
Cu      0.2377  0.35217  0.85313    Cu
C       0.2504   0.5681   0.9761     C
H       0.2619   0.7929   0.5905     H
H       0.2703   0.5755   0.9217     H
C       0.2719   0.7368    0.611     C
N       0.2805    0.099   0.5906     N
C       0.2936   0.5696   0.6718     C
C       0.3087   0.4784   0.7042     C
O       0.3106   0.2329   0.3173     O
C       0.3118   0.1035   0.5131     C
O       0.3151   0.3407   0.2145     O
O      0.31696  0.28868   0.9542     O
C       0.3354   0.2678   0.2418     C
C        0.342   0.6837   0.5611     C
C       0.3516   0.5998    0.591     C
H       0.3547   0.2929   0.0905     H
C       0.3616    0.516   0.0994     C
C       0.3803   0.2368    0.111     C
C       0.3851   0.2071   0.1899     C
H       0.3961    0.564   0.5578     H
O      0.39862  0.43296   0.6606     O
C       0.4021   0.2156   0.9754     C
C        0.403   0.5208    0.019     C
C       0.4069   0.7156   0.4754     C
C       0.4132   0.1837   0.0611     C
H       0.4136   0.1329   0.4823     H
O       0.4195   0.8024   0.2946     O
C       0.4282    0.124   0.2204     C
H       0.4329    0.104    0.274     H
O      0.43348  0.66664   0.4312     O
O      0.44016  0.78868   0.4542     O
Cu       0.443  0.14783  0.64687    Cu
C       0.4576   0.0998    0.091     C
H       0.4594    0.486   0.1312     H
O       0.4627   0.0438   0.7244     O
C        0.465   0.0696   0.1718     C
O      0.46868  0.16664   0.9312     O
H       0.4821    0.064   0.0578     H
O       0.4835   0.3024   0.7946     O
Cu     0.48567  0.18307  0.81957    Cu
Cu     0.48831  0.31693  0.68043    Cu
C       0.4913   0.0216   0.7958     C
O      0.49218  0.06704   0.8394     O
O      0.50782  0.93296   0.1606     O
C       0.5087   0.9784   0.2042     C
Cu     0.51169  0.68307  0.31957    Cu
Cu     0.51433  0.81693  0.18043    Cu
O       0.5165   0.6976   0.2054     O
H       0.5179    0.936   0.9422     H
O      0.53132  0.83336   0.0688     O
C        0.535   0.9304   0.8282     C
O       0.5373   0.9562   0.2756     O
H       0.5406    0.514   0.8688     H
C       0.5424   0.9002    0.909     C
Cu       0.557  0.85217  0.35313    Cu
O      0.55984  0.21132   0.5458     O
O      0.56652  0.33336   0.5688     O
H       0.5671    0.896    0.726     H
C       0.5718    0.876   0.7796     C
O       0.5805   0.1976   0.7054     O
H       0.5864   0.8671   0.5177     H
C       0.5868   0.8163   0.9389     C
C       0.5931   0.2844   0.5246     C
C        0.597   0.4792    0.981     C
C       0.5979   0.7844   0.0246     C
O      0.60138  0.56704   0.3394     O
H       0.6039    0.436   0.4422     H
C       0.6149   0.7929   0.8101     C
C       0.6197   0.7632    0.889     C
C       0.6384    0.484   0.9006     C
H       0.6453   0.7071   0.9095     H
C       0.6484   0.4002    0.409     C
C        0.658   0.3163   0.4389     C
C       0.6646   0.7322   0.7582     C
O      0.68304  0.71132   0.0458     O
O       0.6849   0.6593   0.7855     O
C       0.6882   0.8965   0.4869     C
O       0.6894   0.7671   0.6827     O
C       0.6913   0.5216   0.2958     C
C       0.7064   0.4304   0.3282     C
N       0.7195    0.901   0.4094     N
C       0.7281   0.2632    0.389     C
H       0.7297   0.4245   0.0783     H
H       0.7381   0.2071   0.4095     H
C       0.7496   0.4319   0.0239     C
Cu      0.7623  0.64783  0.14687    Cu
H       0.7675   0.9245   0.5783     H
O       0.7691   0.5438   0.2244     O
C       0.7726    0.376   0.2796     C
C       0.7821   0.2929   0.3101     C
C       0.7946   0.9319   0.5239     C
H       0.8109    0.396    0.226     H
C       0.8189   0.4459   0.8675     C
H       0.8398   0.4509   0.8135     H
C        0.845   0.2322   0.2582     C
O       0.8608   0.2671   0.1827     O
C       0.8677   0.9459   0.3675     C
O       0.8703   0.1593   0.2855     O
H       0.8958   0.9509   0.3135     H
H       0.9234    0.986   0.6312     H
C       0.9284   0.3965   0.9869     C
C       0.9428   0.9792    0.481     C
N       0.9701    0.401   0.9094     N
H       0.9712   0.6329   0.9823     H
C        0.977    0.984   0.4006     C
