data_I
_chemical_name_common  '/home/zhangsd/repos/MofS-CGCNN/ML/data/TSD/clean_cifs/DOKHOB_clean'
_cell_length_a  8.55770
_cell_length_b 18.80200
_cell_length_c 16.05420
_cell_angle_alpha 99.46900
_cell_angle_beta  90.00000
_cell_angle_gamma 90.00000
_space_group_name_H-M_alt      'P 1'


loop_
_space_group_symop_operation_xyz
  'x, y, z' 

loop_
_atom_site_label
_atom_site_fract_x
_atom_site_fract_y
_atom_site_fract_z
_atom_site_type_symbol
H       0.0019   0.3461   0.2795     H
H       0.0019   0.6539   0.2205     H
H       0.0104   0.1351   0.4981     H
H       0.0104   0.8649   0.0019     H
H       0.0175   0.4022   0.0618     H
H       0.0175   0.5978   0.4382     H
C       0.0324   0.1827   0.0016     C
C       0.0324   0.8173   0.4984     C
H       0.0476   0.1934   0.9457     H
H       0.0476   0.8066   0.5543     H
C       0.0486   0.2675   0.6327     C
C       0.0486   0.7325   0.8673     C
C       0.0587   0.4998   0.0335     C
C       0.0587   0.5002   0.4665     C
C         0.08   0.2374   0.5498     C
C         0.08   0.7626   0.9502     C
C       0.0813   0.4425   0.0754     C
C       0.0813   0.5575   0.4246     C
O       0.0943   0.1974   0.2197     O
O       0.0943   0.8026   0.2803     O
C       0.1067   0.3536   0.7685     C
C       0.1067   0.6464   0.7315     C
C        0.108   0.2488    0.174     C
C        0.108   0.7512    0.326     C
H       0.1276   0.4044   0.7749     H
H       0.1276   0.5956   0.7251     H
H       0.1309   0.1852   0.0306     H
H       0.1309   0.8148   0.4694     H
H       0.1437   0.4019   0.4631     H
H       0.1437   0.5981   0.0369     H
C       0.1473   0.3169   0.6756     C
C       0.1473   0.6831   0.8244     C
C       0.1532   0.4438   0.4396     C
C       0.1532   0.5562   0.0604     C
H       0.1695   0.3326   0.8077     H
H       0.1695   0.6674   0.6923     H
C       0.1948   0.4421    0.137     C
C       0.1948   0.5579    0.363     C
H       0.2058   0.4014   0.1625     H
H       0.2058   0.5986   0.3375     H
C        0.213   0.2566   0.5128     C
C        0.213   0.7434   0.9872     C
O       0.2283   0.2798   0.1645     O
O       0.2283   0.7202   0.3355     O
O       0.2428   0.2684   0.3689     O
O       0.2428   0.7316   0.1311     O
C       0.2474   0.2248   0.4221     C
C       0.2474   0.7752   0.0779     C
H       0.2594   0.0537    0.203     H
H       0.2594   0.9463    0.297     H
C       0.2644   0.4469   0.3775     C
C       0.2644   0.5531   0.1225     C
C       0.2816   0.3363   0.6386     C
C       0.2816   0.6637   0.8614     C
O       0.2817   0.1603   0.3994     O
O       0.2817   0.8397   0.1006     O
N       0.2853   0.4963   0.1598     N
N       0.2853   0.5037   0.3402     N
Cu     0.31522  0.20825  0.26578    Cu
Cu     0.31522  0.79175  0.23422    Cu
C       0.3166    0.307   0.5583     C
C       0.3166    0.693   0.9417     C
H       0.3195   0.0321    0.407     H
H       0.3195   0.9679    0.093     H
H       0.3277   0.4068   0.3613     H
H       0.3277   0.5932   0.1387     H
C       0.3302   0.0651   0.1632     C
C       0.3302   0.9349   0.3368     C
C       0.3672   0.0128   0.0978     C
C       0.3672   0.9872   0.4022     C
N       0.3878   0.1313   0.1747     N
N       0.3878   0.8687   0.3253     N
C       0.3882   0.3917   0.6887     C
C       0.3882   0.6083   0.8113     C
O       0.3957   0.4544   0.6679     O
O       0.3957   0.5456   0.8321     O
H       0.3975   0.1106   0.5065     H
H       0.3975   0.8894   0.9935     H
H       0.4451   0.3123   0.0512     H
H       0.4451   0.6877   0.4488     H
Cu      0.4452      0.5     0.25    Cu
C       0.4659   0.0966   0.5458     C
C       0.4659   0.9034   0.9542     C
C       0.4687   0.3253   0.5185     C
C       0.4687   0.6747   0.9815     C
O       0.4719   0.3745   0.7469     O
O       0.4719   0.6255   0.7531     O
H       0.4722   0.3762   0.5171     H
H       0.4722   0.6238   0.9829     H
H       0.4754   0.2992    0.462     H
H       0.4754   0.7008    0.038     H
H       0.4771   0.1929   0.6212     H
H       0.4771   0.8071   0.8788     H
C       0.4787   0.0261   0.0363     C
C       0.4787   0.9739   0.4637     C
C        0.485   0.1461   0.1158     C
C        0.485   0.8539   0.3842     C
C        0.515   0.1461   0.6158     C
C        0.515   0.8539   0.8842     C
C       0.5213   0.0261   0.5363     C
C       0.5213   0.9739   0.9637     C
H       0.5229   0.1929   0.1212     H
H       0.5229   0.8071   0.3788     H
H       0.5246   0.2992    0.962     H
H       0.5246   0.7008    0.538     H
H       0.5278   0.3762   0.0171     H
H       0.5278   0.6238   0.4829     H
O       0.5281   0.3745   0.2469     O
O       0.5281   0.6255   0.2531     O
C       0.5313   0.3253   0.0185     C
C       0.5313   0.6747   0.4815     C
C       0.5341   0.0966   0.0458     C
C       0.5341   0.9034   0.4542     C
Cu      0.5548      0.5     0.75    Cu
H       0.5549   0.3123   0.5512     H
H       0.5549   0.6877   0.9488     H
H       0.6025   0.1106   0.0065     H
H       0.6025   0.8894   0.4935     H
O       0.6043   0.4544   0.1679     O
O       0.6043   0.5456   0.3321     O
C       0.6118   0.3917   0.1887     C
C       0.6118   0.6083   0.3113     C
N       0.6122   0.1313   0.6747     N
N       0.6122   0.8687   0.8253     N
C       0.6328   0.0128   0.5978     C
C       0.6328   0.9872   0.9022     C
C       0.6698   0.0651   0.6632     C
C       0.6698   0.9349   0.8368     C
H       0.6723   0.4068   0.8613     H
H       0.6723   0.5932   0.6387     H
H       0.6805   0.0321    0.907     H
H       0.6805   0.9679    0.593     H
C       0.6834    0.307   0.0583     C
C       0.6834    0.693   0.4417     C
Cu     0.68478  0.20825  0.76578    Cu
Cu     0.68478  0.79175  0.73422    Cu
N       0.7147   0.4963   0.6598     N
N       0.7147   0.5037   0.8402     N
O       0.7183   0.1603   0.8994     O
O       0.7183   0.8397   0.6006     O
C       0.7184   0.3363   0.1386     C
C       0.7184   0.6637   0.3614     C
C       0.7356   0.4469   0.8775     C
C       0.7356   0.5531   0.6225     C
H       0.7406   0.0537    0.703     H
H       0.7406   0.9463    0.797     H
C       0.7526   0.2248   0.9221     C
C       0.7526   0.7752   0.5779     C
O       0.7572   0.2684   0.8689     O
O       0.7572   0.7316   0.6311     O
O       0.7717   0.2798   0.6645     O
O       0.7717   0.7202   0.8355     O
C        0.787   0.2566   0.0128     C
C        0.787   0.7434   0.4872     C
H       0.7942   0.4014   0.6625     H
H       0.7942   0.5986   0.8375     H
C       0.8052   0.4421    0.637     C
C       0.8052   0.5579    0.863     C
H       0.8305   0.3326   0.3077     H
H       0.8305   0.6674   0.1923     H
C       0.8468   0.4438   0.9396     C
C       0.8468   0.5562   0.5604     C
C       0.8527   0.3169   0.1756     C
C       0.8527   0.6831   0.3244     C
H       0.8563   0.4019   0.9631     H
H       0.8563   0.5981   0.5369     H
H       0.8691   0.1852   0.5306     H
H       0.8691   0.8148   0.9694     H
H       0.8724   0.4044   0.2749     H
H       0.8724   0.5956   0.2251     H
C        0.892   0.2488    0.674     C
C        0.892   0.7512    0.826     C
C       0.8933   0.3536   0.2685     C
C       0.8933   0.6464   0.2315     C
O       0.9057   0.1974   0.7197     O
O       0.9057   0.8026   0.7803     O
C       0.9187   0.4425   0.5754     C
C       0.9187   0.5575   0.9246     C
C         0.92   0.2374   0.0498     C
C         0.92   0.7626   0.4502     C
C       0.9413   0.4998   0.5335     C
C       0.9413   0.5002   0.9665     C
C       0.9514   0.2675   0.1327     C
C       0.9514   0.7325   0.3673     C
H       0.9524   0.1934   0.4457     H
H       0.9524   0.8066   0.0543     H
C       0.9676   0.1827   0.5016     C
C       0.9676   0.8173   0.9984     C
H       0.9825   0.4022   0.5618     H
H       0.9825   0.5978   0.9382     H
H       0.9896   0.1351   0.9981     H
H       0.9896   0.8649   0.5019     H
H       0.9981   0.3461   0.7795     H
H       0.9981   0.6539   0.7205     H
