data_I
_chemical_name_common  '/home/zhangsd/repos/MofS-CGCNN/ML/data/TSD/clean_cifs/DOMCUE_clean'
_cell_length_a 27.92000
_cell_length_b 27.92000
_cell_length_c 30.66930
_cell_angle_alpha 62.92350
_cell_angle_beta  62.92350
_cell_angle_gamma 89.99990
_space_group_name_H-M_alt      'P 1'


loop_
_space_group_symop_operation_xyz
  'x, y, z' 

loop_
_atom_site_label
_atom_site_fract_x
_atom_site_fract_y
_atom_site_fract_z
_atom_site_type_symbol
Cl     0.00305  0.26552   0.7404    Cl
O      0.00566  0.05866  0.42328     O
Cl     0.00592  0.99695   0.7596    Cl
C       0.0076    0.237   0.8344     C
C       0.0121   0.7752   0.1106     C
Cl     0.01383  0.25875  0.57006    Cl
Cl     0.01414   0.1363  0.63424    Cl
Cl     0.01415  0.51506  0.34208    Cl
O      0.01464   0.4704  0.54632     O
O      0.01515  0.15425   0.9455     O
O      0.01672  0.98536  0.95368     O
C      0.01774  0.07984  0.84012     C
Cl     0.02186  0.87721  0.23068    Cl
Cl     0.02203  0.96111  0.38622    Cl
C       0.0224   0.2057   0.9176     C
C      0.02335  0.74515   0.1925     C
C       0.0263   0.0969   0.7868     C
Cl     0.02645  0.92705  0.70216    Cl
C       0.0352   0.5418   0.4166     C
Cl     0.03889  0.90825  0.11378    Cl
C       0.0416   0.0352   0.9166     C
C      0.04582  0.58112  0.31976     C
O      0.04757  0.36137  0.58206     O
C       0.0482   0.0416   0.4166     C
C      0.05298  0.05358  0.85744     C
O      0.05306  0.24256  0.91128     O
C      0.05358  0.58958  0.35744     C
Tb     0.05515  0.09406  0.99025    Tb
C      0.05536  0.24246  0.60068     C
Cl     0.05558  0.61181  0.21928    Cl
C      0.05585  0.18685   0.6289     C
O      0.05657  0.04757  0.08206     O
O      0.05866  0.07106  0.92328     O
O      0.06096  0.01672  0.45368     O
Cl     0.06118  0.15712  0.11754    Cl
C      0.06235  0.02335   0.6925     C
C      0.06317  0.62467  0.26586     C
C      0.06464  0.76834  0.08212     C
O      0.07106  0.51806  0.42328     O
C       0.0714   0.9924   0.6656     C
Cl     0.07295  0.22861  0.79784    Cl
C      0.07366  0.09056  0.74688     C
C      0.07664  0.74054  0.16312     C
C      0.07984  0.64214  0.34012     C
C      0.08004  0.01774  0.34012     C
Cl     0.08389  0.82881  0.42994    Cl
Tb     0.08431  0.94486  0.50974    Tb
C      0.08616  0.28366  0.59668     C
C      0.08627  0.11237  0.68886     C
C      0.08661  0.17061  0.65618     C
C       0.0882    0.344   0.5622     C
Cl     0.08895  0.78113  0.01392    Cl
C      0.08898  0.05298  0.35744     C
C      0.09056  0.67946  0.24688     C
Cl     0.09175  0.65267  0.38622    Cl
C       0.0938   0.0882   0.0622     C
Tb     0.09405   0.4546  0.49026    Tb
C        0.096   0.7521   0.1068     C
C      0.09634  0.07664  0.66312     C
C       0.0969   0.6869   0.2868     C
C      0.09912  0.04582  0.81976     C
O      0.09975  0.98485   0.5545     O
Cl     0.10789  0.97814  0.26932    Cl
C      0.10863  0.11723  0.12294     C
C      0.10947  0.06317  0.76586     C
O      0.11231  0.12941  0.01418     O
C      0.11237  0.72487  0.18886     C
C       0.1142   0.0121   0.6106     C
C       0.1163   0.0263   0.2868     C
C      0.11723  0.26843  0.62294     C
C      0.11765  0.21455   0.6519     C
C      0.11966  0.08616  0.09668     C
Cl     0.12051  0.16154  0.17962    Cl
Cl     0.12279  0.75254  0.26932    Cl
C       0.1233   0.9776   0.5824     C
O      0.12941  0.37351  0.51418     O
O      0.12963  0.94343  0.41794     O
C      0.13355  0.11765   0.1519     C
C      0.13442  0.09912  0.31976     C
Cl      0.1363  0.85162  0.13424    Cl
C       0.1411    0.096   0.6068     C
Cl     0.14286  0.01415  0.84208    Cl
O      0.14359  0.88769  0.48582     O
Cl     0.14377  0.14286  0.34208    Cl
Cl     0.14838  0.77054  0.36576    Cl
C      0.14954  0.06464  0.58212     C
C       0.1504   0.9062   0.4378     C
O      0.15384  0.94694  0.58872     O
O      0.15425  0.53935   0.4455     O
C      0.15604  0.84314  0.39932     C
C      0.15686  0.05536  0.10068     C
Cl     0.15712  0.32128  0.61754    Cl
Cl     0.15968  0.74123  0.06986    Cl
Cl     0.16154  0.19987  0.67962    Cl
C      0.16256  0.07366  0.24688     C
Cl     0.16891  0.05558  0.71928    Cl
C      0.17061  0.75721  0.15618     C
C      0.17097  0.10947  0.26586     C
Cl     0.17119  0.01383  0.07006    Cl
C      0.17321  0.08661  0.15618     C
C      0.18284  0.88034  0.40332     C
C      0.18425  0.05585   0.1289     C
C      0.18475  0.81575   0.3711     C
C      0.18685  0.81525   0.1289     C
Cl     0.18891  0.15968  0.56986    Cl
C      0.19877  0.08627  0.18886     C
Cl     0.19987  0.65884  0.17962    Cl
Cl     0.20495  0.08895  0.51392    Cl
C       0.2057     0.56   0.4176     C
C      0.21455  0.73045   0.1519     C
Cl     0.21887  0.60287  0.48608    Cl
C       0.2248   0.6227   0.3894     C
Cl     0.22514  0.16891  0.21928    Cl
Cl     0.22861  0.62921  0.29784    Cl
Cl     0.22946  0.01414  0.13424    Cl
C      0.23166  0.64676  0.41788     C
C        0.237    0.658   0.3344     C
C      0.24017  0.89137  0.37706     C
C      0.24246  0.84396  0.10068     C
O      0.24256  0.53566  0.41128     O
C      0.24279  0.82679  0.34382     C
Cl     0.24345  0.00592   0.2596    Cl
Cl     0.24746  0.89211  0.23068    Cl
C       0.2479   0.7028   0.3932     C
C      0.25485  0.71585   0.3075     C
Cl     0.25875  0.91611  0.07006    Cl
Cl     0.25877  0.72954  0.43014    Cl
C      0.25946  0.73976  0.33688     C
C      0.26024  0.09634  0.16312     C
Cl     0.26552  0.75655   0.2404    Cl
C      0.26843  0.75983  0.12294     C
C      0.26955  0.86645   0.3481     C
Cl     0.27046  0.18891  0.06986    Cl
Cl     0.27466  0.93882  0.38246    Cl
C      0.27513  0.80123  0.31114     C
C      0.28366  0.81716  0.09668     C
C      0.28415  0.06235   0.1925     C
C       0.2972   0.1411   0.1068     C
C       0.3131   0.8837   0.2132     C
C      0.32054  0.83744  0.25312     C
Cl     0.32128  0.72534  0.11754    Cl
Cl     0.34116  0.87949  0.32038    Cl
C        0.342   0.0714   0.1656     C
C        0.344   0.8496   0.0622     C
Cl     0.34733  0.97797  0.11378    Cl
C      0.35324  0.14954  0.08212     C
C      0.35786  0.91996  0.15988     C
O      0.36137  0.87037  0.08206     O
Cl     0.37079  0.02645  0.20216    Cl
O      0.37351  0.85641  0.01418     O
C      0.37533  0.82903  0.23414     C
C       0.3773   0.1142   0.1106     C
Cl     0.38819  0.77486  0.28072    Cl
Cl     0.39713  0.20495  0.01392    Cl
C      0.41042  0.91102  0.14256     C
C      0.41888  0.86558  0.18024     C
C         0.44   0.1233   0.0824     C
Tb     0.45459  0.91568  0.99027    Tb
C       0.4582   0.9518   0.0834     C
O      0.46065  0.09975   0.0545     O
O      0.46434  0.15384  0.08872     O
O       0.4704  0.93904  0.04632     O
O      0.48194  0.99434  0.07672     O
Cl     0.48494  0.85623  0.15792    Cl
Cl     0.51506  0.14377  0.84208    Cl
O      0.51806  0.00566  0.92328     O
O       0.5296  0.06096  0.95368     O
O      0.53566  0.84616  0.91128     O
O      0.53935  0.90025   0.9455     O
C       0.5418   0.0482   0.9166     C
Tb     0.54541  0.08432  0.00973    Tb
C         0.56   0.8767   0.9176     C
C      0.58112  0.13442  0.81976     C
C      0.58958  0.08898  0.85744     C
Cl     0.60287  0.79505  0.98608    Cl
Cl     0.61181  0.22514  0.71928    Cl
C       0.6227   0.8858   0.8894     C
C      0.62467  0.17097  0.76586     C
O      0.62649  0.14359  0.98582     O
Cl     0.62921  0.97355  0.79784    Cl
O      0.63863  0.12963  0.91794     O
C      0.64214  0.08004  0.84012     C
C      0.64676  0.85046  0.91788     C
Cl     0.65267  0.02203  0.88622    Cl
C        0.656   0.1504   0.9378     C
C        0.658   0.9286   0.8344     C
Cl     0.65884  0.12051  0.67962    Cl
Cl     0.67872  0.27466  0.88246    Cl
C      0.67946  0.16256  0.74688     C
C       0.6869   0.1163   0.7868     C
C       0.7028   0.8589   0.8932     C
C      0.71585  0.93765   0.8075     C
C      0.71634  0.18284  0.90332     C
C      0.72487  0.19877  0.68886     C
Cl     0.72534  0.06118  0.61754    Cl
Cl     0.72954  0.81109  0.93014    Cl
C      0.73045  0.13355   0.6519     C
C      0.73157  0.24017  0.87706     C
Cl     0.73448  0.24345   0.7596    Cl
C      0.73976  0.90366  0.83688     C
C      0.74054  0.26024  0.66312     C
Cl     0.74123  0.27046  0.56986    Cl
Cl     0.74125  0.08389  0.92994    Cl
C      0.74515  0.28415   0.6925     C
C       0.7521   0.2972   0.6068     C
Cl     0.75254  0.10789  0.76932    Cl
Cl     0.75655  0.99408   0.7404    Cl
C      0.75721  0.17321  0.65618     C
O      0.75744  0.46434  0.58872     O
C      0.75754  0.15604  0.89932     C
C      0.75983  0.10863  0.62294     C
C        0.763    0.342   0.6656     C
C      0.76834  0.35324  0.58212     C
Cl     0.77054  0.98586  0.86576    Cl
Cl     0.77139  0.37079  0.70216    Cl
Cl     0.77486  0.83109  0.78072    Cl
C       0.7752   0.3773   0.6106     C
Cl     0.78113  0.39713  0.51392    Cl
C      0.78545  0.26955   0.8481     C
C       0.7943     0.44   0.5824     C
Cl     0.79505  0.91105  0.48608    Cl
Cl     0.80013  0.34116  0.82038    Cl
C      0.80123  0.91373  0.81114     C
Cl     0.81109  0.84032  0.43014    Cl
C      0.81315  0.18475   0.8711     C
C      0.81525  0.18425   0.6289     C
C      0.81575  0.94415   0.8711     C
C      0.81716  0.11966  0.59668     C
C      0.82679  0.91339  0.84382     C
Cl     0.82881  0.98617  0.92994    Cl
C      0.82903  0.89053  0.73414     C
C      0.82939  0.24279  0.84382     C
Cl     0.83109  0.94442  0.28072    Cl
C      0.83744  0.92634  0.75312     C
Cl     0.83846  0.80013  0.32038    Cl
Cl     0.84032  0.25877  0.93014    Cl
Cl     0.84288  0.67872  0.38246    Cl
C      0.84314  0.94464  0.89932     C
C      0.84396  0.15686  0.60068     C
O      0.84575  0.46065   0.5545     O
O      0.84616  0.05306  0.41128     O
C       0.8496   0.0938   0.5622     C
C      0.85046  0.93536  0.41788     C
Cl     0.85162  0.22946  0.63424    Cl
Cl     0.85623  0.85714  0.65792    Cl
O      0.85641  0.11231  0.51418     O
Cl     0.85714  0.98585  0.15792    Cl
C       0.8589    0.904   0.3932     C
Cl      0.8637  0.14838  0.86576    Cl
C      0.86558  0.90088  0.68024     C
C      0.86645  0.88235   0.8481     C
O      0.87037  0.05657  0.58206     O
O      0.87059  0.62649  0.48582     O
C       0.8767   0.0224   0.4176     C
Cl     0.87721  0.24746  0.73068    Cl
Cl     0.87949  0.83846  0.82038    Cl
C      0.88034  0.91384  0.90332     C
C      0.88235  0.78545   0.3481     C
C      0.88277  0.73157  0.37706     C
C       0.8837   0.9737   0.7132     C
C       0.8858   0.9879   0.3894     C
C      0.88763  0.27513  0.81114     C
O      0.88769  0.87059  0.98582     O
C      0.89053  0.93683  0.23414     C
C      0.89137  0.88277  0.87706     C
Cl     0.89211  0.02186  0.73068    Cl
O      0.90025  0.01515   0.4455     O
C      0.90088  0.95418  0.18024     C
C       0.9031   0.3131   0.7132     C
C      0.90366  0.92336  0.33688     C
C        0.904   0.2479   0.8932     C
Tb     0.90595   0.5454  0.50974    Tb
C       0.9062   0.9118   0.9378     C
Cl     0.90825  0.34733  0.61378    Cl
C      0.90944  0.32054  0.75312     C
C      0.91102  0.94702  0.64256     C
Cl     0.91105  0.21887  0.98608    Cl
C       0.9118    0.656   0.4378     C
C      0.91339  0.82939  0.34382     C
C      0.91373  0.88763  0.31114     C
C      0.91384  0.71634  0.40332     C
Tb     0.91569  0.05514  0.49026    Tb
Cl     0.91611  0.17119  0.57006    Cl
C      0.91996  0.98226  0.65988     C
C      0.92016  0.35786  0.65988     C
C      0.92336  0.25946  0.83688     C
C      0.92634  0.90944  0.25312     C
Cl     0.92705  0.77139  0.20216    Cl
C       0.9286   0.0076   0.3344     C
O      0.92894  0.48194  0.57672     O
C      0.93536  0.23166  0.91788     C
C      0.93683  0.37533  0.73414     C
C      0.93765  0.97665   0.3075     C
Cl     0.93882  0.84288  0.88246    Cl
O      0.93904  0.98328  0.54632     O
O      0.94134  0.92894  0.07672     O
O      0.94343  0.95243  0.91794     O
C      0.94415  0.81315   0.3711     C
Cl     0.94442  0.38819  0.78072    Cl
C      0.94464  0.75754  0.39932     C
Tb     0.94485  0.90594  0.00975    Tb
C      0.94642  0.41042  0.64256     C
O      0.94694  0.75744  0.08872     O
C      0.94702  0.94642  0.14256     C
C       0.9518   0.9584   0.5834     C
O      0.95243  0.63863  0.41794     O
C      0.95418  0.41888  0.68024     C
C       0.9584   0.9648   0.0834     C
Cl     0.96111  0.09175  0.88622    Cl
C       0.9648   0.4582   0.5834     C
Cl     0.97355  0.07295  0.29784    Cl
C       0.9737   0.9031   0.2132     C
C      0.97665  0.25485   0.8075     C
C       0.9776   0.7943   0.0824     C
Cl     0.97797  0.03889  0.61378    Cl
Cl     0.97814  0.12279  0.76932    Cl
C      0.98226  0.92016  0.15988     C
O      0.98328  0.01464  0.04632     O
O      0.98485  0.84575   0.0545     O
O      0.98536   0.5296  0.45368     O
Cl     0.98585  0.48494  0.65792    Cl
Cl     0.98586   0.8637  0.36576    Cl
Cl     0.98617  0.74125  0.42994    Cl
C       0.9879   0.2248   0.8894     C
C       0.9924    0.763   0.1656     C
Cl     0.99408  0.00305   0.2404    Cl
O      0.99434  0.94134  0.57672     O
Cl     0.99695  0.73448   0.2596    Cl
