data_I
_chemical_name_common  '/home/zhangsd/repos/MofS-CGCNN/ML/data/TSD/clean_cifs/DOQGUM_clean'
_cell_length_a  7.19910
_cell_length_b 10.29260
_cell_length_c 13.38380
_cell_angle_alpha 90.00000
_cell_angle_beta  90.00000
_cell_angle_gamma 98.89800
_space_group_name_H-M_alt      'P 1'


loop_
_space_group_symop_operation_xyz
  'x, y, z' 

loop_
_atom_site_label
_atom_site_fract_x
_atom_site_fract_y
_atom_site_fract_z
_atom_site_type_symbol
C       0.0026   0.2255   0.6629     C
C       0.0026   0.7255   0.8371     C
O       0.0403   0.1697  0.74278     O
O       0.0403   0.6697  0.75722     O
C       0.0546   0.3737    0.656     C
C       0.0546   0.8737    0.844     C
H       0.0602   0.0871   0.1481     H
H       0.0602   0.5871   0.3519     H
O       0.0787   0.3327  0.08891     O
O       0.0787   0.8327  0.41109     O
H       0.1265   0.4982   0.7559     H
H       0.1265   0.9982   0.7441     H
O       0.1353   0.3685  0.45524     O
O       0.1353   0.8685  0.04476     O
O       0.1496    0.424  0.74478     O
O       0.1496    0.924  0.75522     O
La     0.15928  0.28238  0.90594    La
La     0.15928  0.78238  0.59406    La
P      0.21498   0.4264  0.55193     P
P      0.21498   0.9264  0.94807     P
O       0.2569   0.0732  0.94206     O
O       0.2569   0.5732  0.55794     O
O       0.3099   0.0207  0.57647     O
O       0.3099   0.5207  0.92353     O
O       0.3978   0.3708    0.584     O
O       0.3978   0.8708    0.916     O
H         0.41   0.3072   0.5491     H
H         0.41   0.8072   0.9509     H
C       0.4535   0.0548    0.526     C
C       0.4535   0.5548    0.974     C
O       0.4674   0.3292  0.00985     O
O       0.4674   0.8292  0.49015     O
O       0.5326   0.1708  0.50985     O
O       0.5326   0.6708  0.99015     O
C       0.5465   0.4452    0.026     C
C       0.5465   0.9452    0.474     C
H         0.59   0.1928   0.0491     H
H         0.59   0.6928   0.4509     H
O       0.6022   0.1292    0.084     O
O       0.6022   0.6292    0.416     O
O       0.6901   0.4793  0.07647     O
O       0.6901   0.9793  0.42353     O
O       0.7431   0.4268  0.44206     O
O       0.7431   0.9268  0.05794     O
P      0.78502   0.0736  0.05193     P
P      0.78502   0.5736  0.44807     P
La     0.84072  0.21762  0.40594    La
La     0.84072  0.71762  0.09406    La
O       0.8504    0.076  0.24478     O
O       0.8504    0.576  0.25522     O
O       0.8647   0.1315  0.95524     O
O       0.8647   0.6315  0.54476     O
H       0.8735   0.0018   0.2559     H
H       0.8735   0.5018   0.2441     H
O       0.9213   0.1673  0.58891     O
O       0.9213   0.6673  0.91109     O
H       0.9398   0.4129   0.6481     H
H       0.9398   0.9129   0.8519     H
C       0.9454   0.1263    0.156     C
C       0.9454   0.6263    0.344     C
O       0.9597   0.3303  0.24278     O
O       0.9597   0.8303  0.25722     O
C       0.9974   0.2745   0.1629     C
C       0.9974   0.7745   0.3371     C
