data_I
_chemical_name_common  '/home/zhangsd/repos/MofS-CGCNN/ML/data/TSD/clean_cifs/DOQHEX_clean'
_cell_length_a  7.23000
_cell_length_b 10.25350
_cell_length_c 13.22390
_cell_angle_alpha 90.00000
_cell_angle_beta  90.00000
_cell_angle_gamma 99.86900
_space_group_name_H-M_alt      'P 1'


loop_
_space_group_symop_operation_xyz
  'x, y, z' 

loop_
_atom_site_label
_atom_site_fract_x
_atom_site_fract_y
_atom_site_fract_z
_atom_site_type_symbol
C       0.0018   0.2257   0.6633     C
C       0.0018   0.7257   0.8367     C
O       0.0396    0.169   0.7435     O
O       0.0396    0.669   0.7565     O
C       0.0561   0.3749   0.6557     C
C       0.0561   0.8749   0.8443     C
H       0.0578    0.086   0.1488     H
H       0.0578    0.586   0.3512     H
O       0.0806   0.3337   0.0876     O
O       0.0806   0.8337   0.4124     O
O       0.1313   0.3685   0.4531     O
O       0.1313   0.8685   0.0469     O
H       0.1315   0.4988   0.7584     H
H       0.1315   0.9988   0.7416     H
O       0.1532   0.4245   0.7462     O
O       0.1532   0.9245   0.7538     O
Pr     0.16239  0.28166  0.90546    Pr
Pr     0.16239  0.78166  0.59454    Pr
P      0.21308  0.42834  0.54994     P
P      0.21308  0.92834  0.95006     P
O       0.2552   0.0765   0.9446     O
O       0.2552   0.5765   0.5554     O
O       0.3067    0.019   0.5736     O
O       0.3067    0.519   0.9264     O
O       0.3971    0.375   0.5808     O
O       0.3971    0.875   0.9192     O
H       0.4083   0.3111   0.5454     H
H       0.4083   0.8111   0.9546     H
C       0.4522   0.0542   0.5243     C
C       0.4522   0.5542   0.9757     C
O        0.468   0.3283   0.0087     O
O        0.468   0.8283   0.4913     O
O        0.532   0.1717   0.5087     O
O        0.532   0.6717   0.9913     O
C       0.5478   0.4458   0.0243     C
C       0.5478   0.9458   0.4757     C
H       0.5917   0.1889   0.0454     H
H       0.5917   0.6889   0.4546     H
O       0.6029    0.125   0.0808     O
O       0.6029    0.625   0.4192     O
O       0.6933    0.481   0.0736     O
O       0.6933    0.981   0.4264     O
O       0.7448   0.4235   0.4446     O
O       0.7448   0.9235   0.0554     O
P      0.78692  0.07166  0.04994     P
P      0.78692  0.57166  0.45006     P
Pr     0.83761  0.21834  0.40546    Pr
Pr     0.83761  0.71834  0.09454    Pr
O       0.8468   0.0755   0.2462     O
O       0.8468   0.5755   0.2538     O
H       0.8685   0.0012   0.2584     H
H       0.8685   0.5012   0.2416     H
O       0.8687   0.1315   0.9531     O
O       0.8687   0.6315   0.5469     O
O       0.9194   0.1663   0.5876     O
O       0.9194   0.6663   0.9124     O
H       0.9422    0.414   0.6488     H
H       0.9422    0.914   0.8512     H
C       0.9439   0.1251   0.1557     C
C       0.9439   0.6251   0.3443     C
O       0.9604    0.331   0.2435     O
O       0.9604    0.831   0.2565     O
C       0.9982   0.2743   0.1633     C
C       0.9982   0.7743   0.3367     C
