data_I
_chemical_name_common  '/home/zhangsd/repos/MofS-CGCNN/ML/data/TSD/clean_cifs/DOQHUN_clean'
_cell_length_a  7.22930
_cell_length_b 10.19800
_cell_length_c 13.04290
_cell_angle_alpha 90.00000
_cell_angle_beta  90.00000
_cell_angle_gamma 100.54100
_space_group_name_H-M_alt      'P 1'


loop_
_space_group_symop_operation_xyz
  'x, y, z' 

loop_
_atom_site_label
_atom_site_fract_x
_atom_site_fract_y
_atom_site_fract_z
_atom_site_type_symbol
C       0.0004    0.226   0.6638     C
C       0.0004    0.726   0.8362     C
O       0.0386   0.1694   0.7454     O
O       0.0386   0.6694   0.7546     O
C        0.056   0.3765   0.6573     C
C        0.056   0.8765   0.8427     C
H       0.0577   0.0844   0.1513     H
H       0.0577   0.5844   0.3487     H
O       0.0813   0.3335   0.0875     O
O       0.0813   0.8335   0.4125     O
O       0.1276    0.368   0.4513     O
O       0.1276    0.868   0.0487     O
H       0.1354    0.001   0.7393     H
H       0.1354    0.501   0.7607     H
O       0.1562   0.4264   0.7477     O
O       0.1562   0.9264   0.7523     O
Eu     0.16377  0.28214  0.90609    Eu
Eu     0.16377  0.78214  0.59391    Eu
P      0.21135  0.43108  0.54897     P
P      0.21135  0.93108  0.95103     P
O       0.2529   0.0801   0.9467     O
O       0.2529   0.5801   0.5533     O
O       0.3028    0.018   0.5714     O
O       0.3028    0.518   0.9286     O
O       0.3964    0.379   0.5797     O
O       0.3964    0.879   0.9203     O
H       0.4071   0.3148   0.5438     H
H       0.4071   0.8148   0.9562     H
C       0.4524   0.0552   0.5244     C
C       0.4524   0.5552   0.9756     C
O       0.4665   0.3275    0.009     O
O       0.4665   0.8275    0.491     O
O       0.5335   0.1725    0.509     O
O       0.5335   0.6725    0.991     O
C       0.5476   0.4448   0.0244     C
C       0.5476   0.9448   0.4756     C
H       0.5929   0.1852   0.0438     H
H       0.5929   0.6852   0.4562     H
O       0.6036    0.121   0.0797     O
O       0.6036    0.621   0.4203     O
O       0.6972    0.482   0.0714     O
O       0.6972    0.982   0.4286     O
O       0.7471   0.4199   0.4467     O
O       0.7471   0.9199   0.0533     O
P      0.78865  0.06892  0.04897     P
P      0.78865  0.56892  0.45103     P
Eu     0.83623  0.21786  0.40609    Eu
Eu     0.83623  0.71786  0.09391    Eu
O       0.8438   0.0736   0.2477     O
O       0.8438   0.5736   0.2523     O
H       0.8646    0.499   0.2393     H
H       0.8646    0.999   0.2607     H
O       0.8724    0.132   0.9513     O
O       0.8724    0.632   0.5487     O
O       0.9187   0.1665   0.5875     O
O       0.9187   0.6665   0.9125     O
H       0.9423   0.4156   0.6513     H
H       0.9423   0.9156   0.8487     H
C        0.944   0.1235   0.1573     C
C        0.944   0.6235   0.3427     C
O       0.9614   0.3306   0.2454     O
O       0.9614   0.8306   0.2546     O
C       0.9996    0.274   0.1638     C
C       0.9996    0.774   0.3362     C
