data_I
_chemical_name_common  '/home/zhangsd/repos/MofS-CGCNN/ML/data/TSD/clean_cifs/DOZKIO_clean'
_cell_length_a 10.21870
_cell_length_b 11.51760
_cell_length_c 16.31270
_cell_angle_alpha 82.71000
_cell_angle_beta  75.91100
_cell_angle_gamma 77.54200
_space_group_name_H-M_alt      'P 1'


loop_
_space_group_symop_operation_xyz
  'x, y, z' 

loop_
_atom_site_label
_atom_site_fract_x
_atom_site_fract_y
_atom_site_fract_z
_atom_site_type_symbol
C       0.0003   0.1987   0.3552     C
C       0.0031   0.7147   0.7126     C
C       0.0347   0.5909   0.8952     C
C       0.0468   0.4941   0.9591     C
C       0.0653   0.3043   0.0848     C
H       0.0705   0.2398   0.1252     H
H       0.0756   0.3161   0.2625     H
H       0.1129   0.9075   0.5648     H
C       0.1158   0.8473   0.6085     C
C       0.1194   0.6737   0.7434     C
C       0.1239   0.5779    0.815     C
C       0.1247   0.1644   0.3919     C
O       0.1373   0.0748   0.4422     O
C        0.151   0.3904   0.9427     C
C       0.1528   0.2964   0.0083     C
O       0.2135   0.2305   0.3722     O
H       0.2172   0.2263   0.9979     H
C       0.2241   0.4765   0.8021     C
C        0.236   0.7171    0.704     C
C       0.2367   0.8056   0.6355     C
C       0.2401   0.3823    0.863     C
O       0.2683   0.0174   0.1002     O
H       0.2847    0.471   0.7494     H
H        0.306   0.2647   0.7266     H
H       0.3166   0.6875   0.7228     H
Eu      0.3385  0.12977  0.47841    Eu
C        0.352   0.2752   0.8391     C
C       0.3576   0.9296   0.0829     C
O        0.364   0.9379   0.5468     O
C       0.3664   0.2295    0.761     C
C       0.3668   0.8442   0.5949     C
O       0.3721   0.8786   0.0134     O
H       0.3766   0.9864   0.2276     H
O       0.4132   0.1504   0.6016     O
O       0.4305   0.0048   0.3669     O
H       0.4362   0.2573   0.9382     H
C       0.4424   0.2249   0.8877     C
C       0.4437   0.9197   0.2118     C
C       0.4552   0.8746   0.1358     C
C       0.4687   0.1328    0.734     C
O        0.476   0.7832    0.607     O
C       0.4857   0.0899   0.6497     C
C       0.5143   0.9101   0.3503     C
O        0.524   0.2168    0.393     O
C       0.5313   0.8672    0.266     C
C       0.5448   0.1254   0.8642     C
C       0.5563   0.0803   0.7882     C
C       0.5576   0.7751   0.1123     C
H       0.5638   0.7427   0.0618     H
O       0.5695   0.9952   0.6331     O
O       0.5868   0.8496   0.3984     O
H       0.6234   0.0136   0.7724     H
O       0.6279   0.1214   0.9866     O
C       0.6332   0.1558   0.4051     C
C       0.6336   0.7705    0.239     C
O        0.636   0.0621   0.4532     O
C       0.6424   0.0704   0.9171     C
C        0.648   0.7248   0.1609     C
Eu      0.6615  0.87023  0.52159    Eu
H       0.6834   0.3125   0.2772     H
H        0.694   0.7353   0.2734     H
H       0.7153    0.529   0.2506     H
O       0.7317   0.9826   0.8998     O
C       0.7599   0.6177    0.137     C
C       0.7633   0.1944   0.3645     C
C        0.764   0.2829    0.296     C
C       0.7759   0.5235   0.1979     C
H       0.7828   0.7737   0.0021     H
O       0.7865   0.7695   0.6278     O
C       0.8472   0.7036   0.9917     C
C        0.849   0.6096   0.0573     C
O       0.8627   0.9252   0.5578     O
C       0.8753   0.8356   0.6081     C
C       0.8761   0.4221    0.185     C
C       0.8806   0.3263   0.2566     C
C       0.8842   0.1527   0.3915     C
H       0.8871   0.0925   0.4352     H
H       0.9244   0.6839   0.7375     H
H       0.9295   0.7602   0.8748     H
C       0.9347   0.6957   0.9152     C
C       0.9532   0.5059   0.0409     C
C       0.9653   0.4091   0.1048     C
C       0.9969   0.2853   0.2874     C
C       0.9997   0.8013   0.6448     C
