data_I
_chemical_name_common  '/home/zhangsd/repos/MofS-CGCNN/ML/data/TSD/clean_cifs/DUBBEI_clean'
_cell_length_a  8.51460
_cell_length_b 16.20490
_cell_length_c 28.54700
_cell_angle_alpha 90.00000
_cell_angle_beta  96.21200
_cell_angle_gamma 90.00000
_space_group_name_H-M_alt      'P 1'


loop_
_space_group_symop_operation_xyz
  'x, y, z' 

loop_
_atom_site_label
_atom_site_fract_x
_atom_site_fract_y
_atom_site_fract_z
_atom_site_type_symbol
C       0.0027   0.1831   0.2616     C
C       0.0027   0.3169   0.7616     C
O       0.0061   0.7212  0.44525     O
O       0.0061   0.7788  0.94525     O
O       0.0264   0.2498  0.88637     O
O       0.0264   0.2502  0.38637     O
O        0.027    0.672  0.72707     O
O        0.027    0.828  0.22707     O
C       0.0342   0.2264  0.74899     C
C       0.0342   0.2736  0.24899     C
O       0.0411   0.7171  0.36928     O
O       0.0411   0.7829  0.86928     O
O       0.0461    0.053  0.13881     O
O       0.0461    0.447  0.63881     O
O       0.0461   0.5859  0.63601     O
O       0.0461   0.9141  0.13601     O
O       0.0596   0.1286  0.23651     O
O       0.0596   0.3714  0.73651     O
H       0.0662   0.7265   0.5021     H
H       0.0662   0.7735   0.0021     H
O       0.0681   0.7387   0.5358     O
O       0.0681   0.7613   0.0358     O
O       0.0736     0.67  0.20417     O
O       0.0736     0.83  0.70417     O
P      0.08046   0.2313  0.93704     P
P      0.08046   0.2687  0.43704     P
C       0.0881   0.7254   0.4123     C
C       0.0881   0.7746   0.9123     C
C       0.1029   0.5172   0.6501     C
C       0.1029   0.9828   0.1501     C
H       0.1043   0.0992   0.9183     H
H       0.1043   0.4008   0.4183     H
O       0.1191   0.2134  0.71684     O
O       0.1191   0.2866  0.21684     O
O       0.1379   0.1383   0.9418     O
O       0.1379   0.3617   0.4418     O
Er     0.17895  0.71236   0.6679    Er
Er     0.17895  0.78764   0.1679    Er
Er     0.19001  0.17334  0.17127    Er
Er     0.19001  0.32666  0.67127    Er
O       0.2117   0.2147  0.45876     O
O       0.2117   0.2853  0.95876     O
C       0.2519   0.5197   0.6839     C
C       0.2519   0.9803   0.1839     C
C       0.2668   0.7462   0.4237     C
C       0.2668   0.7538   0.9237     C
O       0.2776   0.2034  0.63407     O
O       0.2776   0.2966  0.13407     O
O       0.2883   0.7248  0.30037     O
O       0.2883   0.7752  0.80037     O
O       0.2941   0.6738  0.12973     O
O       0.2941   0.8262  0.62973     O
O       0.3037   0.5885  0.69864     O
O       0.3037   0.9115  0.19864     O
O       0.3073   0.1423  0.10391     O
O       0.3073   0.3577  0.60391     O
O       0.3132   0.7401   0.9664     O
O       0.3132   0.7599   0.4664     O
C       0.3157    0.212  0.59308     C
C       0.3157    0.288  0.09308     C
O       0.3158   0.0483  0.19583     O
O       0.3158   0.4517  0.69583     O
H       0.3296   0.7332   0.3316     H
H       0.3296   0.7668   0.8316     H
O       0.3317   0.6675  0.60999     O
O       0.3317   0.8325  0.10999     O
C       0.3326   0.1994   0.0755     C
C       0.3326   0.3006   0.5755     C
O       0.3368   0.0569   0.4772     O
O       0.3368   0.4431   0.9772     O
O       0.3415   0.1548  0.56522     O
O       0.3415   0.3452  0.06522     O
O       0.3506   0.7491  0.39099     O
O       0.3506   0.7509  0.89099     O
C       0.3668   0.6907   0.0957     C
C       0.3668   0.8093   0.5957     C
O       0.3757   0.1905  0.03549     O
O       0.3757   0.3095  0.53549     O
O       0.3795   0.7453  0.72349     O
O       0.3795   0.7547  0.22349     O
O       0.3856   0.5774  0.97131     O
O       0.3856   0.9226  0.47131     O
C       0.3954    0.718  0.58533     C
C       0.3954    0.782  0.08533     C
H       0.4133   0.1618   0.6925     H
H       0.4133   0.3382   0.1925     H
C       0.4208   0.5073  0.98525     C
C       0.4208   0.9927  0.48525     C
O       0.4217   0.6383  0.06796     O
O       0.4217   0.8617  0.56796     O
O       0.4253   0.1979  0.21318     O
O       0.4253   0.3021  0.71318     O
P      0.43343  0.74857  0.77458     P
P      0.43343  0.75143  0.27458     P
Er     0.45121  0.19153  0.49608    Er
Er     0.45121  0.30847  0.99608    Er
O       0.4777   0.6579  0.79269     O
O       0.4777   0.8421  0.29269     O
O       0.4798   0.7016  0.55325     O
O       0.4798   0.7984  0.05325     O
O       0.5202   0.2016  0.94675     O
O       0.5202   0.2984  0.44675     O
O       0.5223   0.1579  0.70731     O
O       0.5223   0.3421  0.20731     O
Er     0.54879  0.69153  0.00392    Er
Er     0.54879  0.80847  0.50392    Er
P      0.56657  0.24857  0.72542     P
P      0.56657  0.25143  0.22542     P
O       0.5747   0.6979  0.28682     O
O       0.5747   0.8021  0.78682     O
O       0.5783   0.1383  0.43204     O
O       0.5783   0.3617  0.93204     O
C       0.5792   0.0073  0.51475     C
C       0.5792   0.4927  0.01475     C
H       0.5867   0.6618   0.8075     H
H       0.5867   0.8382   0.3075     H
C       0.6046    0.218  0.91467     C
C       0.6046    0.282  0.41467     C
O       0.6144   0.0774  0.52869     O
O       0.6144   0.4226  0.02869     O
O       0.6205   0.2453  0.77651     O
O       0.6205   0.2547  0.27651     O
O       0.6243   0.6905  0.46451     O
O       0.6243   0.8095  0.96451     O
C       0.6332   0.1907   0.4043     C
C       0.6332   0.3093   0.9043     C
O       0.6494   0.2491  0.10901     O
O       0.6494   0.2509  0.60901     O
O       0.6585   0.6548  0.93478     O
O       0.6585   0.8452  0.43478     O
O       0.6632   0.5569   0.0228     O
O       0.6632   0.9431   0.5228     O
C       0.6674   0.6994   0.4245     C
C       0.6674   0.8006   0.9245     C
O       0.6683   0.1675  0.89001     O
O       0.6683   0.3325  0.39001     O
H       0.6704   0.2332   0.1684     H
H       0.6704   0.2668   0.6684     H
O       0.6842   0.5483  0.30417     O
O       0.6842   0.9517  0.80417     O
C       0.6843    0.712  0.90692     C
C       0.6843    0.788  0.40692     C
O       0.6868   0.2401   0.5336     O
O       0.6868   0.2599   0.0336     O
O       0.6927   0.6423  0.39609     O
O       0.6927   0.8577  0.89609     O
O       0.6963   0.0885  0.80136     O
O       0.6963   0.4115  0.30136     O
O       0.7059   0.1738  0.37027     O
O       0.7059   0.3262  0.87027     O
O       0.7117   0.2248  0.19963     O
O       0.7117   0.2752  0.69963     O
O       0.7224   0.7034  0.86593     O
O       0.7224   0.7966  0.36593     O
C       0.7332   0.2462   0.0763     C
C       0.7332   0.2538   0.5763     C
C       0.7481   0.0197   0.8161     C
C       0.7481   0.4803   0.3161     C
O       0.7883   0.7147  0.04124     O
O       0.7883   0.7853  0.54124     O
Er     0.80999  0.67334  0.32873    Er
Er     0.80999  0.82666  0.82873    Er
Er     0.82105  0.21236   0.8321    Er
Er     0.82105  0.28764   0.3321    Er
O       0.8621   0.6383   0.5582     O
O       0.8621   0.8617   0.0582     O
O       0.8809   0.7134  0.78316     O
O       0.8809   0.7866  0.28316     O
H       0.8957   0.5992   0.5817     H
H       0.8957   0.9008   0.0817     H
C       0.8971   0.0172   0.8499     C
C       0.8971   0.4828   0.3499     C
C       0.9119   0.2254   0.0877     C
C       0.9119   0.2746   0.5877     C
P      0.91954   0.7313  0.56296     P
P      0.91954   0.7687  0.06296     P
O       0.9264     0.17  0.29583     O
O       0.9264     0.33  0.79583     O
O       0.9319   0.2387   0.9642     O
O       0.9319   0.2613   0.4642     O
H       0.9338   0.2265   0.9979     H
H       0.9338   0.2735   0.4979     H
O       0.9404   0.6286  0.26349     O
O       0.9404   0.8714  0.76349     O
O       0.9539   0.0859  0.86399     O
O       0.9539   0.4141  0.36399     O
O       0.9539    0.553  0.36119     O
O       0.9539    0.947  0.86119     O
O       0.9589   0.2171  0.13072     O
O       0.9589   0.2829  0.63072     O
C       0.9658   0.7264  0.75101     C
C       0.9658   0.7736  0.25101     C
O        0.973    0.172  0.77293     O
O        0.973    0.328  0.27293     O
O       0.9736   0.7498  0.61363     O
O       0.9736   0.7502  0.11363     O
O       0.9939   0.2212  0.05475     O
O       0.9939   0.2788  0.55475     O
C       0.9973   0.6831   0.2384     C
C       0.9973   0.8169   0.7384     C
