data_I
_chemical_name_common  '/home/zhangsd/repos/MofS-CGCNN/ML/data/TSD/clean_cifs/DUJRAD_clean'
_cell_length_a 12.72100
_cell_length_b 13.82000
_cell_length_c 14.86600
_cell_angle_alpha 90.00000
_cell_angle_beta  90.00000
_cell_angle_gamma 90.00000
_space_group_name_H-M_alt      'P 1'


loop_
_space_group_symop_operation_xyz
  'x, y, z' 

loop_
_atom_site_label
_atom_site_fract_x
_atom_site_fract_y
_atom_site_fract_z
_atom_site_type_symbol
Cu     0.00012  0.63751  0.98507    Cu
C       0.0003   0.7638   0.1332     C
O       0.0044   0.5353    0.075     O
O       0.0055   0.5436    0.886     O
O       0.0089   0.2468   0.6041     O
S      0.01765  0.38642  0.21947     S
S      0.03894   0.4042  0.73913     S
C       0.0553   0.8278   0.1999     C
O       0.0578   0.7312   0.0705     O
C       0.0861   0.0136   0.3996     C
C       0.0941   0.9417   0.3219     C
O       0.0953   0.2485   0.3557     O
C       0.0984   0.5508   0.8557     C
C       0.1022   0.2765   0.6033     C
C       0.1266   0.4861   0.7789     C
C       0.1293   0.3586   0.6659     C
C        0.159   0.8493   0.2062     C
O       0.1664   0.6077   0.8868     O
O       0.1697   0.0437   0.4294     O
O       0.1724   0.2432   0.5554     O
C       0.1812   0.9151   0.2737     C
Ba     0.20492  0.80103  0.91992    Ba
H         0.21   0.8226   0.1689     H
H       0.2191    0.483   0.2516     H
H       0.2204    0.609   0.1357     H
C        0.222   0.4055   0.6717     C
C       0.2229   0.4788   0.7378     C
H       0.2483   0.9387   0.2852     H
H       0.2517   0.0613   0.7852     H
C       0.2771   0.5212   0.2378     C
C        0.278   0.5945   0.1717     C
H       0.2796    0.391   0.6357     H
H       0.2809    0.517   0.7516     H
H         0.29   0.1774   0.6689     H
Ba     0.29508  0.19897  0.41992    Ba
C       0.3188   0.0849   0.7737     C
O       0.3276   0.7568   0.0554     O
O       0.3303   0.9563   0.9294     O
O       0.3336   0.3923   0.3868     O
C        0.341   0.1507   0.7062     C
C       0.3707   0.6414   0.1659     C
C       0.3734   0.5139   0.2789     C
C       0.3978   0.7235   0.1033     C
C       0.4016   0.4492   0.3557     C
O       0.4047   0.7515   0.8557     O
C       0.4059   0.0583   0.8219     C
C       0.4139   0.9864   0.8996     C
O       0.4422   0.2688   0.5705     O
C       0.4447   0.1722   0.6999     C
S      0.46106   0.5958  0.23913     S
S      0.48235  0.61358  0.71947     S
O       0.4911   0.7532   0.1041     O
O       0.4945   0.4564    0.386     O
O       0.4956   0.4647    0.575     O
C       0.4997   0.2362   0.6332     C
Cu     0.49988  0.36249  0.48507    Cu
Cu     0.50012  0.86249  0.01493    Cu
C       0.5003   0.7362   0.8668     C
O       0.5044   0.9647    0.925     O
O       0.5055   0.9564    0.114     O
O       0.5089   0.2532   0.3959     O
S      0.51765  0.11358  0.78053     S
S      0.53894   0.0958  0.26087     S
C       0.5553   0.6722   0.8001     C
O       0.5578   0.7688   0.9295     O
C       0.5861   0.4864   0.6004     C
C       0.5941   0.5583   0.6781     C
O       0.5953   0.2515   0.6443     O
C       0.5984   0.9492   0.1443     C
C       0.6022   0.2235   0.3967     C
C       0.6266   0.0139   0.2211     C
C       0.6293   0.1414   0.3341     C
C        0.659   0.6507   0.7938     C
O       0.6664   0.8923   0.1132     O
O       0.6697   0.4563   0.5706     O
O       0.6724   0.2568   0.4446     O
C       0.6812   0.5849   0.7263     C
Ba     0.70492  0.69897  0.08008    Ba
H         0.71   0.6774   0.8311     H
H       0.7191    0.017   0.7484     H
H       0.7204    0.891   0.8643     H
C        0.722   0.0945   0.3283     C
C       0.7229   0.0212   0.2622     C
H       0.7483   0.5613   0.7148     H
H       0.7517   0.4387   0.2148     H
C       0.7771   0.9788   0.7622     C
C        0.778   0.9055   0.8283     C
H       0.7796    0.109   0.3643     H
H       0.7809    0.983   0.2484     H
H         0.79   0.3226   0.3311     H
Ba     0.79508  0.30103  0.58008    Ba
C       0.8188   0.4151   0.2263     C
O       0.8276   0.7432   0.9446     O
O       0.8303   0.5437   0.0706     O
O       0.8336   0.1077   0.6132     O
C        0.841   0.3493   0.2938     C
C       0.8707   0.8586   0.8341     C
C       0.8734   0.9861   0.7211     C
C       0.8978   0.7765   0.8967     C
C       0.9016   0.0508   0.6443     C
O       0.9047   0.7485   0.1443     O
C       0.9059   0.4417   0.1781     C
C       0.9139   0.5136   0.1004     C
O       0.9422   0.2312   0.4295     O
C       0.9447   0.3278   0.3001     C
S      0.96106   0.9042  0.76087     S
S      0.98235  0.88642  0.28053     S
O       0.9911   0.7468   0.8959     O
O       0.9945   0.0436    0.614     O
O       0.9956   0.0353    0.425     O
C       0.9997   0.2638   0.3668     C
Cu     0.99988  0.13751  0.51493    Cu
