data_I
_chemical_name_common  '/home/zhangsd/repos/MofS-CGCNN/ML/data/TSD/clean_cifs/DUKDOD01_clean'
_cell_length_a 16.21070
_cell_length_b 14.97810
_cell_length_c  7.95730
_cell_angle_alpha 90.00000
_cell_angle_beta  92.06900
_cell_angle_gamma 90.00000
_space_group_name_H-M_alt      'P 1'


loop_
_space_group_symop_operation_xyz
  'x, y, z' 

loop_
_atom_site_label
_atom_site_fract_x
_atom_site_fract_y
_atom_site_fract_z
_atom_site_type_symbol
Ag     0.02698  0.24071  0.89979    Ag
Ag     0.02698  0.25929  0.39979    Ag
N      0.09479   0.7483   0.4997     N
N      0.09479   0.7517   0.9997     N
H       0.1002   0.0764   0.7605     H
H       0.1002   0.4236   0.2605     H
H       0.1061   0.6179   0.4755     H
H       0.1061   0.8821   0.9755     H
H       0.1082   0.6212   0.0048     H
H       0.1082   0.8788   0.5048     H
C        0.133   0.6719   0.4594     C
C        0.133   0.8281   0.9594     C
C       0.1344   0.6742   0.9772     C
C       0.1344   0.8258   0.4772     C
N       0.1433   0.1971   0.8023     N
N       0.1433   0.3029   0.3023     N
C       0.1476   0.1113   0.7572     C
C       0.1476   0.3887   0.2572     C
H       0.2093   0.1929   0.3238     H
H       0.2093   0.3071   0.8238     H
C       0.2113    0.671   0.3947     C
C       0.2113    0.829   0.8947     C
C       0.2119   0.2472    0.794     C
C       0.2119   0.2528    0.294     C
C       0.2129   0.6702   0.9145     C
C       0.2129   0.8298   0.4145     C
C       0.2196   0.0726   0.7061     C
C       0.2196   0.4274   0.2061     C
H       0.2207   0.0125   0.6772     H
H       0.2207   0.4875   0.1772     H
H        0.236   0.6172   0.3665     H
H        0.236   0.8828   0.8665     H
H       0.2388   0.6154   0.9009     H
H       0.2388   0.8846   0.4009     H
C       0.2527   0.7486   0.8722     C
C       0.2527   0.7514   0.3722     C
C       0.2858   0.2131    0.743     C
C       0.2858   0.2869    0.243     C
C         0.29   0.1235    0.698     C
C         0.29   0.3765    0.198     C
H       0.3273   0.0543   0.0653     H
H       0.3273   0.4457   0.5653     H
H       0.3323   0.2494   0.7387     H
H       0.3323   0.2506   0.2387     H
H       0.3351   0.5399   0.6505     H
H       0.3351   0.9601   0.1505     H
C       0.3376   0.7491   0.8023     C
C       0.3376   0.7509   0.3023     C
O      0.35891  0.68456   0.2189     O
O      0.35891  0.81544   0.7189     O
C       0.3647   0.0068   0.0961     C
C       0.3647   0.4932   0.5961     C
C       0.3683   0.0813   0.6396     C
C       0.3683   0.4187   0.1396     C
O      0.37096  0.50296   0.1413     O
O      0.37096  0.99704   0.6413     O
O      0.38288   0.6811   0.8315     O
O      0.38288   0.8189   0.3315     O
H       0.3891   0.5164   0.4971     H
H       0.3891   0.9836   0.9971     H
O      0.42521  0.13303   0.5958     O
O      0.42521  0.36697   0.0958     O
C       0.4309   0.0417   0.2136     C
C       0.4309   0.4583   0.7136     C
O      0.45136  0.50266    0.843     O
O      0.45136  0.99734    0.343     O
Ho     0.45478  0.61626  0.05013    Ho
Ho     0.45478  0.88374  0.55013    Ho
O      0.46593  0.11525   0.1875     O
O      0.46593  0.38475   0.6875     O
O      0.53407  0.61525   0.3125     O
O      0.53407  0.88475   0.8125     O
Ho     0.54522  0.11626  0.44987    Ho
Ho     0.54522  0.38374  0.94987    Ho
O      0.54864  0.00266    0.657     O
O      0.54864  0.49734    0.157     O
C       0.5691   0.5417   0.2864     C
C       0.5691   0.9583   0.7864     C
O      0.57479  0.63303   0.9042     O
O      0.57479  0.86697   0.4042     O
H       0.6109   0.0164   0.0029     H
H       0.6109   0.4836   0.5029     H
O      0.61712   0.1811   0.6685     O
O      0.61712   0.3189   0.1685     O
O      0.62904  0.00296   0.3587     O
O      0.62904  0.49704   0.8587     O
C       0.6317   0.5813   0.8604     C
C       0.6317   0.9187   0.3604     C
C       0.6353   0.5068   0.4039     C
C       0.6353   0.9932   0.9039     C
O      0.64109  0.18456   0.2811     O
O      0.64109  0.31544   0.7811     O
C       0.6624   0.2491   0.6977     C
C       0.6624   0.2509   0.1977     C
H       0.6649   0.0399   0.8495     H
H       0.6649   0.4601   0.3495     H
H       0.6677   0.7494   0.7613     H
H       0.6677   0.7506   0.2613     H
H       0.6727   0.5543   0.4347     H
H       0.6727   0.9457   0.9347     H
C         0.71   0.6235    0.802     C
C         0.71   0.8765    0.302     C
C       0.7142   0.7131    0.757     C
C       0.7142   0.7869    0.257     C
C       0.7473   0.2486   0.6278     C
C       0.7473   0.2514   0.1278     C
H       0.7612   0.1154   0.5991     H
H       0.7612   0.3846   0.0991     H
H        0.764   0.1172   0.1335     H
H        0.764   0.3828   0.6335     H
H       0.7793   0.5125   0.8228     H
H       0.7793   0.9875   0.3228     H
C       0.7804   0.5726   0.7939     C
C       0.7804   0.9274   0.2939     C
C       0.7871   0.1702   0.5855     C
C       0.7871   0.3298   0.0855     C
C       0.7881   0.7472    0.706     C
C       0.7881   0.7528    0.206     C
C       0.7887    0.171   0.1053     C
C       0.7887    0.329   0.6053     C
H       0.7907   0.6929   0.1762     H
H       0.7907   0.8071   0.6762     H
C       0.8524   0.6113   0.7428     C
C       0.8524   0.8887   0.2428     C
N       0.8567   0.6971   0.6977     N
N       0.8567   0.8029   0.1977     N
C       0.8656   0.1742   0.5228     C
C       0.8656   0.3258   0.0228     C
C        0.867   0.1719   0.0406     C
C        0.867   0.3281   0.5406     C
H       0.8918   0.1212   0.4952     H
H       0.8918   0.3788   0.9952     H
H       0.8939   0.1179   0.0245     H
H       0.8939   0.3821   0.5245     H
H       0.8998   0.5764   0.7395     H
H       0.8998   0.9236   0.2395     H
N      0.90521   0.2483   0.0003     N
N      0.90521   0.2517   0.5003     N
Ag     0.97302  0.74071  0.60021    Ag
Ag     0.97302  0.75929  0.10021    Ag
