data_I
_chemical_name_common  '/home/zhangsd/repos/MofS-CGCNN/ML/data/TSD/clean_cifs/DUKMON_clean'
_cell_length_a  9.68590
_cell_length_b 16.91400
_cell_length_c 18.41200
_cell_angle_alpha 90.00000
_cell_angle_beta  115.16000
_cell_angle_gamma 90.00000
_space_group_name_H-M_alt      'P 1'


loop_
_space_group_symop_operation_xyz
  'x, y, z' 

loop_
_atom_site_label
_atom_site_fract_x
_atom_site_fract_y
_atom_site_fract_z
_atom_site_type_symbol
H       0.0055   0.6074   0.3687     H
H       0.0055   0.8926   0.8687     H
C       0.0149   0.6181   0.4801     C
C       0.0149   0.8819   0.9801     C
H       0.0273   0.6902   0.0569     H
H       0.0273   0.8098   0.5569     H
C       0.0304    0.077   0.4826     C
C       0.0304    0.423   0.9826     C
H       0.0373   0.1871   0.6128     H
H       0.0373   0.3129   0.1128     H
C       0.0633   0.6278   0.4195     C
C       0.0633   0.8722   0.9195     C
C       0.0665   0.1603   0.4695     C
C       0.0665   0.3397   0.9695     C
H       0.0705   0.6401   0.5973     H
H       0.0705   0.8599   0.0973     H
C        0.102   0.6473   0.5566     C
C        0.102   0.8527   0.0566     C
C       0.1103   0.5566    0.021     C
C       0.1103   0.9434    0.521     C
H       0.1196   0.1608   0.4352     H
H       0.1196   0.3392   0.9352     H
O       0.1206    0.079   0.0427     O
O       0.1206    0.421   0.5427     O
H       0.1217   0.0414   0.9402     H
H       0.1217   0.4586   0.4402     H
C       0.1282   0.2022   0.6112     C
C       0.1282   0.2978   0.1112     C
C       0.1404    0.019   0.5045     C
C       0.1404    0.481   0.0045     C
N       0.1626    0.197   0.5472     N
N       0.1626    0.303   0.0472     N
O       0.1717   0.6517    0.301     O
O       0.1717   0.8483    0.801     O
H       0.1863   0.5949   0.0349     H
H       0.1863   0.9051   0.5349     H
C       0.1867   0.0727   0.9862     C
C       0.1867   0.4273   0.4862     C
C       0.1968   0.6678   0.4348     C
C       0.1968   0.8322   0.9348     C
H       0.1995   0.1247   0.9677     H
H       0.1995   0.3753   0.4677     H
H       0.2368   0.0312   0.5083     H
H       0.2368   0.4688   0.0083     H
C       0.2376   0.6877   0.5718     C
C       0.2376   0.8123   0.0718     C
C       0.2481   0.6781   0.3694     C
C       0.2481   0.8219   0.8694     C
C       0.2504   0.2332   0.6715     C
C       0.2504   0.2668   0.1715     C
H       0.2577    0.244   0.7226     H
H       0.2577    0.256   0.2226     H
H         0.27   0.5158   0.8035     H
H         0.27   0.9842   0.3035     H
H       0.2709   0.5284   0.2538     H
H       0.2709   0.9716   0.7538     H
O       0.2779   0.7222    0.705     O
O       0.2779   0.7778    0.205     O
C       0.2838   0.6976   0.5108     C
C       0.2838   0.8024   0.0108     C
C        0.305   0.2244   0.5703     C
C        0.305   0.2756   0.0703     C
H       0.3236   0.5179   0.5492     H
H       0.3236   0.9821   0.0492     H
C       0.3314   0.7236   0.6527     C
C       0.3314   0.7764   0.1527     C
C       0.3389   0.0331   0.0298     C
C       0.3389   0.4669   0.5298     C
H       0.3558   0.2272   0.5373     H
H       0.3558   0.2728   0.0373     H
H       0.3575   0.1062   0.2521     H
H       0.3575   0.3938   0.7521     H
C        0.358   0.5317   0.2447     C
C        0.358   0.9683   0.7447     C
H       0.3606   0.5089   0.4304     H
H       0.3606   0.9911   0.9304     H
N       0.3634   0.2469   0.6464     N
N       0.3634   0.2531   0.1464     N
H       0.3651   0.0754   0.6957     H
H       0.3651   0.4246   0.1957     H
H       0.3724   0.5916    0.821     H
H       0.3724   0.9084    0.321     H
O       0.3738    0.714   0.3867     O
O       0.3738    0.786   0.8867     O
H       0.3739   0.7244   0.5209     H
H       0.3739   0.7756   0.0209     H
C       0.3744   0.5347   0.8284     C
C       0.3744   0.9653   0.3284     C
H       0.4011   0.0649   0.0761     H
H       0.4011   0.4351   0.5761     H
C       0.4096   0.0261   0.7131     C
C       0.4096   0.4739   0.2131     C
H       0.4228   0.6272   0.9547     H
H       0.4228   0.8728   0.4547     H
Co      0.4236  0.70778  0.29267    Co
Co      0.4236  0.79222  0.79267    Co
C       0.4239   0.0214   0.9776     C
C       0.4239   0.4786   0.4776     C
C         0.44   0.0743   0.2583     C
C         0.44   0.4257   0.7583     C
C       0.4417   0.5165   0.9176     C
C       0.4417   0.9835   0.4176     C
H       0.4428   0.0726   0.9597     H
H       0.4428   0.4274   0.4597     H
N       0.4504    0.596   0.2616     N
N       0.4504    0.904   0.7616     N
C       0.4539   0.5761   0.9727     C
C       0.4539   0.9239   0.4727     C
O       0.4566   0.7448   0.1666     O
O       0.4566   0.7552   0.6666     O
N       0.4608   0.0016   0.2883     N
N       0.4608   0.4984   0.7883     N
H       0.4803   0.0995   0.4107     H
H       0.4803   0.4005   0.9107     H
C       0.4883   0.0592   0.4466     C
C       0.4883   0.4408   0.9466     C
C       0.5117   0.5592   0.0534     C
C       0.5117   0.9408   0.5534     C
H       0.5197   0.5995   0.0893     H
H       0.5197   0.9005   0.5893     H
N       0.5392   0.5016   0.2117     N
N       0.5392   0.9984   0.7117     N
O       0.5434   0.2448   0.3334     O
O       0.5434   0.2552   0.8334     O
C       0.5461   0.0761   0.5273     C
C       0.5461   0.4239   0.0273     C
N       0.5496    0.096   0.2384     N
N       0.5496    0.404   0.7384     N
H       0.5572   0.5726   0.5403     H
H       0.5572   0.9274   0.0403     H
C       0.5583   0.0165   0.5824     C
C       0.5583   0.4835   0.0824     C
C         0.56   0.5743   0.2417     C
C         0.56   0.9257   0.7417     C
C       0.5761   0.5214   0.5224     C
C       0.5761   0.9786   0.0224     C
Co      0.5764  0.20778  0.20733    Co
Co      0.5764  0.29222  0.70733    Co
H       0.5772   0.1272   0.5453     H
H       0.5772   0.3728   0.0453     H
C       0.5904   0.5261   0.7869     C
C       0.5904   0.9739   0.2869     C
H       0.5989   0.5649   0.4239     H
H       0.5989   0.9351   0.9239     H
C       0.6256   0.0347   0.6716     C
C       0.6256   0.4653   0.1716     C
H       0.6261   0.2244   0.9791     H
H       0.6261   0.2756   0.4791     H
O       0.6262    0.214   0.1133     O
O       0.6262    0.286   0.6133     O
H       0.6276   0.0916    0.679     H
H       0.6276   0.4084    0.179     H
H       0.6349   0.5754   0.8043     H
H       0.6349   0.9246   0.3043     H
N       0.6366   0.7469   0.8536     N
N       0.6366   0.7531   0.3536     N
H       0.6394   0.0089   0.0696     H
H       0.6394   0.4911   0.5696     H
C        0.642   0.0317   0.2553     C
C        0.642   0.4683   0.7553     C
H       0.6425   0.6062   0.2479     H
H       0.6425   0.8938   0.7479     H
H       0.6442   0.7272   0.9627     H
H       0.6442   0.7728   0.4627     H
C       0.6611   0.5331   0.4702     C
C       0.6611   0.9669   0.9702     C
C       0.6686   0.2236   0.8473     C
C       0.6686   0.2764   0.3473     C
H       0.6764   0.0179   0.9508     H
H       0.6764   0.4821   0.4508     H
C        0.695   0.7244   0.9297     C
C        0.695   0.7756   0.4297     C
C       0.7162   0.1976   0.9892     C
C       0.7162   0.3024   0.4892     C
O       0.7221   0.2222    0.795     O
O       0.7221   0.2778    0.295     O
H       0.7291   0.0284   0.2462     H
H       0.7291   0.4716   0.7462     H
H         0.73   0.0158   0.6965     H
H         0.73   0.4842   0.1965     H
H       0.7423    0.744   0.7774     H
H       0.7423    0.756   0.2774     H
C       0.7496   0.7332   0.8285     C
C       0.7496   0.7668   0.3285     C
C       0.7519   0.1781   0.1306     C
C       0.7519   0.3219   0.6306     C
C       0.7624   0.1877   0.9282     C
C       0.7624   0.3123   0.4282     C
H       0.7632   0.5312   0.9917     H
H       0.7632   0.9688   0.4917     H
H       0.8005   0.6247   0.5323     H
H       0.8005   0.8753   0.0323     H
C       0.8032   0.1678   0.0652     C
C       0.8032   0.3322   0.5652     C
C       0.8133   0.5727   0.5138     C
C       0.8133   0.9273   0.0138     C
H       0.8137   0.0949   0.4651     H
H       0.8137   0.4051   0.9651     H
O       0.8283   0.1517    0.199     O
O       0.8283   0.3483    0.699     O
N       0.8374    0.697   0.9528     N
N       0.8374    0.803   0.4528     N
C       0.8596    0.519   0.9955     C
C       0.8596    0.981   0.4955     C
C       0.8718   0.7022   0.8888     C
C       0.8718   0.7978   0.3888     C
H       0.8783   0.5414   0.5598     H
H       0.8783   0.9586   0.0598     H
O       0.8794    0.579   0.4573     O
O       0.8794    0.921   0.9573     O
H       0.8804   0.6608   0.0648     H
H       0.8804   0.8392   0.5648     H
C       0.8897   0.0566    0.479     C
C       0.8897   0.4434    0.979     C
C        0.898   0.1473   0.9434     C
C        0.898   0.3527   0.4434     C
H       0.9295   0.1401   0.9027     H
H       0.9295   0.3599   0.4027     H
C       0.9335   0.6603   0.0305     C
C       0.9335   0.8397   0.5305     C
C       0.9367   0.1278   0.0805     C
C       0.9367   0.3722   0.5805     C
H       0.9627   0.6871   0.8872     H
H       0.9627   0.8129   0.3872     H
C       0.9696    0.577   0.0174     C
C       0.9696    0.923   0.5174     C
H       0.9727   0.1902   0.4431     H
H       0.9727   0.3098   0.9431     H
C       0.9851   0.1181   0.0199     C
C       0.9851   0.3819   0.5199     C
H       0.9945   0.1074   0.1313     H
H       0.9945   0.3926   0.6313     H
