data_I
_chemical_name_common  '/home/zhangsd/repos/MofS-CGCNN/ML/data/TSD/clean_cifs/DURDAX_clean'
_cell_length_a 18.41600
_cell_length_b 10.15400
_cell_length_c 27.01000
_cell_angle_alpha 90.00000
_cell_angle_beta  90.00000
_cell_angle_gamma 90.00000
_space_group_name_H-M_alt      'P 1'


loop_
_space_group_symop_operation_xyz
  'x, y, z' 

loop_
_atom_site_label
_atom_site_fract_x
_atom_site_fract_y
_atom_site_fract_z
_atom_site_type_symbol
H       0.0068   0.3137   0.6296     H
C       0.0176   0.7036   0.0579     C
C       0.0295   0.7136   0.1079     C
C       0.0512   0.3508   0.5385     C
H       0.0515   0.6121   0.2038     H
H        0.068   0.7411   0.9907     H
O       0.0694   0.3115  0.49415     O
H       0.0694   0.6389   0.2879     H
C       0.0748   0.7436   0.0248     C
C       0.0775   0.6838   0.2157     C
O        0.087   0.4222  0.56578     O
C       0.0899    0.699    0.266     C
C       0.0952   0.7642   0.1279     C
C       0.1059   0.7812   0.1827     C
C       0.1319   0.8012   0.2846     C
C       0.1388   0.7848   0.0443     C
C       0.1429   0.8822   0.2014     C
C       0.1456   0.8136   0.3401     C
H       0.1462   0.6167   0.3545     H
C       0.1489   0.7992   0.0964     C
H       0.1502   0.0114   0.3431     H
C       0.1506   0.6995   0.3689     C
C        0.152   0.9362   0.3627     C
H       0.1582   0.9494   0.1804     H
O       0.1589   0.1819  0.41033     O
C       0.1596   0.8897   0.2529     C
C       0.1609   0.9502   0.4131     C
C       0.1625   0.7123   0.4207     C
C       0.1683   0.0801   0.4362     C
O       0.1688   0.4789  0.42999     O
C        0.169   0.8351    0.442     C
C       0.1706   0.5892   0.4531     C
Zn     0.17166  0.31204  0.46752    Zn
O       0.1774   0.6067  0.49809     O
H       0.1787   0.8423   0.4757     H
O       0.1796   0.0888  0.48237     O
Zn     0.18785  0.50904   0.5663    Zn
H       0.1898   0.9562   0.2645     H
H       0.1924   0.8326   0.1087     H
O       0.1974   0.7916  0.96517     O
C       0.2044   0.8121   0.0105     C
O       0.2351   0.3446  0.52915     O
O       0.2649   0.8446  0.02915     O
C       0.2956   0.3121   0.5105     C
O       0.3026   0.2916  0.46517     O
H       0.3076   0.3326   0.6087     H
H       0.3102   0.4562   0.7645     H
Zn     0.31215  0.00904   0.0663    Zn
O       0.3204   0.5888  0.98237     O
H       0.3213   0.3423   0.9757     H
O       0.3226   0.1067  0.99809     O
Zn     0.32834  0.81204  0.96752    Zn
C       0.3294   0.0892   0.9531     C
C        0.331   0.3351    0.942     C
O       0.3312   0.9789  0.92999     O
C       0.3317   0.5801   0.9362     C
C       0.3375   0.2123   0.9207     C
C       0.3391   0.4502   0.9131     C
C       0.3404   0.3897   0.7529     C
O       0.3411   0.6819  0.91033     O
H       0.3418   0.4494   0.6804     H
C        0.348   0.4362   0.8627     C
C       0.3494   0.1995   0.8689     C
H       0.3498   0.5114   0.8431     H
C       0.3511   0.2992   0.5964     C
H       0.3538   0.1167   0.8545     H
C       0.3544   0.3136   0.8401     C
C       0.3571   0.3822   0.7014     C
C       0.3612   0.2848   0.5443     C
C       0.3681   0.3012   0.7846     C
C       0.3941   0.2812   0.6827     C
C       0.4048   0.2642   0.6279     C
C       0.4101    0.199    0.766     C
O        0.413   0.9222  0.06578     O
C       0.4225   0.1838   0.7157     C
C       0.4252   0.2436   0.5248     C
H       0.4306   0.1389   0.7879     H
O       0.4306   0.8115  0.99415     O
H        0.432   0.2411   0.4907     H
H       0.4485   0.1121   0.7038     H
C       0.4488   0.8508   0.0385     C
C       0.4705   0.2136   0.6079     C
C       0.4824   0.2036   0.5579     C
H       0.4932   0.8137   0.1296     H
H       0.5068   0.1863   0.6296     H
C       0.5176   0.7964   0.0579     C
C       0.5295   0.7864   0.1079     C
C       0.5512   0.1492   0.5385     C
H       0.5515   0.8879   0.2038     H
H        0.568   0.7589   0.9907     H
O       0.5694   0.1885  0.49415     O
H       0.5694   0.8611   0.2879     H
C       0.5748   0.7564   0.0248     C
C       0.5775   0.8162   0.2157     C
O        0.587   0.0778  0.56578     O
C       0.5899    0.801    0.266     C
C       0.5952   0.7358   0.1279     C
C       0.6059   0.7188   0.1827     C
C       0.6319   0.6988   0.2846     C
C       0.6388   0.7152   0.0443     C
C       0.6429   0.6178   0.2014     C
C       0.6456   0.6864   0.3401     C
H       0.6462   0.8833   0.3545     H
C       0.6489   0.7008   0.0964     C
H       0.6502   0.4886   0.3431     H
C       0.6506   0.8005   0.3689     C
C        0.652   0.5638   0.3627     C
H       0.6582   0.5506   0.1804     H
O       0.6589   0.3181  0.41033     O
C       0.6596   0.6103   0.2529     C
C       0.6609   0.5498   0.4131     C
C       0.6625   0.7877   0.4207     C
C       0.6683   0.4199   0.4362     C
O       0.6688   0.0211  0.42999     O
C        0.669   0.6649    0.442     C
C       0.6706   0.9108   0.4531     C
Zn     0.67166  0.18796  0.46752    Zn
O       0.6774   0.8933  0.49809     O
H       0.6787   0.6577   0.4757     H
O       0.6796   0.4112  0.48237     O
Zn     0.68785  0.99096   0.5663    Zn
H       0.6898   0.5438   0.2645     H
H       0.6924   0.6674   0.1087     H
O       0.6974   0.7084  0.96517     O
C       0.7044   0.6879   0.0105     C
O       0.7351   0.1554  0.52915     O
O       0.7649   0.6554  0.02915     O
C       0.7956   0.1879   0.5105     C
O       0.8026   0.2084  0.46517     O
H       0.8076   0.1674   0.6087     H
H       0.8102   0.0438   0.7645     H
Zn     0.81215  0.49096   0.0663    Zn
O       0.8204   0.9112  0.98237     O
H       0.8213   0.1577   0.9757     H
O       0.8226   0.3933  0.99809     O
Zn     0.82834  0.68796  0.96752    Zn
C       0.8294   0.4108   0.9531     C
C        0.831   0.1649    0.942     C
O       0.8312   0.5211  0.92999     O
C       0.8317   0.9199   0.9362     C
C       0.8375   0.2877   0.9207     C
C       0.8391   0.0498   0.9131     C
C       0.8404   0.1103   0.7529     C
O       0.8411   0.8181  0.91033     O
H       0.8418   0.0506   0.6804     H
C        0.848   0.0638   0.8627     C
C       0.8494   0.3005   0.8689     C
H       0.8498   0.9886   0.8431     H
C       0.8511   0.2008   0.5964     C
H       0.8538   0.3833   0.8545     H
C       0.8544   0.1864   0.8401     C
C       0.8571   0.1178   0.7014     C
C       0.8612   0.2152   0.5443     C
C       0.8681   0.1988   0.7846     C
C       0.8941   0.2188   0.6827     C
C       0.9048   0.2358   0.6279     C
C       0.9101    0.301    0.766     C
O        0.913   0.5778  0.06578     O
C       0.9225   0.3162   0.7157     C
C       0.9252   0.2564   0.5248     C
H       0.9306   0.3611   0.7879     H
O       0.9306   0.6885  0.99415     O
H        0.932   0.2589   0.4907     H
H       0.9485   0.3879   0.7038     H
C       0.9488   0.6492   0.0385     C
C       0.9705   0.2864   0.6079     C
C       0.9824   0.2964   0.5579     C
H       0.9932   0.6863   0.1296     H
