data_I
_chemical_name_common  '/home/zhangsd/repos/MofS-CGCNN/ML/data/TSD/clean_cifs/DUTKAG_clean'
_cell_length_a 20.65800
_cell_length_b 20.65800
_cell_length_c 13.77500
_cell_angle_alpha 90.00000
_cell_angle_beta  90.00000
_cell_angle_gamma 120.00000
_space_group_name_H-M_alt      'P 1'


loop_
_space_group_symop_operation_xyz
  'x, y, z' 

loop_
_atom_site_label
_atom_site_fract_x
_atom_site_fract_y
_atom_site_fract_z
_atom_site_type_symbol
Zn         0.0      0.0  0.02993    Zn
Zn         0.0      0.0   0.2901    Zn
N          0.0      0.0  0.44253     N
N          0.0      0.0  0.62993     N
Zn         0.0      0.0  0.76983    Zn
O      0.05157  0.10313  0.94833     O
O      0.05157  0.94843  0.94833     O
O      0.05237  0.10473  0.80283     O
O      0.05237  0.94763  0.80283     O
C       0.0671  0.53355   0.6185     C
C      0.07057  0.14113  0.87773     C
C      0.07057  0.92943  0.87773     C
C      0.07447  0.03723  0.58963     C
C      0.07667  0.03833  0.47673     C
C       0.0775  0.53875   0.4513     C
N      0.08843  0.04422  0.21837     N
F       0.0928   0.5464   0.7109     F
N      0.09753  0.04877  0.11927     N
H      0.10087  0.01253  0.61323     H
H      0.10087  0.08833  0.61323     H
H      0.10267  0.01323  0.45323     H
H      0.10267  0.08943  0.45323     H
H       0.1052   0.5526   0.3941     H
C      0.10827  0.21653  0.87263     C
C      0.10827  0.89173  0.87263     C
H      0.11407  0.22813  0.72743     H
H      0.11407  0.88593  0.72743     H
C       0.1168   0.5584   0.5393     C
F      0.12027  0.24053  0.04423     F
F      0.12027  0.87973  0.04423     F
C      0.12792  0.25583  0.78463     C
C      0.12792  0.87208  0.78463     C
C      0.13312  0.26623  0.95183     C
C      0.13312  0.86688  0.95183     C
N      0.15743  0.07872  0.25827     N
C      0.16682  0.33363  0.77683     C
C      0.16682  0.83318  0.77683     C
N      0.16853  0.08427  0.09517     N
C      0.17137  0.34273  0.94663     C
C      0.17137  0.82863  0.94663     C
H      0.17782  0.35563  0.71573     H
H      0.17782  0.82218  0.71573     H
H      0.18547  0.37093  0.00333     H
H      0.18547  0.81453  0.00333     H
C      0.18902  0.37803  0.85763     C
C      0.18902  0.81098  0.85763     C
C       0.1922   0.5961   0.5444     C
C      0.20733  0.10367  0.18077     C
O       0.2286   0.6143   0.4695     O
C      0.22967  0.45933  0.84743     C
C      0.22967  0.77033  0.84743     C
O       0.2302   0.6151    0.615     O
H       0.2439    0.564   0.1199     H
H       0.2439   0.6799   0.1199     H
H        0.245   0.5658   0.2799     H
H        0.245   0.6792   0.2799     H
N      0.24907  0.49813  0.76183     N
N      0.24907  0.75093  0.76183     N
N      0.25462  0.50923  0.92493     N
N      0.25462  0.74538  0.92493     N
N      0.28457  0.56913  0.78593     N
N      0.28457  0.71543  0.78593     N
C      0.28863  0.14432  0.19097     C
N      0.28912  0.57823  0.88503     N
N      0.28912  0.71088  0.88503     N
C        0.295     0.59   0.1434     C
C        0.295    0.705   0.1434     C
H      0.29573  0.14787  0.33667     H
C       0.2961   0.5922   0.2563     C
C       0.2961   0.7039   0.2563     C
H      0.31103  0.15552  0.04907     H
H       0.3201    0.564   0.1199     H
H       0.3201   0.7561   0.1199     H
H       0.3208   0.5658   0.2799     H
H       0.3208    0.755   0.2799     H
C      0.32393  0.16197  0.27997     C
C      0.33303  0.16652  0.11017     C
N      0.33333  0.66667   0.1092     N
N      0.33333  0.66667   0.2966     N
Zn     0.33333  0.66667   0.4365    Zn
Zn     0.33333  0.66667  0.69659    Zn
Zn     0.33333  0.66667  0.95676    Zn
O       0.3849   0.6151    0.615     O
O       0.3849   0.7698    0.615     O
O       0.3857   0.6143   0.4695     O
O       0.3857   0.7714   0.4695     O
C      0.40043  0.20022  0.28517     C
C       0.4039   0.5961   0.5444     C
C       0.4039   0.8078   0.5444     C
C       0.4078   0.7039   0.2563     C
C         0.41    0.705   0.1434     C
C      0.41083  0.20542  0.11797     C
N      0.42177  0.71088  0.88503     N
F      0.42613  0.21307  0.37757     F
N      0.43087  0.71543  0.78593     N
H       0.4342   0.6792   0.2799     H
H       0.4342    0.755   0.2799     H
H        0.436   0.6799   0.1199     H
H        0.436   0.7561   0.1199     H
H      0.43853  0.21927  0.06077     H
C       0.4416   0.5584   0.5393     C
C       0.4416   0.8832   0.5393     C
H       0.4474   0.5526   0.3941     H
H       0.4474   0.8948   0.3941     H
C      0.45013  0.22507  0.20597     C
F       0.4536   0.5464   0.7109     F
F       0.4536   0.9072   0.7109     F
C      0.46125  0.53875   0.4513     C
C      0.46125   0.9225   0.4513     C
C      0.46645  0.53355   0.6185     C
C      0.46645   0.9329   0.6185     C
N      0.49077  0.74538  0.92493     N
C      0.50015   0.0003   0.4435     C
C      0.50015  0.49985   0.4435     C
N      0.50187  0.75093  0.76183     N
C       0.5047   0.0094   0.6133     C
C       0.5047   0.4953   0.6133     C
H      0.51115   0.0223   0.3824     H
H      0.51115  0.48885   0.3824     H
H       0.5188   0.0376     0.67     H
H       0.5188   0.4812     0.67     H
C      0.52235   0.0447   0.5243     C
C      0.52235  0.47765   0.5243     C
C      0.52553  0.26277  0.21107     C
C      0.54067  0.77033  0.84743     C
O      0.56193  0.28097  0.13617     O
C        0.563    0.126   0.5141     C
C        0.563    0.437   0.5141     C
O      0.56353  0.28177  0.28167     O
H      0.57723  0.23067  0.78657     H
H      0.57723  0.34657  0.78657     H
H      0.57833  0.23247  0.94657     H
H      0.57833  0.34587  0.94657     H
N       0.5824   0.1648   0.4285     N
N       0.5824   0.4176   0.4285     N
N      0.58795   0.1759   0.5916     N
N      0.58795  0.41205   0.5916     N
N       0.6179   0.2358   0.4526     N
N       0.6179   0.3821   0.4526     N
C      0.62197  0.81098  0.85763     C
N      0.62245   0.2449   0.5517     N
N      0.62245  0.37755   0.5517     N
C      0.62833  0.25667  0.81007     C
C      0.62833  0.37167  0.81007     C
H      0.62907  0.81453  0.00333     H
C      0.62943  0.25887  0.92297     C
C      0.62943  0.37057  0.92297     C
H      0.64437  0.82218  0.71573     H
H      0.65343  0.23067  0.78657     H
H      0.65343  0.42277  0.78657     H
H      0.65413  0.23247  0.94657     H
H      0.65413  0.42167  0.94657     H
C      0.65727  0.82863  0.94663     C
C      0.66637  0.83318  0.77683     C
Zn     0.66667  0.33333  0.10317    Zn
Zn     0.66667  0.33333  0.36326    Zn
Zn     0.66667  0.33333  0.62343    Zn
N      0.66667  0.33333  0.77587     N
N      0.66667  0.33333  0.96327     N
O      0.71823  0.28177  0.28167     O
O      0.71823  0.43647  0.28167     O
O      0.71903  0.28097  0.13617     O
O      0.71903  0.43807  0.13617     O
C      0.73377  0.86688  0.95183     C
C      0.73723  0.26277  0.21107     C
C      0.73723  0.47447  0.21107     C
C      0.74113  0.37057  0.92297     C
C      0.74333  0.37167  0.81007     C
C      0.74417  0.87208  0.78463     C
N       0.7551  0.37755   0.5517     N
F      0.75947  0.87973  0.04423     F
N       0.7642   0.3821   0.4526     N
H      0.76753  0.34587  0.94657     H
H      0.76753  0.42167  0.94657     H
H      0.76933  0.34657  0.78657     H
H      0.76933  0.42277  0.78657     H
H      0.77187  0.88593  0.72743     H
C      0.77493  0.22507  0.20597     C
C      0.77493  0.54987  0.20597     C
H      0.78073  0.21927  0.06077     H
H      0.78073  0.56147  0.06077     H
C      0.78347  0.89173  0.87263     C
F      0.78693  0.21307  0.37757     F
F      0.78693  0.57387  0.37757     F
C      0.79458  0.20542  0.11797     C
C      0.79458  0.58917  0.11797     C
C      0.79978  0.20022  0.28517     C
C      0.79978  0.59957  0.28517     C
N       0.8241  0.41205   0.5916     N
C      0.83348  0.16652  0.11017     C
C      0.83348  0.66697  0.11017     C
N       0.8352   0.4176   0.4285     N
C      0.83803  0.16197  0.27997     C
C      0.83803  0.67607  0.27997     C
H      0.84448  0.15552  0.04907     H
H      0.84448  0.68897  0.04907     H
H      0.85213  0.14787  0.33667     H
H      0.85213  0.70427  0.33667     H
C      0.85568  0.14432  0.19097     C
C      0.85568  0.71137  0.19097     C
C      0.85887  0.92943  0.87773     C
C        0.874    0.437   0.5141     C
O      0.89527  0.94763  0.80283     O
C      0.89633  0.10367  0.18077     C
C      0.89633  0.79267  0.18077     C
O      0.89687  0.94843  0.94833     O
H      0.91057  0.01323  0.45323     H
H      0.91057  0.89733  0.45323     H
H      0.91167  0.01253  0.61323     H
H      0.91167  0.89913  0.61323     H
N      0.91573  0.08427  0.09517     N
N      0.91573  0.83147  0.09517     N
N      0.92128  0.07872  0.25827     N
N      0.92128  0.84257  0.25827     N
N      0.95123  0.04877  0.11927     N
N      0.95123  0.90247  0.11927     N
C       0.9553  0.47765   0.5243     C
N      0.95578  0.04422  0.21837     N
N      0.95578  0.91157  0.21837     N
C      0.96167  0.03833  0.47673     C
C      0.96167  0.92333  0.47673     C
H       0.9624   0.4812     0.67     H
C      0.96277  0.03723  0.58963     C
C      0.96277  0.92553  0.58963     C
H       0.9777  0.48885   0.3824     H
H      0.98677  0.08943  0.45323     H
H      0.98677  0.89733  0.45323     H
H      0.98747  0.08833  0.61323     H
H      0.98747  0.89913  0.61323     H
C       0.9906   0.4953   0.6133     C
C       0.9997  0.49985   0.4435     C
