data_I
_chemical_name_common  '/home/zhangsd/repos/MofS-CGCNN/ML/data/TSD/clean_cifs/DUYRIZ_clean'
_cell_length_a 20.48900
_cell_length_b 23.47200
_cell_length_c 29.66900
_cell_angle_alpha 90.00000
_cell_angle_beta  90.00000
_cell_angle_gamma 90.00000
_space_group_name_H-M_alt      'P 1'


loop_
_space_group_symop_operation_xyz
  'x, y, z' 

loop_
_atom_site_label
_atom_site_fract_x
_atom_site_fract_y
_atom_site_fract_z
_atom_site_type_symbol
C        0.002   0.0445   0.7415     C
C        0.002   0.5445   0.7585     C
N       0.0051   0.0502   0.2396     N
N       0.0051   0.5502   0.2604     N
Ce     0.00514   0.2699  0.14603    Ce
Ce     0.00514   0.7699  0.35397    Ce
C       0.0061   0.1421   0.2083     C
C       0.0061   0.6421   0.2917     C
O       0.0162   0.0067   0.1452     O
O       0.0162   0.5067   0.3548     O
O       0.0182   0.4142   0.2136     O
O       0.0182   0.9142   0.2864     O
O       0.0278   0.1926   0.2035     O
O       0.0278   0.6926   0.2965     O
C       0.0314   0.0114   0.2663     C
C       0.0314   0.5114   0.2337     C
C       0.0354   0.1025   0.2409     C
C       0.0354   0.6025   0.2591     C
O       0.0405   0.3759   0.6836     O
O       0.0405   0.8759   0.8164     O
O       0.0421   0.0538   0.7716     O
O       0.0421   0.5538   0.7284     O
O       0.0495   0.0476   0.6266     O
O       0.0495   0.5476   0.8734     O
W      0.06564  0.47692  0.90019     W
W      0.06564  0.97692  0.59981     W
O       0.0742   0.0122   0.5401     O
O       0.0742   0.5122   0.9599     O
O       0.0802   0.2312   0.0223     O
O       0.0802   0.7312   0.4777     O
C       0.0829   0.0203   0.2937     C
C       0.0829   0.5203   0.2063     C
O       0.0842   0.1559   0.6498     O
O       0.0842   0.6559   0.8502     O
C       0.0875   0.1142   0.2678     C
C       0.0875   0.6142   0.2322     C
O       0.0881   0.0514   0.0758     O
O       0.0881   0.5514   0.4242     O
O       0.0919   0.4427    0.845     O
O       0.0919   0.9427    0.655     O
Ce     0.09276  0.47051  0.68396    Ce
Ce     0.09276  0.97051  0.81604    Ce
O       0.0954   0.2639   0.0932     O
O       0.0954   0.7639   0.4068     O
W      0.09706  0.01007  0.12987     W
W      0.09706  0.51007  0.37013     W
H       0.0991   0.4913    0.188     H
H       0.0991   0.9913    0.312     H
H       0.1063   0.1502   0.2679     H
H       0.1063   0.6502   0.2321     H
O       0.1077    0.056   0.8627     O
O       0.1077    0.556   0.6373     O
C       0.1106   0.0734   0.2937     C
C       0.1106   0.5734   0.2063     C
O       0.1108   0.4418   0.3984     O
O       0.1108   0.9418   0.1016     O
O       0.1133   0.0834   0.1621     O
O       0.1133   0.5834   0.3379     O
C       0.1136   0.2484   0.0536     C
C       0.1136   0.7484   0.4464     C
O       0.1151   0.4133   0.9284     O
O       0.1151   0.9133   0.5716     O
O       0.1211   0.1156   0.5686     O
O       0.1211   0.6156   0.9314     O
Ce     0.12126  0.19389  0.94903    Ce
Ce     0.12126  0.69389  0.55097    Ce
W      0.12967  0.09756  0.63216     W
W      0.12967  0.59756  0.86784     W
H       0.1323   0.0114   0.4066     H
H       0.1323   0.5114   0.0934     H
O       0.1353   0.4742   0.3174     O
O       0.1353   0.9742   0.1826     O
H       0.1367    0.261   0.5205     H
H       0.1367    0.761   0.9795     H
O       0.1398   0.2986   0.9373     O
O       0.1398   0.7986   0.5627     O
O       0.1407   0.1171   0.0047     O
O       0.1407   0.6171   0.4953     O
O       0.1426   0.4606   0.7623     O
O       0.1426   0.9606   0.7377     O
O       0.1441   0.0576   0.6884     O
O       0.1441   0.5576   0.8116     O
H       0.1463   0.0808   0.3123     H
H       0.1463   0.5808   0.1877     H
O       0.1473   0.2105    0.445     O
O       0.1473   0.7105    0.055     O
W      0.15052  0.40114  0.80693     W
W      0.15052  0.90114  0.69307     W
W      0.15094  0.05446  0.52881     W
W      0.15094  0.55446  0.97119     W
H       0.1523   0.4248   0.1313     H
H       0.1523   0.9248   0.3687     H
C       0.1577   0.0699    0.883     C
C       0.1577   0.5699    0.617     C
O       0.1615     0.39   0.4712     O
O       0.1615     0.89   0.0288     O
W      0.16154  0.37079  0.40793     W
W      0.16154  0.87079  0.09207     W
O       0.1619   0.0216   0.5999     O
O       0.1619   0.5216   0.9001     O
O       0.1653   0.1127   0.9072     O
O       0.1653   0.6127   0.5928     O
O       0.1723   0.1386   0.0926     O
O       0.1723   0.3613    0.862     O
O       0.1723   0.6386   0.4074     O
O       0.1723   0.8613    0.638     O
W      0.17298  0.07702  0.04878     W
W      0.17298  0.57702  0.45122     W
C       0.1734   0.0031    0.395     C
C       0.1734   0.5031    0.105     C
O       0.1746   0.3887   0.6845     O
O       0.1746   0.8887   0.8155     O
H       0.1778   0.2966   0.5909     H
H       0.1778   0.7966   0.9091     H
O       0.1785   0.0045   0.0205     O
O       0.1785   0.5045   0.4795     O
O       0.1803   0.3762   0.3458     O
O       0.1803   0.8762   0.1542     O
W      0.18064  0.36009  0.92531     W
W      0.18064  0.86009  0.57469     W
C       0.1808   0.2594   0.5277     C
C       0.1808   0.7594   0.9723     C
C       0.1848   0.4522   0.1284     C
C       0.1848   0.9522   0.3716     C
C       0.1852    0.254   0.0466     C
C       0.1852    0.754   0.4534     C
O       0.1855   0.0544   0.7761     O
O       0.1855   0.5544   0.7239     O
W      0.19193  0.42084  0.29131     W
W      0.19193  0.92084  0.20869     W
W      0.19347  0.11801  0.15287     W
W      0.19347  0.61801  0.34713     W
O       0.1964    0.036   0.1127     O
O       0.1964    0.536   0.3873     O
O       0.1972   0.4902   0.9924     O
O       0.1972   0.9902   0.5076     O
N        0.205   0.4848   0.6446     N
N        0.205   0.9848   0.8554     N
C        0.206   0.2807   0.5698     C
C        0.206   0.7807   0.9302     C
N       0.2064   0.2321   0.0075     N
N       0.2064   0.7321   0.4925     N
W      0.20738  0.02444   0.7262     W
W      0.20738  0.52444   0.7738     W
O       0.2086    0.378   0.9863     O
O       0.2086    0.878   0.5137     O
C       0.2121   0.2117   0.4522     C
C       0.2121   0.7117   0.0478     C
H       0.2127   0.2908   0.1064     H
H       0.2127   0.7908   0.3936     H
O       0.2139   0.1247   0.6357     O
O       0.2139   0.6247   0.8643     O
C       0.2157   0.0303    0.879     C
C       0.2157   0.5303    0.621     C
H       0.2202   0.0732   0.4183     H
H       0.2202   0.5732   0.0817     H
O       0.2242    0.465   0.8259     O
O       0.2242    0.965   0.6741     O
O       0.2243   0.4753   0.2494     O
O       0.2243   0.9753   0.2506     O
C       0.2252   0.0409   0.4004     C
C       0.2252   0.5409   0.0996     C
O       0.2277   0.3515   0.1751     O
O       0.2277   0.8515   0.3249     O
C       0.2286   0.2775    0.079     C
C       0.2286   0.7775    0.421     C
C       0.2289   0.2356   0.4976     C
C       0.2289   0.7356   0.0024     C
C       0.2298   0.3924   0.6706     C
C       0.2298   0.8924   0.8294     C
O       0.2299   0.3732   0.7802     O
O       0.2299   0.8732   0.7198     O
W      0.23033  0.43781  0.49344     W
W      0.23033  0.93781  0.00656     W
O       0.2308   0.0749    0.203     O
O       0.2308   0.5749    0.297     O
O       0.2337   0.3227   0.4168     O
O       0.2337   0.8227   0.0832     O
O       0.2391   0.0863   0.5379     O
O       0.2391   0.5863   0.9621     O
O       0.2456   0.1956   0.9274     O
O       0.2456   0.6956   0.5726     O
C       0.2471   0.4441   0.1474     C
C       0.2471   0.9441   0.3526     C
O       0.2475   0.4289   0.4194     O
O       0.2475   0.9289   0.0806     O
O       0.2525   0.4289   0.9194     O
O       0.2525   0.9289   0.5806     O
C       0.2529   0.4441   0.6474     C
C       0.2529   0.9441   0.8526     C
O       0.2544   0.1956   0.4274     O
O       0.2544   0.6956   0.0726     O
O       0.2609   0.0863   0.0379     O
O       0.2609   0.5863   0.4621     O
O       0.2663   0.3227   0.9168     O
O       0.2663   0.8227   0.5832     O
O       0.2692   0.0749    0.703     O
O       0.2692   0.5749    0.797     O
W      0.26967  0.43781  0.99344     W
W      0.26967  0.93781  0.50656     W
O       0.2701   0.3732   0.2802     O
O       0.2701   0.8732   0.2198     O
C       0.2702   0.3924   0.1706     C
C       0.2702   0.8924   0.3294     C
C       0.2711   0.2356   0.9976     C
C       0.2711   0.7356   0.5024     C
C       0.2714   0.2775    0.579     C
C       0.2714   0.7775    0.921     C
O       0.2723   0.3515   0.6751     O
O       0.2723   0.8515   0.8249     O
C       0.2748   0.0409   0.9004     C
C       0.2748   0.5409   0.5996     C
O       0.2757   0.4753   0.7494     O
O       0.2757   0.9753   0.7506     O
O       0.2758    0.465   0.3259     O
O       0.2758    0.965   0.1741     O
H       0.2798   0.0732   0.9183     H
H       0.2798   0.5732   0.5817     H
C       0.2843   0.0303    0.379     C
C       0.2843   0.5303    0.121     C
O       0.2861   0.1247   0.1357     O
O       0.2861   0.6247   0.3643     O
H       0.2873   0.2908   0.6064     H
H       0.2873   0.7908   0.8936     H
C       0.2879   0.2117   0.9522     C
C       0.2879   0.7117   0.5478     C
O       0.2914    0.378   0.4863     O
O       0.2914    0.878   0.0137     O
W      0.29262  0.02444   0.2262     W
W      0.29262  0.52444   0.2738     W
N       0.2936   0.2321   0.5075     N
N       0.2936   0.7321   0.9925     N
C        0.294   0.2807   0.0698     C
C        0.294   0.7807   0.4302     C
N        0.295   0.4848   0.1446     N
N        0.295   0.9848   0.3554     N
O       0.3028   0.4902   0.4924     O
O       0.3028   0.9902   0.0076     O
O       0.3036    0.036   0.6127     O
O       0.3036    0.536   0.8873     O
W      0.30653  0.11801  0.65287     W
W      0.30653  0.61801  0.84713     W
W      0.30807  0.42084  0.79131     W
W      0.30807  0.92084  0.70869     W
O       0.3145   0.0544   0.2761     O
O       0.3145   0.5544   0.2239     O
C       0.3148    0.254   0.5466     C
C       0.3148    0.754   0.9534     C
C       0.3152   0.4522   0.6284     C
C       0.3152   0.9522   0.8716     C
C       0.3192   0.2594   0.0277     C
C       0.3192   0.7594   0.4723     C
W      0.31936  0.36009  0.42531     W
W      0.31936  0.86009  0.07469     W
O       0.3197   0.3762   0.8458     O
O       0.3197   0.8762   0.6542     O
O       0.3215   0.0045   0.5205     O
O       0.3215   0.5045   0.9795     O
H       0.3222   0.2966   0.0909     H
H       0.3222   0.7966   0.4091     H
O       0.3254   0.3887   0.1845     O
O       0.3254   0.8887   0.3155     O
C       0.3266   0.0031    0.895     C
C       0.3266   0.5031    0.605     C
W      0.32702  0.07702  0.54878     W
W      0.32702  0.57702  0.95122     W
O       0.3277   0.1386   0.5926     O
O       0.3277   0.3613    0.362     O
O       0.3277   0.6386   0.9074     O
O       0.3277   0.8613    0.138     O
O       0.3347   0.1127   0.4072     O
O       0.3347   0.6127   0.0928     O
O       0.3381   0.0216   0.0999     O
O       0.3381   0.5216   0.4001     O
W      0.33846  0.37079  0.90793     W
W      0.33846  0.87079  0.59207     W
O       0.3385     0.39   0.9712     O
O       0.3385     0.89   0.5288     O
C       0.3423   0.0699    0.383     C
C       0.3423   0.5699    0.117     C
H       0.3477   0.4248   0.6313     H
H       0.3477   0.9248   0.8687     H
W      0.34906  0.05446  0.02881     W
W      0.34906  0.55446  0.47119     W
W      0.34948  0.40114  0.30693     W
W      0.34948  0.90114  0.19307     W
O       0.3527   0.2105    0.945     O
O       0.3527   0.7105    0.555     O
H       0.3537   0.0808   0.8123     H
H       0.3537   0.5808   0.6877     H
O       0.3559   0.0576   0.1884     O
O       0.3559   0.5576   0.3116     O
O       0.3574   0.4606   0.2623     O
O       0.3574   0.9606   0.2377     O
O       0.3593   0.1171   0.5047     O
O       0.3593   0.6171   0.9953     O
O       0.3602   0.2986   0.4373     O
O       0.3602   0.7986   0.0627     O
H       0.3633    0.261   0.0205     H
H       0.3633    0.761   0.4795     H
O       0.3647   0.4742   0.8174     O
O       0.3647   0.9742   0.6826     O
H       0.3677   0.0114   0.9066     H
H       0.3677   0.5114   0.5934     H
W      0.37033  0.09756  0.13216     W
W      0.37033  0.59756  0.36784     W
Ce     0.37874  0.19389  0.44903    Ce
Ce     0.37874  0.69389  0.05097    Ce
O       0.3789   0.1156   0.0686     O
O       0.3789   0.6156   0.4314     O
O       0.3849   0.4133   0.4284     O
O       0.3849   0.9133   0.0716     O
C       0.3864   0.2484   0.5536     C
C       0.3864   0.7484   0.9464     C
O       0.3867   0.0834   0.6621     O
O       0.3867   0.5834   0.8379     O
O       0.3892   0.4418   0.8984     O
O       0.3892   0.9418   0.6016     O
C       0.3894   0.0734   0.7937     C
C       0.3894   0.5734   0.7063     C
O       0.3923    0.056   0.3627     O
O       0.3923    0.556   0.1373     O
H       0.3937   0.1502   0.7679     H
H       0.3937   0.6502   0.7321     H
H       0.4009   0.4913    0.688     H
H       0.4009   0.9913    0.812     H
W      0.40294  0.01007  0.62987     W
W      0.40294  0.51007  0.87013     W
O       0.4046   0.2639   0.5932     O
O       0.4046   0.7639   0.9068     O
Ce     0.40724  0.47051  0.18396    Ce
Ce     0.40724  0.97051  0.31604    Ce
O       0.4081   0.4427    0.345     O
O       0.4081   0.9427    0.155     O
O       0.4119   0.0514   0.5758     O
O       0.4119   0.5514   0.9242     O
C       0.4125   0.1142   0.7678     C
C       0.4125   0.6142   0.7322     C
O       0.4158   0.1559   0.1498     O
O       0.4158   0.6559   0.3502     O
C       0.4171   0.0203   0.7937     C
C       0.4171   0.5203   0.7063     C
O       0.4198   0.2312   0.5223     O
O       0.4198   0.7312   0.9777     O
O       0.4258   0.0122   0.0401     O
O       0.4258   0.5122   0.4599     O
W      0.43436  0.47692  0.40019     W
W      0.43436  0.97692  0.09981     W
O       0.4505   0.0476   0.1266     O
O       0.4505   0.5476   0.3734     O
O       0.4579   0.0538   0.2716     O
O       0.4579   0.5538   0.2284     O
O       0.4595   0.3759   0.1836     O
O       0.4595   0.8759   0.3164     O
C       0.4646   0.1025   0.7409     C
C       0.4646   0.6025   0.7591     C
C       0.4686   0.0114   0.7663     C
C       0.4686   0.5114   0.7337     C
O       0.4722   0.1926   0.7035     O
O       0.4722   0.6926   0.7965     O
O       0.4818   0.4142   0.7136     O
O       0.4818   0.9142   0.7864     O
O       0.4838   0.0067   0.6452     O
O       0.4838   0.5067   0.8548     O
C       0.4939   0.1421   0.7083     C
C       0.4939   0.6421   0.7917     C
Ce     0.49486   0.2699  0.64603    Ce
Ce     0.49486   0.7699  0.85397    Ce
N       0.4949   0.0502   0.7396     N
N       0.4949   0.5502   0.7604     N
C        0.498   0.0445   0.2415     C
C        0.498   0.5445   0.2585     C
C        0.502   0.4555   0.7415     C
C        0.502   0.9555   0.7585     C
N       0.5051   0.4498   0.2396     N
N       0.5051   0.9498   0.2604     N
Ce     0.50514   0.2301  0.14603    Ce
Ce     0.50514   0.7301  0.35397    Ce
C       0.5061   0.3579   0.2083     C
C       0.5061   0.8579   0.2917     C
O       0.5162   0.4933   0.1452     O
O       0.5162   0.9933   0.3548     O
O       0.5182   0.0858   0.2136     O
O       0.5182   0.5858   0.2864     O
O       0.5278   0.3074   0.2035     O
O       0.5278   0.8074   0.2965     O
C       0.5314   0.4886   0.2663     C
C       0.5314   0.9886   0.2337     C
C       0.5354   0.3975   0.2409     C
C       0.5354   0.8975   0.2591     C
O       0.5405   0.1241   0.6836     O
O       0.5405   0.6241   0.8164     O
O       0.5421   0.4462   0.7716     O
O       0.5421   0.9462   0.7284     O
O       0.5495   0.4524   0.6266     O
O       0.5495   0.9524   0.8734     O
W      0.56564  0.02308  0.90019     W
W      0.56564  0.52308  0.59981     W
O       0.5742   0.4878   0.5401     O
O       0.5742   0.9878   0.9599     O
O       0.5802   0.2688   0.0223     O
O       0.5802   0.7688   0.4777     O
C       0.5829   0.4797   0.2937     C
C       0.5829   0.9797   0.2063     C
O       0.5842   0.3441   0.6498     O
O       0.5842   0.8441   0.8502     O
C       0.5875   0.3858   0.2678     C
C       0.5875   0.8858   0.2322     C
O       0.5881   0.4486   0.0758     O
O       0.5881   0.9486   0.4242     O
O       0.5919   0.0573    0.845     O
O       0.5919   0.5573    0.655     O
Ce     0.59276  0.02949  0.68396    Ce
Ce     0.59276  0.52949  0.81604    Ce
O       0.5954   0.2361   0.0932     O
O       0.5954   0.7361   0.4068     O
W      0.59706  0.48993  0.12987     W
W      0.59706  0.98993  0.37013     W
H       0.5991   0.0087    0.188     H
H       0.5991   0.5087    0.312     H
H       0.6063   0.3498   0.2679     H
H       0.6063   0.8498   0.2321     H
O       0.6077    0.444   0.8627     O
O       0.6077    0.944   0.6373     O
C       0.6106   0.4266   0.2937     C
C       0.6106   0.9266   0.2063     C
O       0.6108   0.0582   0.3984     O
O       0.6108   0.5582   0.1016     O
O       0.6133   0.4166   0.1621     O
O       0.6133   0.9166   0.3379     O
C       0.6136   0.2516   0.0536     C
C       0.6136   0.7516   0.4464     C
O       0.6151   0.0867   0.9284     O
O       0.6151   0.5867   0.5716     O
O       0.6211   0.3844   0.5686     O
O       0.6211   0.8844   0.9314     O
Ce     0.62126  0.30611  0.94903    Ce
Ce     0.62126  0.80611  0.55097    Ce
W      0.62967  0.40244  0.63216     W
W      0.62967  0.90244  0.86784     W
H       0.6323   0.4886   0.4066     H
H       0.6323   0.9886   0.0934     H
O       0.6353   0.0258   0.3174     O
O       0.6353   0.5258   0.1826     O
H       0.6367    0.239   0.5205     H
H       0.6367    0.739   0.9795     H
O       0.6398   0.2014   0.9373     O
O       0.6398   0.7014   0.5627     O
O       0.6407   0.3829   0.0047     O
O       0.6407   0.8829   0.4953     O
O       0.6426   0.0394   0.7623     O
O       0.6426   0.5394   0.7377     O
O       0.6441   0.4424   0.6884     O
O       0.6441   0.9424   0.8116     O
H       0.6463   0.4192   0.3123     H
H       0.6463   0.9192   0.1877     H
O       0.6473   0.2895    0.445     O
O       0.6473   0.7895    0.055     O
W      0.65052  0.09886  0.80693     W
W      0.65052  0.59886  0.69307     W
W      0.65094  0.44554  0.52881     W
W      0.65094  0.94554  0.97119     W
H       0.6523   0.0752   0.1313     H
H       0.6523   0.5752   0.3687     H
C       0.6577   0.4301    0.883     C
C       0.6577   0.9301    0.617     C
O       0.6615     0.11   0.4712     O
O       0.6615     0.61   0.0288     O
W      0.66154  0.12921  0.40793     W
W      0.66154  0.62921  0.09207     W
O       0.6619   0.4784   0.5999     O
O       0.6619   0.9784   0.9001     O
O       0.6653   0.3873   0.9072     O
O       0.6653   0.8873   0.5928     O
O       0.6723   0.1387    0.862     O
O       0.6723   0.3614   0.0926     O
O       0.6723   0.6387    0.638     O
O       0.6723   0.8614   0.4074     O
W      0.67298  0.42298  0.04878     W
W      0.67298  0.92298  0.45122     W
C       0.6734   0.4969    0.395     C
C       0.6734   0.9969    0.105     C
O       0.6746   0.1113   0.6845     O
O       0.6746   0.6113   0.8155     O
H       0.6778   0.2034   0.5909     H
H       0.6778   0.7034   0.9091     H
O       0.6785   0.4955   0.0205     O
O       0.6785   0.9955   0.4795     O
O       0.6803   0.1238   0.3458     O
O       0.6803   0.6238   0.1542     O
W      0.68064  0.13991  0.92531     W
W      0.68064  0.63991  0.57469     W
C       0.6808   0.2406   0.5277     C
C       0.6808   0.7406   0.9723     C
C       0.6848   0.0478   0.1284     C
C       0.6848   0.5478   0.3716     C
C       0.6852    0.246   0.0466     C
C       0.6852    0.746   0.4534     C
O       0.6855   0.4456   0.7761     O
O       0.6855   0.9456   0.7239     O
W      0.69193  0.07916  0.29131     W
W      0.69193  0.57916  0.20869     W
W      0.69347  0.38199  0.15287     W
W      0.69347  0.88199  0.34713     W
O       0.6964    0.464   0.1127     O
O       0.6964    0.964   0.3873     O
O       0.6972   0.0098   0.9924     O
O       0.6972   0.5098   0.5076     O
N        0.705   0.0152   0.6446     N
N        0.705   0.5152   0.8554     N
C        0.706   0.2193   0.5698     C
C        0.706   0.7193   0.9302     C
N       0.7064   0.2679   0.0075     N
N       0.7064   0.7679   0.4925     N
W      0.70738  0.47556   0.7262     W
W      0.70738  0.97556   0.7738     W
O       0.7086    0.122   0.9863     O
O       0.7086    0.622   0.5137     O
C       0.7121   0.2883   0.4522     C
C       0.7121   0.7883   0.0478     C
H       0.7127   0.2092   0.1064     H
H       0.7127   0.7092   0.3936     H
O       0.7139   0.3753   0.6357     O
O       0.7139   0.8753   0.8643     O
C       0.7157   0.4697    0.879     C
C       0.7157   0.9697    0.621     C
H       0.7202   0.4268   0.4183     H
H       0.7202   0.9268   0.0817     H
O       0.7242    0.035   0.8259     O
O       0.7242    0.535   0.6741     O
O       0.7243   0.0247   0.2494     O
O       0.7243   0.5247   0.2506     O
C       0.7252   0.4591   0.4004     C
C       0.7252   0.9591   0.0996     C
O       0.7277   0.1485   0.1751     O
O       0.7277   0.6485   0.3249     O
C       0.7286   0.2225    0.079     C
C       0.7286   0.7225    0.421     C
C       0.7289   0.2644   0.4976     C
C       0.7289   0.7644   0.0024     C
C       0.7298   0.1076   0.6706     C
C       0.7298   0.6076   0.8294     C
O       0.7299   0.1268   0.7802     O
O       0.7299   0.6268   0.7198     O
W      0.73033  0.06219  0.49344     W
W      0.73033  0.56219  0.00656     W
O       0.7308   0.4251    0.203     O
O       0.7308   0.9251    0.297     O
O       0.7337   0.1773   0.4168     O
O       0.7337   0.6773   0.0832     O
O       0.7391   0.4137   0.5379     O
O       0.7391   0.9137   0.9621     O
O       0.7456   0.3044   0.9274     O
O       0.7456   0.8044   0.5726     O
C       0.7471   0.0559   0.1474     C
C       0.7471   0.5559   0.3526     C
O       0.7475   0.0711   0.4194     O
O       0.7475   0.5711   0.0806     O
O       0.7525   0.0711   0.9194     O
O       0.7525   0.5711   0.5806     O
C       0.7529   0.0559   0.6474     C
C       0.7529   0.5559   0.8526     C
O       0.7544   0.3044   0.4274     O
O       0.7544   0.8044   0.0726     O
O       0.7609   0.4137   0.0379     O
O       0.7609   0.9137   0.4621     O
O       0.7663   0.1773   0.9168     O
O       0.7663   0.6773   0.5832     O
O       0.7692   0.4251    0.703     O
O       0.7692   0.9251    0.797     O
W      0.76967  0.06219  0.99344     W
W      0.76967  0.56219  0.50656     W
O       0.7701   0.1268   0.2802     O
O       0.7701   0.6268   0.2198     O
C       0.7702   0.1076   0.1706     C
C       0.7702   0.6076   0.3294     C
C       0.7711   0.2644   0.9976     C
C       0.7711   0.7644   0.5024     C
C       0.7714   0.2225    0.579     C
C       0.7714   0.7225    0.921     C
O       0.7723   0.1485   0.6751     O
O       0.7723   0.6485   0.8249     O
C       0.7748   0.4591   0.9004     C
C       0.7748   0.9591   0.5996     C
O       0.7757   0.0247   0.7494     O
O       0.7757   0.5247   0.7506     O
O       0.7758    0.035   0.3259     O
O       0.7758    0.535   0.1741     O
H       0.7798   0.4268   0.9183     H
H       0.7798   0.9268   0.5817     H
C       0.7843   0.4697    0.379     C
C       0.7843   0.9697    0.121     C
O       0.7861   0.3753   0.1357     O
O       0.7861   0.8753   0.3643     O
H       0.7873   0.2092   0.6064     H
H       0.7873   0.7092   0.8936     H
C       0.7879   0.2883   0.9522     C
C       0.7879   0.7883   0.5478     C
O       0.7914    0.122   0.4863     O
O       0.7914    0.622   0.0137     O
W      0.79262  0.47556   0.2262     W
W      0.79262  0.97556   0.2738     W
N       0.7936   0.2679   0.5075     N
N       0.7936   0.7679   0.9925     N
C        0.794   0.2193   0.0698     C
C        0.794   0.7193   0.4302     C
N        0.795   0.0152   0.1446     N
N        0.795   0.5152   0.3554     N
O       0.8028   0.0098   0.4924     O
O       0.8028   0.5098   0.0076     O
O       0.8036    0.464   0.6127     O
O       0.8036    0.964   0.8873     O
W      0.80653  0.38199  0.65287     W
W      0.80653  0.88199  0.84713     W
W      0.80807  0.07916  0.79131     W
W      0.80807  0.57916  0.70869     W
O       0.8145   0.4456   0.2761     O
O       0.8145   0.9456   0.2239     O
C       0.8148    0.246   0.5466     C
C       0.8148    0.746   0.9534     C
C       0.8152   0.0478   0.6284     C
C       0.8152   0.5478   0.8716     C
C       0.8192   0.2406   0.0277     C
C       0.8192   0.7406   0.4723     C
W      0.81936  0.13991  0.42531     W
W      0.81936  0.63991  0.07469     W
O       0.8197   0.1238   0.8458     O
O       0.8197   0.6238   0.6542     O
O       0.8215   0.4955   0.5205     O
O       0.8215   0.9955   0.9795     O
H       0.8222   0.2034   0.0909     H
H       0.8222   0.7034   0.4091     H
O       0.8254   0.1113   0.1845     O
O       0.8254   0.6113   0.3155     O
C       0.8266   0.4969    0.895     C
C       0.8266   0.9969    0.605     C
W      0.82702  0.42298  0.54878     W
W      0.82702  0.92298  0.95122     W
O       0.8277   0.1387    0.362     O
O       0.8277   0.3614   0.5926     O
O       0.8277   0.6387    0.138     O
O       0.8277   0.8614   0.9074     O
O       0.8347   0.3873   0.4072     O
O       0.8347   0.8873   0.0928     O
O       0.8381   0.4784   0.0999     O
O       0.8381   0.9784   0.4001     O
W      0.83846  0.12921  0.90793     W
W      0.83846  0.62921  0.59207     W
O       0.8385     0.11   0.9712     O
O       0.8385     0.61   0.5288     O
C       0.8423   0.4301    0.383     C
C       0.8423   0.9301    0.117     C
H       0.8477   0.0752   0.6313     H
H       0.8477   0.5752   0.8687     H
W      0.84906  0.44554  0.02881     W
W      0.84906  0.94554  0.47119     W
W      0.84948  0.09886  0.30693     W
W      0.84948  0.59886  0.19307     W
O       0.8527   0.2895    0.945     O
O       0.8527   0.7895    0.555     O
H       0.8537   0.4192   0.8123     H
H       0.8537   0.9192   0.6877     H
O       0.8559   0.4424   0.1884     O
O       0.8559   0.9424   0.3116     O
O       0.8574   0.0394   0.2623     O
O       0.8574   0.5394   0.2377     O
O       0.8593   0.3829   0.5047     O
O       0.8593   0.8829   0.9953     O
O       0.8602   0.2014   0.4373     O
O       0.8602   0.7014   0.0627     O
H       0.8633    0.239   0.0205     H
H       0.8633    0.739   0.4795     H
O       0.8647   0.0258   0.8174     O
O       0.8647   0.5258   0.6826     O
H       0.8677   0.4886   0.9066     H
H       0.8677   0.9886   0.5934     H
W      0.87033  0.40244  0.13216     W
W      0.87033  0.90244  0.36784     W
Ce     0.87874  0.30611  0.44903    Ce
Ce     0.87874  0.80611  0.05097    Ce
O       0.8789   0.3844   0.0686     O
O       0.8789   0.8844   0.4314     O
O       0.8849   0.0867   0.4284     O
O       0.8849   0.5867   0.0716     O
C       0.8864   0.2516   0.5536     C
C       0.8864   0.7516   0.9464     C
O       0.8867   0.4166   0.6621     O
O       0.8867   0.9166   0.8379     O
O       0.8892   0.0582   0.8984     O
O       0.8892   0.5582   0.6016     O
C       0.8894   0.4266   0.7937     C
C       0.8894   0.9266   0.7063     C
O       0.8923    0.444   0.3627     O
O       0.8923    0.944   0.1373     O
H       0.8937   0.3498   0.7679     H
H       0.8937   0.8498   0.7321     H
H       0.9009   0.0087    0.688     H
H       0.9009   0.5087    0.812     H
W      0.90294  0.48993  0.62987     W
W      0.90294  0.98993  0.87013     W
O       0.9046   0.2361   0.5932     O
O       0.9046   0.7361   0.9068     O
Ce     0.90724  0.02949  0.18396    Ce
Ce     0.90724  0.52949  0.31604    Ce
O       0.9081   0.0573    0.345     O
O       0.9081   0.5573    0.155     O
O       0.9119   0.4486   0.5758     O
O       0.9119   0.9486   0.9242     O
C       0.9125   0.3858   0.7678     C
C       0.9125   0.8858   0.7322     C
O       0.9158   0.3441   0.1498     O
O       0.9158   0.8441   0.3502     O
C       0.9171   0.4797   0.7937     C
C       0.9171   0.9797   0.7063     C
O       0.9198   0.2688   0.5223     O
O       0.9198   0.7688   0.9777     O
O       0.9258   0.4878   0.0401     O
O       0.9258   0.9878   0.4599     O
W      0.93436  0.02308  0.40019     W
W      0.93436  0.52308  0.09981     W
O       0.9505   0.4524   0.1266     O
O       0.9505   0.9524   0.3734     O
O       0.9579   0.4462   0.2716     O
O       0.9579   0.9462   0.2284     O
O       0.9595   0.1241   0.1836     O
O       0.9595   0.6241   0.3164     O
C       0.9646   0.3975   0.7409     C
C       0.9646   0.8975   0.7591     C
C       0.9686   0.4886   0.7663     C
C       0.9686   0.9886   0.7337     C
O       0.9722   0.3074   0.7035     O
O       0.9722   0.8074   0.7965     O
O       0.9818   0.0858   0.7136     O
O       0.9818   0.5858   0.7864     O
O       0.9838   0.4933   0.6452     O
O       0.9838   0.9933   0.8548     O
C       0.9939   0.3579   0.7083     C
C       0.9939   0.8579   0.7917     C
Ce     0.99486   0.2301  0.64603    Ce
Ce     0.99486   0.7301  0.85397    Ce
N       0.9949   0.4498   0.7396     N
N       0.9949   0.9498   0.7604     N
C        0.998   0.4555   0.2415     C
C        0.998   0.9555   0.2585     C
