data_I
_chemical_name_common  '/home/zhangsd/repos/MofS-CGCNN/ML/data/TSD/clean_cifs/DUYREV_clean'
_cell_length_a 20.48900
_cell_length_b 23.44000
_cell_length_c 29.48600
_cell_angle_alpha 90.00000
_cell_angle_beta  90.00000
_cell_angle_gamma 90.00000
_space_group_name_H-M_alt      'P 1'


loop_
_space_group_symop_operation_xyz
  'x, y, z' 

loop_
_atom_site_label
_atom_site_fract_x
_atom_site_fract_y
_atom_site_fract_z
_atom_site_type_symbol
C       0.0029   0.0455   0.2413     C
C       0.0029   0.5455   0.2587     C
N       0.0058   0.0528   0.7396     N
N       0.0058   0.5528   0.7604     N
Pr     0.00651  0.27082  0.64481    Pr
Pr     0.00651  0.77082  0.85519    Pr
C       0.0071   0.1446   0.7058     C
C       0.0071   0.6446   0.7942     C
O       0.0159    0.416   0.7131     O
O       0.0159    0.916   0.7869     O
O       0.0164   0.0094   0.6429     O
O       0.0164   0.5094   0.8571     O
C       0.0285   0.0114   0.7654     C
C       0.0285   0.5114   0.7346     C
O       0.0286   0.1931   0.7019     O
O       0.0286   0.6931   0.7981     O
C       0.0347   0.1043   0.7402     C
C       0.0347   0.6043   0.7598     C
O       0.0402   0.3741   0.1815     O
O       0.0402   0.8741   0.3185     O
O       0.0425   0.0506   0.2726     O
O       0.0425   0.5506   0.2274     O
O        0.048   0.0486    0.125     O
O        0.048   0.5486    0.375     O
W      0.06584  0.47726  0.39959     W
W      0.06584  0.97726  0.10041     W
O       0.0725   0.0122   0.0394     O
O       0.0725   0.5122   0.4606     O
O       0.0815   0.2304    0.521     O
O       0.0815   0.7304    0.979     O
C       0.0818     0.02   0.7949     C
C       0.0818     0.52   0.7051     C
O       0.0837   0.1572   0.1488     O
O       0.0837   0.6572   0.3512     O
C       0.0865   0.1146   0.7667     C
C       0.0865   0.6146   0.7333     C
O       0.0888   0.0525   0.5734     O
O       0.0888   0.5525   0.9266     O
Pr     0.09126  0.46812  0.18292    Pr
Pr     0.09126  0.96812  0.31708    Pr
O       0.0928   0.4442   0.3444     O
O       0.0928   0.9442   0.1556     O
H       0.0967   0.4913    0.686     H
H       0.0967   0.9913    0.814     H
W      0.09704  0.01189  0.62824     W
W      0.09704  0.51189  0.87176     W
O       0.0973   0.2667    0.592     O
O       0.0973   0.7667    0.908     O
O       0.1058   0.0532   0.3627     O
H       0.1058   0.1506   0.7662     H
O       0.1058   0.5532   0.1373     O
H       0.1058   0.6506   0.7338     H
C        0.111   0.0739   0.7939     C
C        0.111   0.5739   0.7061     C
O       0.1111   0.4422      0.9     O
O       0.1111   0.9422      0.6     O
O       0.1122   0.0853   0.6602     O
O       0.1122   0.5853   0.8398     O
C       0.1146   0.2487   0.5514     C
C       0.1146   0.7487   0.9486     C
O       0.1148   0.4134   0.4271     O
O       0.1148   0.9134   0.0729     O
O       0.1194   0.1159   0.0672     O
O       0.1194   0.6159   0.4328     O
Pr     0.12173  0.19382   0.4479    Pr
Pr     0.12173  0.69382   0.0521    Pr
W      0.12982  0.09831  0.13131     W
W      0.12982  0.59831  0.36869     W
H       0.1336   0.0084   0.9074     H
H       0.1336   0.5084   0.5926     H
O       0.1344   0.4776   0.8186     O
O       0.1344   0.9776   0.6814     O
O       0.1397   0.2969   0.4367     O
O       0.1397   0.7969   0.0633     O
H         0.14   0.2592     0.02     H
H         0.14   0.7592     0.48     H
O       0.1415   0.1175   0.5029     O
O       0.1415   0.6175   0.9971     O
O       0.1452   0.4629   0.2607     O
O       0.1452   0.9629   0.2393     O
O       0.1458   0.0606   0.1874     O
O       0.1458   0.5606   0.3126     O
H       0.1472   0.0816    0.812     H
H       0.1472   0.5816    0.688     H
O       0.1485   0.2098   0.9442     O
O       0.1485   0.7098   0.5558     O
W      0.14966  0.05394  0.02804     W
W      0.14966  0.55394  0.47196     W
W      0.15174  0.40287  0.30564     W
W      0.15174  0.90287  0.19436     W
C       0.1569    0.066   0.3824     C
C       0.1569    0.566   0.1176     C
H       0.1577   0.4231   0.6341     H
H       0.1577   0.9231   0.8659     H
W      0.16126  0.37144  0.90767     W
W      0.16126  0.87144  0.59233     W
O       0.1614   0.3898   0.9722     O
O       0.1614   0.8898   0.5278     O
O       0.1616   0.0227   0.0992     O
O       0.1616   0.5227   0.4008     O
O        0.164   0.1132   0.4042     O
O        0.164   0.6132   0.0958     O
O       0.1713   0.3872   0.1829     O
O       0.1713   0.8872   0.3171     O
H       0.1735   0.2939   0.0864     H
H       0.1735   0.7939   0.4136     H
O        0.174   0.1408   0.5907     O
O        0.174   0.6408   0.9093     O
O       0.1743   0.3622    0.361     O
O       0.1743   0.8622    0.139     O
W      0.17433  0.07746  0.54726     W
W      0.17433  0.57746  0.95274     W
C       0.1745   0.0022   0.8946     C
C       0.1745   0.5022   0.6054     C
O       0.1785   0.3783   0.8454     O
O       0.1785   0.8783   0.6546     O
O       0.1801   0.0033   0.5198     O
O       0.1801   0.5033   0.9802     O
W      0.18068  0.35994  0.42442     W
W      0.18068  0.85994  0.07558     W
C       0.1842   0.2583   0.0274     C
C       0.1842   0.7583   0.4726     C
C       0.1885   0.2539   0.5453     C
C       0.1885   0.7539   0.9547     C
C       0.1892   0.4513   0.6307     C
C       0.1892   0.9513   0.8693     C
W      0.19028  0.42368  0.79078     W
W      0.19028  0.92368  0.70922     W
W      0.19361  0.11932  0.65144     W
W      0.19361  0.61932  0.84856     W
O       0.1959   0.0372   0.6113     O
O       0.1959   0.5372   0.8887     O
O       0.1965   0.4893   0.4936     O
O       0.1965   0.9893   0.0064     O
N       0.2033   0.4819   0.1452     N
N       0.2033   0.9819   0.3548     N
C       0.2035   0.2782   0.0662     C
C       0.2035   0.7782   0.4338     C
W      0.20763  0.02779  0.22724     W
W      0.20763  0.52779  0.27276     W
O       0.2078   0.3757   0.4861     O
O       0.2078   0.8757   0.0139     O
N       0.2083   0.2338   0.5065     N
N       0.2083   0.7338   0.9935     N
C       0.2125   0.2126   0.9548     C
C       0.2125   0.7126   0.5452     C
O       0.2132   0.1266   0.1344     O
O       0.2132   0.6266   0.3656     O
C       0.2135   0.0306   0.3773     C
C       0.2135   0.5306   0.1227     C
H       0.2178   0.0744   0.9153     H
H       0.2178   0.2887   0.6053     H
H       0.2178   0.5744   0.5847     H
H       0.2178   0.7887   0.8947     H
O       0.2234    0.467   0.3262     O
O       0.2234    0.967   0.1738     O
O        0.224   0.4783   0.7486     O
O        0.224   0.9783   0.7514     O
C       0.2242   0.0412   0.8987     C
C       0.2242   0.5412   0.6013     C
C       0.2267   0.2367   0.9979     C
C       0.2267   0.7367   0.5021     C
O       0.2292     0.35   0.6749     O
O       0.2292     0.85   0.8251     O
C       0.2294    0.392   0.1711     C
C       0.2294    0.892   0.3289     C
O       0.2307    0.076   0.7016     O
O       0.2307   0.3772   0.2794     O
O       0.2307    0.576   0.7984     O
O       0.2307   0.8772   0.2206     O
W       0.2311  0.43737   0.9939     W
W       0.2311  0.93737   0.5061     W
C       0.2324   0.2759   0.5772     C
C       0.2324   0.7759   0.9228     C
O       0.2337   0.3236   0.9157     O
O       0.2337   0.8236   0.5843     O
O       0.2374   0.0862   0.0363     O
O       0.2374   0.5862   0.4637     O
O       0.2471   0.4293   0.9191     O
O       0.2471   0.9293   0.5809     O
O       0.2472   0.1943   0.4279     O
O       0.2472   0.6943   0.0721     O
C         0.25   0.4445   0.1498     C
C         0.25   0.4445   0.6498     C
C         0.25   0.9445   0.3502     C
C         0.25   0.9445   0.8502     C
O       0.2528   0.1943   0.9279     O
O       0.2528   0.6943   0.5721     O
O       0.2529   0.4293   0.4191     O
O       0.2529   0.9293   0.0809     O
O       0.2626   0.0862   0.5363     O
O       0.2626   0.5862   0.9637     O
O       0.2663   0.3236   0.4157     O
O       0.2663   0.8236   0.0843     O
C       0.2676   0.2759   0.0772     C
C       0.2676   0.7759   0.4228     C
W       0.2689  0.43737   0.4939     W
W       0.2689  0.93737   0.0061     W
O       0.2693    0.076   0.2016     O
O       0.2693   0.3772   0.7794     O
O       0.2693    0.576   0.2984     O
O       0.2693   0.8772   0.7206     O
C       0.2706    0.392   0.6711     C
C       0.2706    0.892   0.8289     C
O       0.2708     0.35   0.1749     O
O       0.2708     0.85   0.3251     O
C       0.2733   0.2367   0.4979     C
C       0.2733   0.7367   0.0021     C
C       0.2758   0.0412   0.3987     C
C       0.2758   0.5412   0.1013     C
O        0.276   0.4783   0.2486     O
O        0.276   0.9783   0.2514     O
O       0.2766    0.467   0.8262     O
O       0.2766    0.967   0.6738     O
H       0.2822   0.0744   0.4153     H
H       0.2822   0.2887   0.1053     H
H       0.2822   0.5744   0.0847     H
H       0.2822   0.7887   0.3947     H
C       0.2865   0.0306   0.8773     C
C       0.2865   0.5306   0.6227     C
O       0.2868   0.1266   0.6344     O
O       0.2868   0.6266   0.8656     O
C       0.2875   0.2126   0.4548     C
C       0.2875   0.7126   0.0452     C
N       0.2917   0.2338   0.0065     N
N       0.2917   0.7338   0.4935     N
O       0.2922   0.3757   0.9861     O
O       0.2922   0.8757   0.5139     O
W      0.29237  0.02779  0.72724     W
W      0.29237  0.52779  0.77276     W
C       0.2965   0.2782   0.5662     C
C       0.2965   0.7782   0.9338     C
N       0.2967   0.4819   0.6452     N
N       0.2967   0.9819   0.8548     N
O       0.3035   0.4893   0.9936     O
O       0.3035   0.9893   0.5064     O
O       0.3041   0.0372   0.1113     O
O       0.3041   0.5372   0.3887     O
W      0.30639  0.11932  0.15144     W
W      0.30639  0.61932  0.34856     W
W      0.30972  0.42368  0.29078     W
W      0.30972  0.92368  0.20922     W
C       0.3108   0.4513   0.1307     C
C       0.3108   0.9513   0.3693     C
C       0.3115   0.2539   0.0453     C
C       0.3115   0.7539   0.4547     C
C       0.3158   0.2583   0.5274     C
C       0.3158   0.7583   0.9726     C
W      0.31932  0.35994  0.92442     W
W      0.31932  0.85994  0.57558     W
O       0.3199   0.0033   0.0198     O
O       0.3199   0.5033   0.4802     O
O       0.3215   0.3783   0.3454     O
O       0.3215   0.8783   0.1546     O
C       0.3255   0.0022   0.3946     C
C       0.3255   0.5022   0.1054     C
W      0.32567  0.07746  0.04726     W
W      0.32567  0.57746  0.45274     W
O       0.3257   0.3622    0.861     O
O       0.3257   0.8622    0.639     O
O        0.326   0.1408   0.0907     O
O        0.326   0.6408   0.4093     O
H       0.3265   0.2939   0.5864     H
H       0.3265   0.7939   0.9136     H
O       0.3287   0.3872   0.6829     O
O       0.3287   0.8872   0.8171     O
O        0.336   0.1132   0.9042     O
O        0.336   0.6132   0.5958     O
O       0.3384   0.0227   0.5992     O
O       0.3384   0.5227   0.9008     O
O       0.3386   0.3898   0.4722     O
O       0.3386   0.8898   0.0278     O
W      0.33874  0.37144  0.40767     W
W      0.33874  0.87144  0.09233     W
H       0.3423   0.4231   0.1341     H
H       0.3423   0.9231   0.3659     H
C       0.3431    0.066   0.8824     C
C       0.3431    0.566   0.6176     C
W      0.34826  0.40287  0.80564     W
W      0.34826  0.90287  0.69436     W
W      0.35034  0.05394  0.52804     W
W      0.35034  0.55394  0.97196     W
O       0.3515   0.2098   0.4442     O
O       0.3515   0.7098   0.0558     O
H       0.3528   0.0816    0.312     H
H       0.3528   0.5816    0.188     H
O       0.3542   0.0606   0.6874     O
O       0.3542   0.5606   0.8126     O
O       0.3548   0.4629   0.7607     O
O       0.3548   0.9629   0.7393     O
O       0.3585   0.1175   0.0029     O
O       0.3585   0.6175   0.4971     O
H         0.36   0.2592     0.52     H
H         0.36   0.7592     0.98     H
O       0.3603   0.2969   0.9367     O
O       0.3603   0.7969   0.5633     O
O       0.3656   0.4776   0.3186     O
O       0.3656   0.9776   0.1814     O
H       0.3664   0.0084   0.4074     H
H       0.3664   0.5084   0.0926     H
W      0.37018  0.09831  0.63131     W
W      0.37018  0.59831  0.86869     W
Pr     0.37827  0.19382   0.9479    Pr
Pr     0.37827  0.69382   0.5521    Pr
O       0.3806   0.1159   0.5672     O
O       0.3806   0.6159   0.9328     O
O       0.3852   0.4134   0.9271     O
O       0.3852   0.9134   0.5729     O
C       0.3854   0.2487   0.0514     C
C       0.3854   0.7487   0.4486     C
O       0.3878   0.0853   0.1602     O
O       0.3878   0.5853   0.3398     O
O       0.3889   0.4422      0.4     O
O       0.3889   0.9422      0.1     O
C        0.389   0.0739   0.2939     C
C        0.389   0.5739   0.2061     C
O       0.3942   0.0532   0.8627     O
H       0.3942   0.1506   0.2662     H
O       0.3942   0.5532   0.6373     O
H       0.3942   0.6506   0.2338     H
O       0.4027   0.2667    0.092     O
O       0.4027   0.7667    0.408     O
W      0.40296  0.01189  0.12824     W
W      0.40296  0.51189  0.37176     W
H       0.4033   0.4913    0.186     H
H       0.4033   0.9913    0.314     H
O       0.4072   0.4442   0.8444     O
O       0.4072   0.9442   0.6556     O
Pr     0.40874  0.46812  0.68292    Pr
Pr     0.40874  0.96812  0.81708    Pr
O       0.4112   0.0525   0.0734     O
O       0.4112   0.5525   0.4266     O
C       0.4135   0.1146   0.2667     C
C       0.4135   0.6146   0.2333     C
O       0.4163   0.1572   0.6488     O
O       0.4163   0.6572   0.8512     O
C       0.4182     0.02   0.2949     C
C       0.4182     0.52   0.2051     C
O       0.4185   0.2304    0.021     O
O       0.4185   0.7304    0.479     O
O       0.4275   0.0122   0.5394     O
O       0.4275   0.5122   0.9606     O
W      0.43416  0.47726  0.89959     W
W      0.43416  0.97726  0.60041     W
O        0.452   0.0486    0.625     O
O        0.452   0.5486    0.875     O
O       0.4575   0.0506   0.7726     O
O       0.4575   0.5506   0.7274     O
O       0.4598   0.3741   0.6815     O
O       0.4598   0.8741   0.8185     O
C       0.4653   0.1043   0.2402     C
C       0.4653   0.6043   0.2598     C
O       0.4714   0.1931   0.2019     O
O       0.4714   0.6931   0.2981     O
C       0.4715   0.0114   0.2654     C
C       0.4715   0.5114   0.2346     C
O       0.4836   0.0094   0.1429     O
O       0.4836   0.5094   0.3571     O
O       0.4841    0.416   0.2131     O
O       0.4841    0.916   0.2869     O
C       0.4929   0.1446   0.2058     C
C       0.4929   0.6446   0.2942     C
Pr     0.49349  0.27082  0.14481    Pr
Pr     0.49349  0.77082  0.35519    Pr
N       0.4942   0.0528   0.2396     N
N       0.4942   0.5528   0.2604     N
C       0.4971   0.0455   0.7413     C
C       0.4971   0.5455   0.7587     C
C       0.5029   0.4545   0.2413     C
C       0.5029   0.9545   0.2587     C
N       0.5058   0.4472   0.7396     N
N       0.5058   0.9472   0.7604     N
Pr     0.50651  0.22918  0.64481    Pr
Pr     0.50651  0.72918  0.85519    Pr
C       0.5071   0.3554   0.7058     C
C       0.5071   0.8554   0.7942     C
O       0.5159    0.084   0.7131     O
O       0.5159    0.584   0.7869     O
O       0.5164   0.4906   0.6429     O
O       0.5164   0.9906   0.8571     O
C       0.5285   0.4886   0.7654     C
C       0.5285   0.9886   0.7346     C
O       0.5286   0.3069   0.7019     O
O       0.5286   0.8069   0.7981     O
C       0.5347   0.3957   0.7402     C
C       0.5347   0.8957   0.7598     C
O       0.5402   0.1259   0.1815     O
O       0.5402   0.6259   0.3185     O
O       0.5425   0.4494   0.2726     O
O       0.5425   0.9494   0.2274     O
O        0.548   0.4514    0.125     O
O        0.548   0.9514    0.375     O
W      0.56584  0.02274  0.39959     W
W      0.56584  0.52274  0.10041     W
O       0.5725   0.4878   0.0394     O
O       0.5725   0.9878   0.4606     O
O       0.5815   0.2696    0.521     O
O       0.5815   0.7696    0.979     O
C       0.5818     0.48   0.7949     C
C       0.5818     0.98   0.7051     C
O       0.5837   0.3428   0.1488     O
O       0.5837   0.8428   0.3512     O
C       0.5865   0.3854   0.7667     C
C       0.5865   0.8854   0.7333     C
O       0.5888   0.4475   0.5734     O
O       0.5888   0.9475   0.9266     O
Pr     0.59126  0.03188  0.18292    Pr
Pr     0.59126  0.53188  0.31708    Pr
O       0.5928   0.0558   0.3444     O
O       0.5928   0.5558   0.1556     O
H       0.5967   0.0087    0.686     H
H       0.5967   0.5087    0.814     H
W      0.59704  0.48811  0.62824     W
W      0.59704  0.98811  0.87176     W
O       0.5973   0.2333    0.592     O
O       0.5973   0.7333    0.908     O
H       0.6058   0.3494   0.7662     H
O       0.6058   0.4468   0.3627     O
H       0.6058   0.8494   0.7338     H
O       0.6058   0.9468   0.1373     O
C        0.611   0.4261   0.7939     C
C        0.611   0.9261   0.7061     C
O       0.6111   0.0578      0.9     O
O       0.6111   0.5578      0.6     O
O       0.6122   0.4147   0.6602     O
O       0.6122   0.9147   0.8398     O
C       0.6146   0.2513   0.5514     C
C       0.6146   0.7513   0.9486     C
O       0.6148   0.0866   0.4271     O
O       0.6148   0.5866   0.0729     O
O       0.6194   0.3841   0.0672     O
O       0.6194   0.8841   0.4328     O
Pr     0.62173  0.30618   0.4479    Pr
Pr     0.62173  0.80618   0.0521    Pr
W      0.62982  0.40169  0.13131     W
W      0.62982  0.90169  0.36869     W
H       0.6336   0.4916   0.9074     H
H       0.6336   0.9916   0.5926     H
O       0.6344   0.0224   0.8186     O
O       0.6344   0.5224   0.6814     O
O       0.6397   0.2031   0.4367     O
O       0.6397   0.7031   0.0633     O
H         0.64   0.2408     0.02     H
H         0.64   0.7408     0.48     H
O       0.6415   0.3825   0.5029     O
O       0.6415   0.8825   0.9971     O
O       0.6452   0.0371   0.2607     O
O       0.6452   0.5371   0.2393     O
O       0.6458   0.4394   0.1874     O
O       0.6458   0.9394   0.3126     O
H       0.6472   0.4184    0.812     H
H       0.6472   0.9184    0.688     H
O       0.6485   0.2902   0.9442     O
O       0.6485   0.7902   0.5558     O
W      0.64966  0.44606  0.02804     W
W      0.64966  0.94606  0.47196     W
W      0.65174  0.09713  0.30564     W
W      0.65174  0.59713  0.19436     W
C       0.6569    0.434   0.3824     C
C       0.6569    0.934   0.1176     C
H       0.6577   0.0769   0.6341     H
H       0.6577   0.5769   0.8659     H
W      0.66126  0.12856  0.90767     W
W      0.66126  0.62856  0.59233     W
O       0.6614   0.1102   0.9722     O
O       0.6614   0.6102   0.5278     O
O       0.6616   0.4773   0.0992     O
O       0.6616   0.9773   0.4008     O
O        0.664   0.3868   0.4042     O
O        0.664   0.8868   0.0958     O
O       0.6713   0.1128   0.1829     O
O       0.6713   0.6128   0.3171     O
H       0.6735   0.2061   0.0864     H
H       0.6735   0.7061   0.4136     H
O        0.674   0.3592   0.5907     O
O        0.674   0.8592   0.9093     O
O       0.6743   0.1378    0.361     O
O       0.6743   0.6378    0.139     O
W      0.67433  0.42254  0.54726     W
W      0.67433  0.92254  0.95274     W
C       0.6745   0.4978   0.8946     C
C       0.6745   0.9978   0.6054     C
O       0.6785   0.1217   0.8454     O
O       0.6785   0.6217   0.6546     O
O       0.6801   0.4967   0.5198     O
O       0.6801   0.9967   0.9802     O
W      0.68068  0.14006  0.42442     W
W      0.68068  0.64006  0.07558     W
C       0.6842   0.2417   0.0274     C
C       0.6842   0.7417   0.4726     C
C       0.6885   0.2461   0.5453     C
C       0.6885   0.7461   0.9547     C
C       0.6892   0.0487   0.6307     C
C       0.6892   0.5487   0.8693     C
W      0.69028  0.07632  0.79078     W
W      0.69028  0.57632  0.70922     W
W      0.69361  0.38068  0.65144     W
W      0.69361  0.88068  0.84856     W
O       0.6959   0.4628   0.6113     O
O       0.6959   0.9628   0.8887     O
O       0.6965   0.0107   0.4936     O
O       0.6965   0.5107   0.0064     O
N       0.7033   0.0181   0.1452     N
N       0.7033   0.5181   0.3548     N
C       0.7035   0.2218   0.0662     C
C       0.7035   0.7218   0.4338     C
W      0.70763  0.47221  0.22724     W
W      0.70763  0.97221  0.27276     W
O       0.7078   0.1243   0.4861     O
O       0.7078   0.6243   0.0139     O
N       0.7083   0.2662   0.5065     N
N       0.7083   0.7662   0.9935     N
C       0.7125   0.2874   0.9548     C
C       0.7125   0.7874   0.5452     C
O       0.7132   0.3734   0.1344     O
O       0.7132   0.8734   0.3656     O
C       0.7135   0.4694   0.3773     C
C       0.7135   0.9694   0.1227     C
H       0.7178   0.2113   0.6053     H
H       0.7178   0.4256   0.9153     H
H       0.7178   0.7113   0.8947     H
H       0.7178   0.9256   0.5847     H
O       0.7234    0.033   0.3262     O
O       0.7234    0.533   0.1738     O
O        0.724   0.0217   0.7486     O
O        0.724   0.5217   0.7514     O
C       0.7242   0.4588   0.8987     C
C       0.7242   0.9588   0.6013     C
C       0.7267   0.2633   0.9979     C
C       0.7267   0.7633   0.5021     C
O       0.7292     0.15   0.6749     O
O       0.7292     0.65   0.8251     O
C       0.7294    0.108   0.1711     C
C       0.7294    0.608   0.3289     C
O       0.7307   0.1228   0.2794     O
O       0.7307    0.424   0.7016     O
O       0.7307   0.6228   0.2206     O
O       0.7307    0.924   0.7984     O
W       0.7311  0.06263   0.9939     W
W       0.7311  0.56263   0.5061     W
C       0.7324   0.2241   0.5772     C
C       0.7324   0.7241   0.9228     C
O       0.7337   0.1764   0.9157     O
O       0.7337   0.6764   0.5843     O
O       0.7374   0.4138   0.0363     O
O       0.7374   0.9138   0.4637     O
O       0.7471   0.0707   0.9191     O
O       0.7471   0.5707   0.5809     O
O       0.7472   0.3057   0.4279     O
O       0.7472   0.8057   0.0721     O
C         0.75   0.0555   0.1498     C
C         0.75   0.0555   0.6498     C
C         0.75   0.5555   0.3502     C
C         0.75   0.5555   0.8502     C
O       0.7528   0.3057   0.9279     O
O       0.7528   0.8057   0.5721     O
O       0.7529   0.0707   0.4191     O
O       0.7529   0.5707   0.0809     O
O       0.7626   0.4138   0.5363     O
O       0.7626   0.9138   0.9637     O
O       0.7663   0.1764   0.4157     O
O       0.7663   0.6764   0.0843     O
C       0.7676   0.2241   0.0772     C
C       0.7676   0.7241   0.4228     C
W       0.7689  0.06263   0.4939     W
W       0.7689  0.56263   0.0061     W
O       0.7693   0.1228   0.7794     O
O       0.7693    0.424   0.2016     O
O       0.7693   0.6228   0.7206     O
O       0.7693    0.924   0.2984     O
C       0.7706    0.108   0.6711     C
C       0.7706    0.608   0.8289     C
O       0.7708     0.15   0.1749     O
O       0.7708     0.65   0.3251     O
C       0.7733   0.2633   0.4979     C
C       0.7733   0.7633   0.0021     C
C       0.7758   0.4588   0.3987     C
C       0.7758   0.9588   0.1013     C
O        0.776   0.0217   0.2486     O
O        0.776   0.5217   0.2514     O
O       0.7766    0.033   0.8262     O
O       0.7766    0.533   0.6738     O
H       0.7822   0.2113   0.1053     H
H       0.7822   0.4256   0.4153     H
H       0.7822   0.7113   0.3947     H
H       0.7822   0.9256   0.0847     H
C       0.7865   0.4694   0.8773     C
C       0.7865   0.9694   0.6227     C
O       0.7868   0.3734   0.6344     O
O       0.7868   0.8734   0.8656     O
C       0.7875   0.2874   0.4548     C
C       0.7875   0.7874   0.0452     C
N       0.7917   0.2662   0.0065     N
N       0.7917   0.7662   0.4935     N
O       0.7922   0.1243   0.9861     O
O       0.7922   0.6243   0.5139     O
W      0.79237  0.47221  0.72724     W
W      0.79237  0.97221  0.77276     W
C       0.7965   0.2218   0.5662     C
C       0.7965   0.7218   0.9338     C
N       0.7967   0.0181   0.6452     N
N       0.7967   0.5181   0.8548     N
O       0.8035   0.0107   0.9936     O
O       0.8035   0.5107   0.5064     O
O       0.8041   0.4628   0.1113     O
O       0.8041   0.9628   0.3887     O
W      0.80639  0.38068  0.15144     W
W      0.80639  0.88068  0.34856     W
W      0.80972  0.07632  0.29078     W
W      0.80972  0.57632  0.20922     W
C       0.8108   0.0487   0.1307     C
C       0.8108   0.5487   0.3693     C
C       0.8115   0.2461   0.0453     C
C       0.8115   0.7461   0.4547     C
C       0.8158   0.2417   0.5274     C
C       0.8158   0.7417   0.9726     C
W      0.81932  0.14006  0.92442     W
W      0.81932  0.64006  0.57558     W
O       0.8199   0.4967   0.0198     O
O       0.8199   0.9967   0.4802     O
O       0.8215   0.1217   0.3454     O
O       0.8215   0.6217   0.1546     O
C       0.8255   0.4978   0.3946     C
C       0.8255   0.9978   0.1054     C
W      0.82567  0.42254  0.04726     W
W      0.82567  0.92254  0.45274     W
O       0.8257   0.1378    0.861     O
O       0.8257   0.6378    0.639     O
O        0.826   0.3592   0.0907     O
O        0.826   0.8592   0.4093     O
H       0.8265   0.2061   0.5864     H
H       0.8265   0.7061   0.9136     H
O       0.8287   0.1128   0.6829     O
O       0.8287   0.6128   0.8171     O
O        0.836   0.3868   0.9042     O
O        0.836   0.8868   0.5958     O
O       0.8384   0.4773   0.5992     O
O       0.8384   0.9773   0.9008     O
O       0.8386   0.1102   0.4722     O
O       0.8386   0.6102   0.0278     O
W      0.83874  0.12856  0.40767     W
W      0.83874  0.62856  0.09233     W
H       0.8423   0.0769   0.1341     H
H       0.8423   0.5769   0.3659     H
C       0.8431    0.434   0.8824     C
C       0.8431    0.934   0.6176     C
W      0.84826  0.09713  0.80564     W
W      0.84826  0.59713  0.69436     W
W      0.85034  0.44606  0.52804     W
W      0.85034  0.94606  0.97196     W
O       0.8515   0.2902   0.4442     O
O       0.8515   0.7902   0.0558     O
H       0.8528   0.4184    0.312     H
H       0.8528   0.9184    0.188     H
O       0.8542   0.4394   0.6874     O
O       0.8542   0.9394   0.8126     O
O       0.8548   0.0371   0.7607     O
O       0.8548   0.5371   0.7393     O
O       0.8585   0.3825   0.0029     O
O       0.8585   0.8825   0.4971     O
H         0.86   0.2408     0.52     H
H         0.86   0.7408     0.98     H
O       0.8603   0.2031   0.9367     O
O       0.8603   0.7031   0.5633     O
O       0.8656   0.0224   0.3186     O
O       0.8656   0.5224   0.1814     O
H       0.8664   0.4916   0.4074     H
H       0.8664   0.9916   0.0926     H
W      0.87018  0.40169  0.63131     W
W      0.87018  0.90169  0.86869     W
Pr     0.87827  0.30618   0.9479    Pr
Pr     0.87827  0.80618   0.5521    Pr
O       0.8806   0.3841   0.5672     O
O       0.8806   0.8841   0.9328     O
O       0.8852   0.0866   0.9271     O
O       0.8852   0.5866   0.5729     O
C       0.8854   0.2513   0.0514     C
C       0.8854   0.7513   0.4486     C
O       0.8878   0.4147   0.1602     O
O       0.8878   0.9147   0.3398     O
O       0.8889   0.0578      0.4     O
O       0.8889   0.5578      0.1     O
C        0.889   0.4261   0.2939     C
C        0.889   0.9261   0.2061     C
H       0.8942   0.3494   0.2662     H
O       0.8942   0.4468   0.8627     O
H       0.8942   0.8494   0.2338     H
O       0.8942   0.9468   0.6373     O
O       0.9027   0.2333    0.092     O
O       0.9027   0.7333    0.408     O
W      0.90296  0.48811  0.12824     W
W      0.90296  0.98811  0.37176     W
H       0.9033   0.0087    0.186     H
H       0.9033   0.5087    0.314     H
O       0.9072   0.0558   0.8444     O
O       0.9072   0.5558   0.6556     O
Pr     0.90874  0.03188  0.68292    Pr
Pr     0.90874  0.53188  0.81708    Pr
O       0.9112   0.4475   0.0734     O
O       0.9112   0.9475   0.4266     O
C       0.9135   0.3854   0.2667     C
C       0.9135   0.8854   0.2333     C
O       0.9163   0.3428   0.6488     O
O       0.9163   0.8428   0.8512     O
C       0.9182     0.48   0.2949     C
C       0.9182     0.98   0.2051     C
O       0.9185   0.2696    0.021     O
O       0.9185   0.7696    0.479     O
O       0.9275   0.4878   0.5394     O
O       0.9275   0.9878   0.9606     O
W      0.93416  0.02274  0.89959     W
W      0.93416  0.52274  0.60041     W
O        0.952   0.4514    0.625     O
O        0.952   0.9514    0.875     O
O       0.9575   0.4494   0.7726     O
O       0.9575   0.9494   0.7274     O
O       0.9598   0.1259   0.6815     O
O       0.9598   0.6259   0.8185     O
C       0.9653   0.3957   0.2402     C
C       0.9653   0.8957   0.2598     C
O       0.9714   0.3069   0.2019     O
O       0.9714   0.8069   0.2981     O
C       0.9715   0.4886   0.2654     C
C       0.9715   0.9886   0.2346     C
O       0.9836   0.4906   0.1429     O
O       0.9836   0.9906   0.3571     O
O       0.9841    0.084   0.2131     O
O       0.9841    0.584   0.2869     O
C       0.9929   0.3554   0.2058     C
C       0.9929   0.8554   0.2942     C
Pr     0.99349  0.22918  0.14481    Pr
Pr     0.99349  0.72918  0.35519    Pr
N       0.9942   0.4472   0.2396     N
N       0.9942   0.9472   0.2604     N
C       0.9971   0.4545   0.7413     C
C       0.9971   0.9545   0.7587     C
