data_I
_chemical_name_common  '/home/zhangsd/repos/MofS-CGCNN/ML/data/TSD/clean_cifs/EBEXAM_clean'
_cell_length_a 10.47100
_cell_length_b 10.47100
_cell_length_c 14.64500
_cell_angle_alpha 90.00000
_cell_angle_beta  90.00000
_cell_angle_gamma 90.00000
_space_group_name_H-M_alt      'P 1'


loop_
_space_group_symop_operation_xyz
  'x, y, z' 

loop_
_atom_site_label
_atom_site_fract_x
_atom_site_fract_y
_atom_site_fract_z
_atom_site_type_symbol
H          0.0   0.1095      0.0     H
C          0.0   0.1983      0.0     C
C          0.0   0.3873      0.5     C
C          0.0   0.4669      0.0     C
C          0.0   0.5331      0.5     C
C          0.0   0.6127      0.0     C
C          0.0   0.8017      0.5     C
H          0.0   0.8905      0.5     H
C       0.0376   0.2649   0.9206     C
C       0.0376   0.7351   0.5794     C
C       0.0384   0.3995   0.9209     C
C       0.0384   0.6005   0.5791     C
H       0.0643    0.444   0.8692     H
H       0.0643    0.556   0.6308     H
O       0.0686   0.3318   0.5592     O
O       0.0686   0.6682   0.9408     O
C       0.0755   0.1897   0.8367     C
C       0.0755   0.8103   0.6633     C
O       0.0757   0.2475   0.7607     O
O       0.0757   0.7525   0.7393     O
O       0.0762   0.1028    0.407     O
O       0.0762   0.8972    0.093     O
O       0.1028   0.0762    0.843     O
O       0.1028   0.9238    0.657     O
H       0.1095      0.0     0.25     H
Gd     0.14273  0.14273    0.625    Gd
Gd     0.14273  0.85727    0.875    Gd
C       0.1897   0.0755   0.4133     C
C       0.1897   0.9245   0.0867     C
C       0.1983      0.0     0.25     C
O       0.2475   0.0757   0.4893     O
O       0.2475   0.9243   0.0107     O
C       0.2649   0.0376   0.3294     C
C       0.2649   0.9624   0.1706     C
O       0.3318   0.0686   0.6908     O
O       0.3318   0.9314   0.8092     O
C       0.3873      0.0     0.75     C
C       0.3995   0.0384   0.3291     C
C       0.3995   0.9616   0.1709     C
H        0.444   0.0643   0.3808     H
H        0.444   0.9357   0.1192     H
C       0.4669      0.0     0.25     C
C       0.5331      0.0     0.75     C
H        0.556   0.0643   0.6192     H
H        0.556   0.9357   0.8808     H
C       0.6005   0.0384   0.6709     C
C       0.6005   0.9616   0.8291     C
C       0.6127      0.0     0.25     C
O       0.6682   0.0686   0.3092     O
O       0.6682   0.9314   0.1908     O
C       0.7351   0.0376   0.6706     C
C       0.7351   0.9624   0.8294     C
O       0.7525   0.0757   0.5107     O
O       0.7525   0.9243   0.9893     O
C       0.8017      0.0     0.75     C
C       0.8103   0.0755   0.5867     C
C       0.8103   0.9245   0.9133     C
Gd     0.85727  0.14273    0.375    Gd
Gd     0.85727  0.85727    0.125    Gd
H       0.8905      0.0     0.75     H
O       0.8972   0.0762    0.157     O
O       0.8972   0.9238    0.343     O
O       0.9238   0.1028    0.593     O
O       0.9238   0.8972    0.907     O
O       0.9243   0.2475   0.2393     O
O       0.9243   0.7525   0.2607     O
C       0.9245   0.1897   0.1633     C
C       0.9245   0.8103   0.3367     C
O       0.9314   0.3318   0.4408     O
O       0.9314   0.6682   0.0592     O
H       0.9357    0.444   0.1308     H
H       0.9357    0.556   0.3692     H
C       0.9616   0.3995   0.0791     C
C       0.9616   0.6005   0.4209     C
C       0.9624   0.2649   0.0794     C
C       0.9624   0.7351   0.4206     C
