data_I
_chemical_name_common  '/home/zhangsd/repos/MofS-CGCNN/ML/data/TSD/clean_cifs/EBINUA_clean'
_cell_length_a 13.14300
_cell_length_b 17.51300
_cell_length_c 25.34800
_cell_angle_alpha 90.00000
_cell_angle_beta  90.00000
_cell_angle_gamma 90.00000
_space_group_name_H-M_alt      'P 1'


loop_
_space_group_symop_operation_xyz
  'x, y, z' 

loop_
_atom_site_label
_atom_site_fract_x
_atom_site_fract_y
_atom_site_fract_z
_atom_site_type_symbol
C       0.0003   0.3161  0.96615     C
C       0.0003   0.4339  0.78385     C
C       0.0003   0.8161  0.46615     C
C       0.0003   0.9339  0.28385     C
H       0.0152   0.0478   0.0441     H
H       0.0152   0.2022   0.2059     H
H       0.0152   0.5478   0.5441     H
H       0.0152   0.7022   0.7059     H
N       0.0169  0.12092   0.6811     N
N       0.0169  0.12908   0.5689     N
N       0.0169  0.62092   0.1811     N
N       0.0169  0.62908   0.0689     N
H       0.0389   0.0216   0.7198     H
H       0.0389   0.2284   0.5302     H
H       0.0389   0.5216   0.2198     H
H       0.0389   0.7284   0.0302     H
C       0.0433    0.018   0.0148     C
C       0.0433    0.232   0.2352     C
C       0.0433    0.518   0.5148     C
C       0.0433    0.732   0.7352     C
C       0.0581    0.329   0.8087     C
C       0.0581    0.421   0.9413     C
C       0.0581    0.829   0.3087     C
C       0.0581    0.921   0.4413     C
H       0.0667   0.2835   0.8279     H
H       0.0667   0.4665   0.9221     H
H       0.0667   0.7835   0.3279     H
H       0.0667   0.9665   0.4221     H
H       0.0764   0.2593   0.0559     H
H       0.0764   0.4907   0.6941     H
H       0.0764   0.7593   0.5559     H
H       0.0764   0.9907   0.1941     H
H       0.0783   0.0537   0.9912     H
H       0.0783   0.1963   0.2588     H
H       0.0783   0.5537   0.4912     H
H       0.0783   0.6963   0.7588     H
N       0.0808  0.33332  0.99523     N
N       0.0808  0.41668  0.75477     N
N       0.0808  0.83332  0.49523     N
N       0.0808  0.91668  0.25477     N
H       0.0874   0.3221   0.1881     H
H       0.0874   0.4279   0.5619     H
H       0.0874   0.8221   0.6881     H
H       0.0874   0.9279   0.0619     H
N       0.1186   0.3489   0.7697     N
N       0.1186   0.4011   0.9803     N
N       0.1186   0.8489   0.2697     N
N       0.1186   0.9011   0.4803     N
C        0.121   0.2878  0.21325     C
C        0.121   0.4622  0.53675     C
C        0.121   0.7878  0.71325     C
C        0.121   0.9622  0.03675     C
Cu       0.125    0.125    0.625    Cu
Cu       0.125    0.625    0.125    Cu
C        0.129   0.2878  0.03675     C
C        0.129   0.4622  0.71325     C
C        0.129   0.7878  0.53675     C
C        0.129   0.9622  0.21325     C
N       0.1314   0.3489   0.4803     N
N       0.1314   0.4011   0.2697     N
N       0.1314   0.8489   0.9803     N
N       0.1314   0.9011   0.7697     N
H       0.1626   0.3221   0.0619     H
H       0.1626   0.4279   0.6881     H
H       0.1626   0.8221   0.5619     H
H       0.1626   0.9279   0.1881     H
N       0.1692  0.33332  0.25477     N
N       0.1692  0.41668  0.49523     N
N       0.1692  0.83332  0.75477     N
N       0.1692  0.91668  0.99523     N
H       0.1717   0.0537   0.2588     H
H       0.1717   0.1963   0.9912     H
H       0.1717   0.5537   0.7588     H
H       0.1717   0.6963   0.4912     H
H       0.1736   0.2593   0.1941     H
H       0.1736   0.4907   0.5559     H
H       0.1736   0.7593   0.6941     H
H       0.1736   0.9907   0.0559     H
H       0.1833   0.2835   0.4221     H
H       0.1833   0.4665   0.3279     H
H       0.1833   0.7835   0.9221     H
H       0.1833   0.9665   0.8279     H
C       0.1919    0.329   0.4413     C
C       0.1919    0.421   0.3087     C
C       0.1919    0.829   0.9413     C
C       0.1919    0.921   0.8087     C
C       0.2067    0.018   0.2352     C
C       0.2067    0.232   0.0148     C
C       0.2067    0.518   0.7352     C
C       0.2067    0.732   0.5148     C
H       0.2111   0.0216   0.5302     H
H       0.2111   0.2284   0.7198     H
H       0.2111   0.5216   0.0302     H
H       0.2111   0.7284   0.2198     H
N       0.2331  0.12092   0.5689     N
N       0.2331  0.12908   0.6811     N
N       0.2331  0.62092   0.0689     N
N       0.2331  0.62908   0.1811     N
H       0.2348   0.0478   0.2059     H
H       0.2348   0.2022   0.0441     H
H       0.2348   0.5478   0.7059     H
H       0.2348   0.7022   0.5441     H
C       0.2497   0.3161  0.28385     C
C       0.2497   0.4339  0.46615     C
C       0.2497   0.8161  0.78385     C
C       0.2497   0.9339  0.96615     C
C       0.2503   0.0661  0.53385     C
C       0.2503   0.1839  0.71615     C
C       0.2503   0.5661  0.03385     C
C       0.2503   0.6839  0.21615     C
H       0.2652   0.2978   0.9559     H
H       0.2652   0.4522   0.7941     H
H       0.2652   0.7978   0.4559     H
H       0.2652   0.9522   0.2941     H
N       0.2669  0.37092   0.3189     N
N       0.2669  0.37908   0.4311     N
N       0.2669  0.87092   0.8189     N
N       0.2669  0.87908   0.9311     N
H       0.2889   0.2716   0.2802     H
H       0.2889   0.4784   0.4698     H
H       0.2889   0.7716   0.7802     H
H       0.2889   0.9784   0.9698     H
C       0.2933    0.268   0.9852     C
C       0.2933    0.482   0.7648     C
C       0.2933    0.768   0.4852     C
C       0.2933    0.982   0.2648     C
C       0.3081    0.079   0.6913     C
C       0.3081    0.171   0.5587     C
C       0.3081    0.579   0.1913     C
C       0.3081    0.671   0.0587     C
H       0.3167   0.0335   0.6721     H
H       0.3167   0.2165   0.5779     H
H       0.3167   0.5335   0.1721     H
H       0.3167   0.7165   0.0779     H
H       0.3264   0.0093   0.4441     H
H       0.3264   0.2407   0.8059     H
H       0.3264   0.5093   0.9441     H
H       0.3264   0.7407   0.3059     H
H       0.3283   0.3037   0.0088     H
H       0.3283   0.4463   0.7412     H
H       0.3283   0.8037   0.5088     H
H       0.3283   0.9463   0.2412     H
N       0.3308  0.08332  0.50477     N
N       0.3308  0.16668  0.74523     N
N       0.3308  0.58332  0.00477     N
N       0.3308  0.66668  0.24523     N
H       0.3374   0.0721   0.3119     H
H       0.3374   0.1779   0.9381     H
H       0.3374   0.5721   0.8119     H
H       0.3374   0.6779   0.4381     H
N       0.3686   0.0989   0.7303     N
N       0.3686   0.1511   0.5197     N
N       0.3686   0.5989   0.2303     N
N       0.3686   0.6511   0.0197     N
C        0.371   0.0378  0.28675     C
C        0.371   0.2122  0.96325     C
C        0.371   0.5378  0.78675     C
C        0.371   0.7122  0.46325     C
Cu       0.375    0.375    0.375    Cu
Cu       0.375    0.875    0.875    Cu
C        0.379   0.0378  0.46325     C
C        0.379   0.2122  0.78675     C
C        0.379   0.5378  0.96325     C
C        0.379   0.7122  0.28675     C
N       0.3814   0.0989   0.0197     N
N       0.3814   0.1511   0.2303     N
N       0.3814   0.5989   0.5197     N
N       0.3814   0.6511   0.7303     N
H       0.4126   0.0721   0.4381     H
H       0.4126   0.1779   0.8119     H
H       0.4126   0.5721   0.9381     H
H       0.4126   0.6779   0.3119     H
N       0.4192  0.08332  0.24523     N
N       0.4192  0.16668  0.00477     N
N       0.4192  0.58332  0.74523     N
N       0.4192  0.66668  0.50477     N
H       0.4217   0.3037   0.7412     H
H       0.4217   0.4463   0.0088     H
H       0.4217   0.8037   0.2412     H
H       0.4217   0.9463   0.5088     H
H       0.4236   0.0093   0.3059     H
H       0.4236   0.2407   0.9441     H
H       0.4236   0.5093   0.8059     H
H       0.4236   0.7407   0.4441     H
H       0.4333   0.0335   0.0779     H
H       0.4333   0.2165   0.1721     H
H       0.4333   0.5335   0.5779     H
H       0.4333   0.7165   0.6721     H
C       0.4419    0.079   0.0587     C
C       0.4419    0.171   0.1913     C
C       0.4419    0.579   0.5587     C
C       0.4419    0.671   0.6913     C
C       0.4567    0.268   0.7648     C
C       0.4567    0.482   0.9852     C
C       0.4567    0.768   0.2648     C
C       0.4567    0.982   0.4852     C
H       0.4611   0.2716   0.4698     H
H       0.4611   0.4784   0.2802     H
H       0.4611   0.7716   0.9698     H
H       0.4611   0.9784   0.7802     H
N       0.4831  0.37092   0.4311     N
N       0.4831  0.37908   0.3189     N
N       0.4831  0.87092   0.9311     N
N       0.4831  0.87908   0.8189     N
H       0.4848   0.2978   0.7941     H
H       0.4848   0.4522   0.9559     H
H       0.4848   0.7978   0.2941     H
H       0.4848   0.9522   0.4559     H
C       0.4997   0.0661  0.21615     C
C       0.4997   0.1839  0.03385     C
C       0.4997   0.5661  0.71615     C
C       0.4997   0.6839  0.53385     C
C       0.5003   0.3161  0.46615     C
C       0.5003   0.4339  0.28385     C
C       0.5003   0.8161  0.96615     C
C       0.5003   0.9339  0.78385     C
H       0.5152   0.0478   0.5441     H
H       0.5152   0.2022   0.7059     H
H       0.5152   0.5478   0.0441     H
H       0.5152   0.7022   0.2059     H
N       0.5169  0.12092   0.1811     N
N       0.5169  0.12908   0.0689     N
N       0.5169  0.62092   0.6811     N
N       0.5169  0.62908   0.5689     N
H       0.5389   0.0216   0.2198     H
H       0.5389   0.2284   0.0302     H
H       0.5389   0.5216   0.7198     H
H       0.5389   0.7284   0.5302     H
C       0.5433    0.018   0.5148     C
C       0.5433    0.232   0.7352     C
C       0.5433    0.518   0.0148     C
C       0.5433    0.732   0.2352     C
C       0.5581    0.329   0.3087     C
C       0.5581    0.421   0.4413     C
C       0.5581    0.829   0.8087     C
C       0.5581    0.921   0.9413     C
H       0.5667   0.2835   0.3279     H
H       0.5667   0.4665   0.4221     H
H       0.5667   0.7835   0.8279     H
H       0.5667   0.9665   0.9221     H
H       0.5764   0.2593   0.5559     H
H       0.5764   0.4907   0.1941     H
H       0.5764   0.7593   0.0559     H
H       0.5764   0.9907   0.6941     H
H       0.5783   0.0537   0.4912     H
H       0.5783   0.1963   0.7588     H
H       0.5783   0.5537   0.9912     H
H       0.5783   0.6963   0.2588     H
N       0.5808  0.33332  0.49523     N
N       0.5808  0.41668  0.25477     N
N       0.5808  0.83332  0.99523     N
N       0.5808  0.91668  0.75477     N
H       0.5874   0.3221   0.6881     H
H       0.5874   0.4279   0.0619     H
H       0.5874   0.8221   0.1881     H
H       0.5874   0.9279   0.5619     H
N       0.6186   0.3489   0.2697     N
N       0.6186   0.4011   0.4803     N
N       0.6186   0.8489   0.7697     N
N       0.6186   0.9011   0.9803     N
C        0.621   0.2878  0.71325     C
C        0.621   0.4622  0.03675     C
C        0.621   0.7878  0.21325     C
C        0.621   0.9622  0.53675     C
Cu       0.625    0.125    0.125    Cu
Cu       0.625    0.625    0.625    Cu
C        0.629   0.2878  0.53675     C
C        0.629   0.4622  0.21325     C
C        0.629   0.7878  0.03675     C
C        0.629   0.9622  0.71325     C
N       0.6314   0.3489   0.9803     N
N       0.6314   0.4011   0.7697     N
N       0.6314   0.8489   0.4803     N
N       0.6314   0.9011   0.2697     N
H       0.6626   0.3221   0.5619     H
H       0.6626   0.4279   0.1881     H
H       0.6626   0.8221   0.0619     H
H       0.6626   0.9279   0.6881     H
N       0.6692  0.33332  0.75477     N
N       0.6692  0.41668  0.99523     N
N       0.6692  0.83332  0.25477     N
N       0.6692  0.91668  0.49523     N
H       0.6717   0.0537   0.7588     H
H       0.6717   0.1963   0.4912     H
H       0.6717   0.5537   0.2588     H
H       0.6717   0.6963   0.9912     H
H       0.6736   0.2593   0.6941     H
H       0.6736   0.4907   0.0559     H
H       0.6736   0.7593   0.1941     H
H       0.6736   0.9907   0.5559     H
H       0.6833   0.2835   0.9221     H
H       0.6833   0.4665   0.8279     H
H       0.6833   0.7835   0.4221     H
H       0.6833   0.9665   0.3279     H
C       0.6919    0.329   0.9413     C
C       0.6919    0.421   0.8087     C
C       0.6919    0.829   0.4413     C
C       0.6919    0.921   0.3087     C
C       0.7067    0.018   0.7352     C
C       0.7067    0.232   0.5148     C
C       0.7067    0.518   0.2352     C
C       0.7067    0.732   0.0148     C
H       0.7111   0.0216   0.0302     H
H       0.7111   0.2284   0.2198     H
H       0.7111   0.5216   0.5302     H
H       0.7111   0.7284   0.7198     H
N       0.7331  0.12092   0.0689     N
N       0.7331  0.12908   0.1811     N
N       0.7331  0.62092   0.5689     N
N       0.7331  0.62908   0.6811     N
H       0.7348   0.0478   0.7059     H
H       0.7348   0.2022   0.5441     H
H       0.7348   0.5478   0.2059     H
H       0.7348   0.7022   0.0441     H
C       0.7497   0.3161  0.78385     C
C       0.7497   0.4339  0.96615     C
C       0.7497   0.8161  0.28385     C
C       0.7497   0.9339  0.46615     C
C       0.7503   0.0661  0.03385     C
C       0.7503   0.1839  0.21615     C
C       0.7503   0.5661  0.53385     C
C       0.7503   0.6839  0.71615     C
H       0.7652   0.2978   0.4559     H
H       0.7652   0.4522   0.2941     H
H       0.7652   0.7978   0.9559     H
H       0.7652   0.9522   0.7941     H
N       0.7669  0.37092   0.8189     N
N       0.7669  0.37908   0.9311     N
N       0.7669  0.87092   0.3189     N
N       0.7669  0.87908   0.4311     N
H       0.7889   0.2716   0.7802     H
H       0.7889   0.4784   0.9698     H
H       0.7889   0.7716   0.2802     H
H       0.7889   0.9784   0.4698     H
C       0.7933    0.268   0.4852     C
C       0.7933    0.482   0.2648     C
C       0.7933    0.768   0.9852     C
C       0.7933    0.982   0.7648     C
C       0.8081    0.079   0.1913     C
C       0.8081    0.171   0.0587     C
C       0.8081    0.579   0.6913     C
C       0.8081    0.671   0.5587     C
H       0.8167   0.0335   0.1721     H
H       0.8167   0.2165   0.0779     H
H       0.8167   0.5335   0.6721     H
H       0.8167   0.7165   0.5779     H
H       0.8264   0.0093   0.9441     H
H       0.8264   0.2407   0.3059     H
H       0.8264   0.5093   0.4441     H
H       0.8264   0.7407   0.8059     H
H       0.8283   0.3037   0.5088     H
H       0.8283   0.4463   0.2412     H
H       0.8283   0.8037   0.0088     H
H       0.8283   0.9463   0.7412     H
N       0.8308  0.08332  0.00477     N
N       0.8308  0.16668  0.24523     N
N       0.8308  0.58332  0.50477     N
N       0.8308  0.66668  0.74523     N
H       0.8374   0.0721   0.8119     H
H       0.8374   0.1779   0.4381     H
H       0.8374   0.5721   0.3119     H
H       0.8374   0.6779   0.9381     H
N       0.8686   0.0989   0.2303     N
N       0.8686   0.1511   0.0197     N
N       0.8686   0.5989   0.7303     N
N       0.8686   0.6511   0.5197     N
C        0.871   0.0378  0.78675     C
C        0.871   0.2122  0.46325     C
C        0.871   0.5378  0.28675     C
C        0.871   0.7122  0.96325     C
Cu       0.875    0.375    0.875    Cu
Cu       0.875    0.875    0.375    Cu
C        0.879   0.0378  0.96325     C
C        0.879   0.2122  0.28675     C
C        0.879   0.5378  0.46325     C
C        0.879   0.7122  0.78675     C
N       0.8814   0.0989   0.5197     N
N       0.8814   0.1511   0.7303     N
N       0.8814   0.5989   0.0197     N
N       0.8814   0.6511   0.2303     N
H       0.9126   0.0721   0.9381     H
H       0.9126   0.1779   0.3119     H
H       0.9126   0.5721   0.4381     H
H       0.9126   0.6779   0.8119     H
N       0.9192  0.08332  0.74523     N
N       0.9192  0.16668  0.50477     N
N       0.9192  0.58332  0.24523     N
N       0.9192  0.66668  0.00477     N
H       0.9217   0.3037   0.2412     H
H       0.9217   0.4463   0.5088     H
H       0.9217   0.8037   0.7412     H
H       0.9217   0.9463   0.0088     H
H       0.9236   0.0093   0.8059     H
H       0.9236   0.2407   0.4441     H
H       0.9236   0.5093   0.3059     H
H       0.9236   0.7407   0.9441     H
H       0.9333   0.0335   0.5779     H
H       0.9333   0.2165   0.6721     H
H       0.9333   0.5335   0.0779     H
H       0.9333   0.7165   0.1721     H
C       0.9419    0.079   0.5587     C
C       0.9419    0.171   0.6913     C
C       0.9419    0.579   0.0587     C
C       0.9419    0.671   0.1913     C
C       0.9567    0.268   0.2648     C
C       0.9567    0.482   0.4852     C
C       0.9567    0.768   0.7648     C
C       0.9567    0.982   0.9852     C
H       0.9611   0.2716   0.9698     H
H       0.9611   0.4784   0.7802     H
H       0.9611   0.7716   0.4698     H
H       0.9611   0.9784   0.2802     H
N       0.9831  0.37092   0.9311     N
N       0.9831  0.37908   0.8189     N
N       0.9831  0.87092   0.4311     N
N       0.9831  0.87908   0.3189     N
H       0.9848   0.2978   0.2941     H
H       0.9848   0.4522   0.4559     H
H       0.9848   0.7978   0.7941     H
H       0.9848   0.9522   0.9559     H
C       0.9997   0.0661  0.71615     C
C       0.9997   0.1839  0.53385     C
C       0.9997   0.5661  0.21615     C
C       0.9997   0.6839  0.03385     C
