data_I
_chemical_name_common  '/home/zhangsd/repos/MofS-CGCNN/ML/data/TSD/clean_cifs/EBIPIQ_clean'
_cell_length_a  7.57980
_cell_length_b  8.78490
_cell_length_c 19.05600
_cell_angle_alpha 94.15400
_cell_angle_beta  96.89000
_cell_angle_gamma 112.58000
_space_group_name_H-M_alt      'P 1'


loop_
_space_group_symop_operation_xyz
  'x, y, z' 

loop_
_atom_site_label
_atom_site_fract_x
_atom_site_fract_y
_atom_site_fract_z
_atom_site_type_symbol
Cu      0.0051  0.29536   0.3489    Cu
H       0.0084   0.3415   0.9892     H
C       0.0211    0.556   0.1025     C
H       0.0309   0.2641   0.7362     H
C       0.0395   0.0193   0.5916     C
N       0.0397   0.8764   0.4259     N
C       0.0467   0.5796   0.0259     C
C        0.058   0.0182   0.8033     C
N       0.0679   0.1018   0.3729     N
H       0.0826   0.6641   0.1324     H
O       0.0833   0.5378  0.68822     O
H       0.0858   0.4849   0.1195     H
O       0.0984   0.9012   0.8193     O
O          0.1   0.9658  0.19131     O
C       0.1596   0.2733   0.7408     C
H       0.1602   0.0282   0.5803     H
N       0.1836   0.5197   0.8901     N
H       0.1855    0.629   0.0236     H
N       0.2079   0.9342   0.3977     N
C       0.2092   0.1573   0.7751     C
C       0.2228   0.0676   0.3669     C
H       0.2235   0.7258   0.8418     H
C       0.2338   0.5182   0.6742     C
O       0.2667    0.457  0.34674     O
C       0.2786   0.6564   0.8617     C
H       0.2846   0.7386   0.4004     H
C       0.2927   0.4009   0.7134     C
O       0.3042   0.3011   0.2589     O
N       0.3072   0.4492   0.9149     N
Cu        0.32  0.14529  0.16641    Cu
H       0.3265   0.1289   0.3442     H
H       0.3355   0.6916   0.2435     H
O       0.3364   0.5922   0.6301     O
C       0.3498   0.8598   0.4111     C
H       0.3516   0.8587   0.5191     H
C       0.3531   0.4337   0.2975     C
C       0.4021   0.1713   0.7816     C
H       0.4134   0.4674   0.0893     H
H       0.4471   0.8988   0.3798     H
C       0.4487   0.9062   0.4884     C
H       0.4563    0.144   0.5044     H
N       0.4623   0.6789   0.8661     N
C       0.4637      0.7   0.2466     C
C       0.4712   0.5486   0.8996     C
O        0.472   0.9116  0.11434     O
C       0.4786   0.0602   0.8204     C
C       0.4847   0.4154   0.7209     C
O        0.494   0.0515  0.21956     O
O        0.506   0.9485  0.78044     O
C       0.5153   0.5846   0.2791     C
C       0.5214   0.9398   0.1796     C
O        0.528   0.0884  0.88566     O
C       0.5288   0.4514   0.1004     C
C       0.5363      0.3   0.7534     C
N       0.5377   0.3211   0.1339     N
H       0.5437    0.856   0.4956     H
C       0.5513   0.0938   0.5116     C
H       0.5529   0.1012   0.6202     H
H       0.5866   0.5326   0.9107     H
C       0.5979   0.8287   0.2184     C
C       0.6469   0.5663   0.7025     C
H       0.6484   0.1413   0.4809     H
C       0.6502   0.1402   0.5889     C
O       0.6636   0.4078   0.3699     O
H       0.6645   0.3084   0.7565     H
H       0.6735   0.8711   0.6558     H
Cu        0.68  0.85471  0.83359    Cu
N       0.6928   0.5508   0.0851     N
O       0.6958   0.6989   0.7411     O
C       0.7073   0.5991   0.2866     C
H       0.7154   0.2614   0.5996     H
C       0.7214   0.3436   0.1383     C
O       0.7333    0.543  0.65326     O
C       0.7662   0.4818   0.3258     C
H       0.7765   0.2742   0.1582     H
C       0.7772   0.9324   0.6331     C
C       0.7908   0.8427   0.2249     C
N       0.7921   0.0658   0.6023     N
H       0.8145    0.371   0.9764     H
N       0.8164   0.4803   0.1099     N
H       0.8398   0.9718   0.4197     H
C       0.8404   0.7267   0.2592     C
O          0.9   0.0342  0.80869     O
O       0.9016   0.0988   0.1807     O
H       0.9142   0.5151   0.8805     H
O       0.9167   0.4622  0.31178     O
H       0.9174   0.3359   0.8676     H
N       0.9321   0.8982   0.6271     N
C        0.942   0.9818   0.1967     C
C       0.9533   0.4204   0.9741     C
N       0.9603   0.1236   0.5741     N
C       0.9605   0.9807   0.4084     C
H       0.9691   0.7359   0.2638     H
C       0.9789    0.444   0.8975     C
H       0.9916   0.6585   0.0108     H
Cu      0.9949  0.70464   0.6511    Cu
