data_I
_chemical_name_common  '/home/zhangsd/repos/MofS-CGCNN/ML/data/TSD/clean_cifs/EBOTOF_clean'
_cell_length_a 12.05910
_cell_length_b 19.16470
_cell_length_c  4.91140
_cell_angle_alpha 90.00000
_cell_angle_beta  90.00000
_cell_angle_gamma 90.00000
_space_group_name_H-M_alt      'P 1'


loop_
_space_group_symop_operation_xyz
  'x, y, z' 

loop_
_atom_site_label
_atom_site_fract_x
_atom_site_fract_y
_atom_site_fract_z
_atom_site_type_symbol
Al         0.0      0.0      0.0    Al
Al         0.0      0.5      0.0    Al
O        0.003  0.08533   0.2003     O
O        0.003  0.41467   0.2003     O
C       0.0124     0.25   0.4514     C
P      0.01543  0.10471   0.5024     P
P      0.01543  0.39529   0.5024     P
O       0.0413   0.5492   0.3172     O
O       0.0413   0.9508   0.3172     O
C       0.0516  0.68758   0.4408     C
C       0.0516  0.81242   0.4408     C
O       0.1424   0.1102   0.5344     O
O       0.1424   0.3898   0.5344     O
F       0.1461   0.0135   0.9263     F
F       0.1461   0.4865   0.9263     F
Al        0.25  0.06234   0.7337    Al
Al        0.25  0.43766   0.7337    Al
F       0.3539   0.0135   0.9263     F
F       0.3539   0.4865   0.9263     F
O       0.3576   0.1102   0.5344     O
O       0.3576   0.3898   0.5344     O
C       0.4484  0.68758   0.4408     C
C       0.4484  0.81242   0.4408     C
O       0.4587   0.5492   0.3172     O
O       0.4587   0.9508   0.3172     O
P      0.48457  0.10471   0.5024     P
P      0.48457  0.39529   0.5024     P
C       0.4876     0.25   0.4514     C
O        0.497  0.08533   0.2003     O
O        0.497  0.41467   0.2003     O
Al         0.5      0.0      0.0    Al
Al         0.5      0.5      0.0    Al
O        0.503  0.58533   0.7997     O
O        0.503  0.91467   0.7997     O
C       0.5124     0.75   0.5486     C
P      0.51543  0.60471   0.4976     P
P      0.51543  0.89529   0.4976     P
O       0.5413   0.0492   0.6828     O
O       0.5413   0.4508   0.6828     O
C       0.5516  0.18758   0.5592     C
C       0.5516  0.31242   0.5592     C
O       0.6424   0.6102   0.4656     O
O       0.6424   0.8898   0.4656     O
F       0.6461   0.5135   0.0737     F
F       0.6461   0.9865   0.0737     F
Al        0.75  0.56234   0.2663    Al
Al        0.75  0.93766   0.2663    Al
F       0.8539   0.5135   0.0737     F
F       0.8539   0.9865   0.0737     F
O       0.8576   0.6102   0.4656     O
O       0.8576   0.8898   0.4656     O
C       0.9484  0.18758   0.5592     C
C       0.9484  0.31242   0.5592     C
O       0.9587   0.0492   0.6828     O
O       0.9587   0.4508   0.6828     O
P      0.98457  0.60471   0.4976     P
P      0.98457  0.89529   0.4976     P
C       0.9876     0.75   0.5486     C
O        0.997  0.58533   0.7997     O
O        0.997  0.91467   0.7997     O
