data_I
_chemical_name_common  '/home/zhangsd/repos/MofS-CGCNN/ML/data/TSD/clean_cifs/EBUREA_clean'
_cell_length_a  7.24700
_cell_length_b 15.58730
_cell_length_c 19.33700
_cell_angle_alpha 106.36900
_cell_angle_beta  90.00000
_cell_angle_gamma 103.44200
_space_group_name_H-M_alt      'P 1'


loop_
_space_group_symop_operation_xyz
  'x, y, z' 

loop_
_atom_site_label
_atom_site_fract_x
_atom_site_fract_y
_atom_site_fract_z
_atom_site_type_symbol
H       0.0018    0.459   0.3709     H
H       0.0151   0.2386   0.9058     H
H       0.0192   0.9826   0.3225     H
C        0.021   0.9808   0.2153     C
O      0.02976  0.67532   0.7308     O
C       0.0448   0.4164   0.9692     C
O      0.04691  0.50122   0.9862     O
O      0.06001  0.36402   0.1649     O
C       0.0718   0.4028   0.2322     C
O      0.07573  0.37686   0.0164     O
O      0.11784  0.68128   0.1072     O
N       0.1216   0.0762   0.2251     N
O      0.16657  0.48394   0.2631     O
Mn     0.16927  0.56908  0.73072    Mn
N       0.1799   0.1194   0.2886     N
O      0.18126  0.63892    0.204     O
C       0.1995   0.6974   0.1685     C
H       0.2235   0.2386   0.4058     H
C       0.2725   0.2148    0.302     C
C       0.2777    0.266   0.3714     C
O      0.30113  0.37686   0.5164     O
O      0.30401  0.36402   0.6649     O
C       0.3161   0.7932   0.2022     C
O      0.31737  0.48394   0.7631     O
H       0.3269   0.7882   0.3062     H
C        0.331   0.4028   0.7322     C
H       0.3401   0.8318   0.1098     H
H       0.3467   0.2288   0.7028     H
C       0.3632    0.827   0.2774     C
C       0.3645   0.3608   0.3919     C
C       0.3656   0.2532   0.2493     C
H       0.3685   0.2166   0.2023     H
C       0.3716   0.4164   0.4692     C
C       0.3716    0.853   0.1593     C
C       0.3858   0.2582   0.7513     C
C       0.3904   0.3516   0.7804     C
Mn     0.39981  0.56908  0.23072    Mn
N       0.4356   0.1156   0.7611     N
C       0.4398   0.2084   0.7947     C
H       0.4474   0.9378   0.8581     H
N       0.4476   0.0678   0.8017     N
C       0.4485   0.4014    0.341     C
C       0.4527    0.347   0.2697     C
C       0.4537   0.3968   0.8522     C
O      0.45431  0.50122   0.4862     O
C       0.4547   0.9164   0.8084     C
C       0.4565   0.9758   0.7658     C
H       0.4572    0.459   0.8709     H
O      0.45766  0.63892    0.704     O
H       0.4613   0.7882   0.8062     H
C       0.4617   0.9164   0.3084     C
C       0.4638    0.827   0.7774     C
C       0.4702   0.9438   0.6907     C
H       0.4719    0.983   0.6621     H
C       0.4736   0.9438   0.1907     C
C       0.4771   0.7932   0.7022     C
C       0.4814    0.853   0.6593     C
H       0.4904   0.9378   0.3581     H
H       0.4917   0.8318   0.6098     H
C       0.4979   0.6974   0.6685     C
H        0.502   0.4644    0.354     H
C       0.5041   0.2552    0.868     C
H       0.5111    0.983   0.1621     H
C       0.5117   0.3504   0.8962     C
Mn     0.51491  0.35366  0.58992    Mn
C       0.5193   0.9758   0.2658     C
H       0.5412   0.2234   0.8974     H
C       0.5601    0.392   0.2161     C
O      0.56344  0.68128   0.6072     O
C       0.6005      0.4   0.9694     C
O      0.60197  0.47834    0.232     O
O      0.60273  0.33826   0.1592     O
N       0.6202   0.0678   0.3017     N
O      0.62028  0.48636   0.9914     O
O      0.63553  0.50966   0.6374     O
O      0.64556  0.67532   0.2308     O
O      0.65539  0.35418   0.0064     O
O       0.6722   0.6524   0.1127     O
N         0.68   0.1156   0.2611     N
H       0.6822   0.2234   0.3974     H
O      0.69879  0.35418   0.5064     O
C       0.7031   0.7012   0.1758     C
Mn     0.71344  0.58406  0.54905    Mn
O      0.73553  0.33826   0.6592     O
C       0.7511   0.2552    0.368     C
C       0.7686   0.2084   0.2947     C
C       0.7995      0.4   0.4694     C
H       0.8171   0.8014   0.0871     H
C       0.8194   0.7998   0.1909     C
C       0.8319    0.392   0.7161     C
C       0.8387   0.3504   0.3962     C
Mn     0.83875  0.35366  0.08992    Mn
H       0.8427   0.8306   0.3001     H
H       0.8481   0.2166   0.7023     H
C       0.8602   0.8372    0.134     C
O      0.86608  0.48636   0.4914     O
Mn     0.87062  0.58406  0.04905    Mn
C       0.8724   0.2582   0.2513     C
O      0.87413  0.50966   0.1374     O
C       0.8752    0.855   0.2617     C
O      0.87637  0.47834    0.732     O
H       0.8821   0.2288   0.2028     H
C       0.8876   0.2532   0.7493     C
C       0.8943    0.347   0.7697     C
N       0.9395   0.1194   0.7886     N
C       0.9423   0.2148    0.802     C
C       0.9431   0.3968   0.3522     C
C       0.9529   0.4014    0.841     C
N       0.9546   0.0762   0.7251     N
H       0.9556   0.9512   0.6075     H
C       0.9598   0.9808   0.7153     C
C       0.9612   0.3516   0.2804     C
H       0.9624   0.4644    0.854     H
C       0.9629   0.9274   0.6461     C
H       0.9634   0.9826   0.8225     H
C       0.9645   0.9274   0.1461     C
C       0.9671    0.946   0.7756     C
C        0.977   0.8372    0.634     C
C       0.9789    0.946   0.2756     C
C       0.9798    0.855   0.7617     C
O       0.9802   0.6524   0.6127     O
C       0.9804   0.7998   0.6909     C
H       0.9843   0.8014   0.5871     H
H       0.9879   0.8306   0.8001     H
C       0.9883    0.266   0.8714     C
H       0.9956   0.9512   0.1075     H
C       0.9963   0.3608   0.8919     C
C       0.9981   0.7012   0.6758     C
