data_I
_chemical_name_common  '/home/zhangsd/repos/MofS-CGCNN/ML/data/TSD/clean_cifs/ECOROD_clean'
_cell_length_a  7.79900
_cell_length_b  9.21200
_cell_length_c 10.78400
_cell_angle_alpha 107.59500
_cell_angle_beta  92.87700
_cell_angle_gamma 110.24800
_space_group_name_H-M_alt      'P 1'


loop_
_space_group_symop_operation_xyz
  'x, y, z' 

loop_
_atom_site_label
_atom_site_fract_x
_atom_site_fract_y
_atom_site_fract_z
_atom_site_type_symbol
Co         0.0      0.0      0.0    Co
H       0.0313   0.5719   0.3689     H
H       0.0649   0.6078   0.1378     H
C       0.0768   0.3443   0.1681     C
O       0.0932    0.682   0.8467     O
O       0.1041   0.9072   0.1295     O
H        0.122   0.8542    0.357     H
O       0.1305   0.8861   0.6165     O
O       0.1461   0.2378   0.1215     O
H       0.1566   0.0036   0.7841     H
C       0.1577   0.5843    0.379     C
H       0.1765    0.522   0.4307     H
C       0.1921   0.6261   0.1591     C
C       0.2083   0.5215   0.2424     C
O       0.2139    0.027   0.8715     O
H       0.2387   0.5927     0.08     H
C       0.2491   0.8686   0.3672     C
C        0.251   0.8259   0.5894     C
C       0.2599   0.8994   0.1419     C
C       0.2817   0.7668    0.448     C
C       0.3016    0.812   0.2313     C
H       0.3033   0.1366   0.9042     H
H       0.3235   0.9816   0.4117     H
Co     0.34848  0.85916  0.87049    Co
O       0.3519   0.8089   0.6746     O
O       0.3844    0.953   0.0762     O
O       0.6156    0.047   0.9238     O
O       0.6481   0.1911   0.3254     O
Co     0.65152  0.14084  0.12951    Co
H       0.6765   0.0184   0.5883     H
H       0.6967   0.8634   0.0958     H
C       0.6984    0.188   0.7687     C
C       0.7183   0.2332    0.552     C
C       0.7401   0.1006   0.8581     C
C        0.749   0.1741   0.4106     C
C       0.7509   0.1314   0.6328     C
H       0.7613   0.4073     0.92     H
O       0.7861    0.973   0.1285     O
C       0.7917   0.4785   0.7576     C
C       0.8079   0.3739   0.8409     C
H       0.8235    0.478   0.5693     H
C       0.8423   0.4157    0.621     C
H       0.8434   0.9964   0.2159     H
O       0.8539   0.7622   0.8785     O
O       0.8695   0.1139   0.3835     O
H        0.878   0.1458    0.643     H
O       0.8959   0.0928   0.8705     O
O       0.9068    0.318   0.1533     O
C       0.9232   0.6557   0.8319     C
H       0.9351   0.3922   0.8622     H
H       0.9687   0.4281   0.6311     H
