data_I
_chemical_name_common  '/home/zhangsd/repos/MofS-CGCNN/ML/data/TSD/clean_cifs/ECOSIY_clean'
_cell_length_a  8.30300
_cell_length_b  8.30300
_cell_length_c 20.33400
_cell_angle_alpha 90.00000
_cell_angle_beta  90.00000
_cell_angle_gamma 120.00000
_space_group_name_H-M_alt      'P 1'


loop_
_space_group_symop_operation_xyz
  'x, y, z' 

loop_
_atom_site_label
_atom_site_fract_x
_atom_site_fract_y
_atom_site_fract_z
_atom_site_type_symbol
Co         0.0      0.0  0.08472    Co
N          0.0      0.0   0.1855     N
N          0.0      0.0   0.3145     N
Co         0.0      0.0  0.41528    Co
Co         0.0      0.0  0.58472    Co
N          0.0      0.0   0.6855     N
N          0.0      0.0   0.8145     N
Co         0.0      0.0  0.91528    Co
C       0.0238   0.1785   0.7129     C
C       0.0238   0.8453   0.2129     C
O       0.0535   0.2499   0.4405     O
O       0.0535   0.8036   0.9405     O
H       0.0575   0.2696   0.8101     H
H       0.0575   0.7879   0.3101     H
H        0.085    0.305     0.41     H
H        0.085     0.78     0.91     H
O       0.1016   0.4771  0.54738     O
O       0.1016   0.6245  0.04738     O
H       0.1028   0.4773   0.5966     H
H       0.1028   0.6255   0.0966     H
H       0.1265   0.2776   0.2066     H
H       0.1265   0.8489   0.7066     H
Co     0.13692  0.42224  0.99934    Co
Co     0.13692  0.71468  0.49934    Co
H       0.1511   0.2776   0.7066     H
H       0.1511   0.8735   0.2066     H
C       0.1547   0.1785   0.2129     C
C       0.1547   0.9762   0.7129     C
C       0.1785   0.0238   0.7871     C
C       0.1785   0.1547   0.2871     C
O       0.1964   0.2499   0.9405     O
O       0.1964   0.9465   0.4405     O
H       0.2121   0.2696   0.3101     H
H       0.2121   0.9425   0.8101     H
H         0.22    0.305     0.91     H
H         0.22    0.915     0.41     H
O       0.2499   0.0535   0.0595     O
O       0.2499   0.1964   0.5595     O
H       0.2696   0.0575   0.6899     H
H       0.2696   0.2121   0.1899     H
H       0.2776   0.1265   0.2934     H
H       0.2776   0.1511   0.7934     H
Co     0.28532  0.42224  0.49934    Co
Co     0.28532  0.86308  0.99934    Co
H        0.305    0.085     0.09     H
H        0.305     0.22     0.59     H
H       0.3745   0.4773   0.0966     H
H       0.3745   0.8972   0.5966     H
O       0.3755   0.4771  0.04738     O
O       0.3755   0.8984  0.54738     O
Co     0.42224  0.13692  0.50066    Co
Co     0.42224  0.28532  0.00066    Co
O       0.4771   0.1016  0.95262     O
O       0.4771   0.3755  0.45262     O
H       0.4773   0.1028   0.9034     H
H       0.4773   0.3745   0.4034     H
H       0.5227   0.6255   0.5966     H
H       0.5227   0.8972   0.0966     H
O       0.5229   0.6245  0.54738     O
O       0.5229   0.8984  0.04738     O
Co     0.57776  0.71468  0.99934    Co
Co     0.57776  0.86308  0.49934    Co
O       0.6245   0.1016  0.45262     O
O       0.6245   0.5229  0.95262     O
H       0.6255   0.1028   0.4034     H
H       0.6255   0.5227   0.9034     H
H        0.695     0.78     0.41     H
H        0.695    0.915     0.91     H
Co     0.71468  0.13692  0.00066    Co
Co     0.71468  0.57776  0.50066    Co
H       0.7224   0.8489   0.2066     H
H       0.7224   0.8735   0.7066     H
H       0.7304   0.7879   0.8101     H
H       0.7304   0.9425   0.3101     H
O       0.7501   0.8036   0.4405     O
O       0.7501   0.9465   0.9405     O
H         0.78    0.085     0.59     H
H         0.78    0.695     0.09     H
H       0.7879   0.0575   0.1899     H
H       0.7879   0.7304   0.6899     H
O       0.8036   0.0535   0.5595     O
O       0.8036   0.7501   0.0595     O
C       0.8215   0.8453   0.7129     C
C       0.8215   0.9762   0.2129     C
C       0.8453   0.0238   0.2871     C
C       0.8453   0.8215   0.7871     C
H       0.8489   0.1265   0.7934     H
H       0.8489   0.7224   0.2934     H
Co     0.86308  0.28532  0.50066    Co
Co     0.86308  0.57776  0.00066    Co
H       0.8735   0.1511   0.2934     H
H       0.8735   0.7224   0.7934     H
H       0.8972   0.3745   0.9034     H
H       0.8972   0.5227   0.4034     H
O       0.8984   0.3755  0.95262     O
O       0.8984   0.5229  0.45262     O
H        0.915     0.22     0.09     H
H        0.915    0.695     0.59     H
H       0.9425   0.2121   0.6899     H
H       0.9425   0.7304   0.1899     H
O       0.9465   0.1964   0.0595     O
O       0.9465   0.7501   0.5595     O
C       0.9762   0.1547   0.7871     C
C       0.9762   0.8215   0.2871     C
