data_I
_chemical_name_common  '/home/zhangsd/repos/MofS-CGCNN/ML/data/TSD/clean_cifs/ECUTON_clean'
_cell_length_a  9.41700
_cell_length_b 13.12800
_cell_length_c 15.91300
_cell_angle_alpha 90.00000
_cell_angle_beta  90.00000
_cell_angle_gamma 90.00000
_space_group_name_H-M_alt      'P 1'


loop_
_space_group_symop_operation_xyz
  'x, y, z' 

loop_
_atom_site_label
_atom_site_fract_x
_atom_site_fract_y
_atom_site_fract_z
_atom_site_type_symbol
C       0.0022    0.443   0.5044     C
H       0.0043   0.8033   0.5293     H
H        0.006   0.1666   0.9073     H
O       0.0075   0.0727   0.6904     O
C       0.0141   0.8869   0.3774     C
H       0.0157   0.9926   0.9156     H
N       0.0221   0.8042   0.9717     N
C        0.026   0.0303   0.9676     C
H       0.0267   0.5469   0.7228     H
H       0.0308   0.3322   0.5921     H
C       0.0322   0.4061   0.5913     C
C       0.0389   0.8665   0.0451     C
O       0.0486   0.2581   0.3253     O
N        0.052   0.4937   0.9769     N
C       0.0591   0.4838   0.2912     C
C       0.0625    0.747   0.8521     C
N       0.0711   0.2809   0.1286     N
N       0.0746   0.5543   0.3487     N
H       0.0747   0.4165    0.467     H
C       0.0797   0.1613   0.4803     C
H       0.0883   0.5846   0.5137     H
C       0.0933   0.2435   0.0533     C
C        0.096   0.1083   0.5537     C
H       0.1066   0.7307   0.8016     H
H       0.1176   0.6081   0.1098     H
N       0.1233   0.7988    0.911     N
O       0.1256   0.8373   0.3915     O
H       0.1261   0.4284   0.6083     H
H        0.127   0.0398    0.977     H
H       0.1391    0.874   0.0576     H
C       0.1669   0.2243   0.3405     C
C       0.1749   0.5539   0.9956     C
H       0.1769   0.2496   0.0226     H
N       0.1838   0.4623   0.2555     N
C       0.1882   0.1633   0.4184     C
C       0.1891   0.6084   0.0694     C
C        0.212   0.5804   0.3536     C
C       0.2189   0.0532   0.5643     C
O       0.2229   0.7409    0.206     O
N       0.2238   0.0257   0.2042     N
H       0.2308   0.0147   0.6128     H
Zn     0.23147  0.33006    0.199    Zn
H       0.2469   0.1272   0.1098     H
H       0.2531   0.6272   0.3902     H
Zn     0.26853  0.83006    0.301    Zn
H       0.2692   0.5147   0.8872     H
N       0.2762   0.5257   0.2958     N
O       0.2771   0.2409    0.294     O
C       0.2811   0.5532   0.9357     C
C        0.288   0.0804   0.1464     C
C       0.3109   0.1084   0.4306     C
C       0.3118   0.6633   0.0816     C
N       0.3162   0.9623   0.2445     N
H       0.3231   0.7496   0.4774     H
C       0.3251   0.0539   0.5044     C
C       0.3331   0.7243   0.1595     C
H       0.3609    0.374   0.4424     H
H        0.373   0.5398    0.523     H
H       0.3739   0.9284   0.8917     H
O       0.3744   0.3373   0.1085     O
N       0.3767   0.2988    0.589     N
H       0.3824   0.1081   0.3902     H
H       0.3934   0.2307   0.6984     H
C        0.404   0.6083   0.9463     C
C       0.4067   0.7435   0.4467     C
H       0.4117   0.0846   0.9863     H
C       0.4203   0.6613   0.0197     C
H       0.4253   0.9165    0.033     H
N       0.4254   0.0543   0.1513     N
N       0.4289   0.7809   0.3714     N
C       0.4375    0.247   0.6479     C
C       0.4409   0.9838   0.2088     C
N        0.448   0.9937   0.5231     N
O       0.4514   0.7581   0.1747     O
C       0.4611   0.3665   0.4549     C
C       0.4678   0.9061   0.9087     C
H       0.4692   0.8322   0.9079     H
H       0.4733   0.0469   0.7772     H
C        0.474   0.5303   0.5324     C
N       0.4779   0.3042   0.5283     N
H       0.4843   0.4926   0.5844     H
C       0.4859   0.3869   0.1226     C
O       0.4925   0.5727   0.8096     O
H        0.494   0.6666   0.5927     H
H       0.4957   0.3033   0.9707     H
C       0.4978    0.943   0.9956     C
C       0.5022    0.057   0.0044     C
H       0.5043   0.6967   0.0293     H
H        0.506   0.3334   0.4073     H
O       0.5075   0.4273   0.1904     O
C       0.5141   0.6131   0.8774     C
H       0.5157   0.5074   0.4156     H
N       0.5221   0.6958   0.4717     N
C        0.526   0.4697   0.4676     C
H       0.5267   0.9531   0.2228     H
H       0.5308   0.1678   0.0921     H
C       0.5322   0.0939   0.0913     C
C       0.5389   0.6335   0.5451     C
O       0.5486   0.2419   0.8253     O
N        0.552   0.0063   0.4769     N
C       0.5591   0.0162   0.7912     C
C       0.5625    0.753   0.3521     C
N       0.5711   0.2191   0.6286     N
N       0.5746   0.9457   0.8487     N
H       0.5747   0.0835    0.967     H
C       0.5797   0.3387   0.9803     C
H       0.5883   0.9154   0.0137     H
C       0.5933   0.2565   0.5533     C
C        0.596   0.3917   0.0537     C
H       0.6066   0.7693   0.3016     H
H       0.6176   0.8919   0.6098     H
N       0.6233   0.7012    0.411     N
O       0.6256   0.6627   0.8915     O
H       0.6261   0.0716   0.1083     H
H        0.627   0.4602    0.477     H
H       0.6391    0.626   0.5576     H
C       0.6669   0.2757   0.8405     C
C       0.6749   0.9461   0.4956     C
H       0.6769   0.2504   0.5226     H
N       0.6838   0.0377   0.7555     N
C       0.6882   0.3367   0.9184     C
C       0.6891   0.8916   0.5694     C
C        0.712   0.9196   0.8536     C
C       0.7189   0.4468   0.0643     C
O       0.7229   0.7591    0.706     O
N       0.7238   0.4743   0.7042     N
H       0.7308   0.4853   0.1128     H
Zn     0.73147  0.16994    0.699    Zn
H       0.7469   0.3728   0.6098     H
H       0.7531   0.8728   0.8902     H
Zn     0.76853  0.66994    0.801    Zn
H       0.7692   0.9853   0.3872     H
N       0.7762   0.9743   0.7958     N
O       0.7771   0.2591    0.794     O
C       0.7811   0.9468   0.4357     C
C        0.788   0.4196   0.6464     C
C       0.8109   0.3916   0.9306     C
C       0.8118   0.8367   0.5816     C
N       0.8162   0.5377   0.7445     N
H       0.8231   0.7504   0.9774     H
C       0.8251   0.4461   0.0044     C
C       0.8331   0.7757   0.6595     C
H       0.8609    0.126   0.9424     H
H        0.873   0.9602    0.023     H
H       0.8739   0.5716   0.3917     H
O       0.8744   0.1627   0.6085     O
N       0.8767   0.2012    0.089     N
H       0.8824   0.3919   0.8902     H
H       0.8934   0.2693   0.1984     H
C        0.904   0.8917   0.4463     C
C       0.9067   0.7565   0.9467     C
H       0.9117   0.4154   0.4863     H
C       0.9203   0.8387   0.5197     C
H       0.9253   0.5835    0.533     H
N       0.9254   0.4457   0.6513     N
N       0.9289   0.7191   0.8714     N
C       0.9375    0.253   0.1479     C
C       0.9409   0.5162   0.7088     C
N        0.948   0.5063   0.0231     N
O       0.9514   0.7419   0.6747     O
C       0.9611   0.1335   0.9549     C
C       0.9678   0.5939   0.4087     C
H       0.9692   0.6678   0.4079     H
H       0.9733   0.4531   0.2772     H
C        0.974   0.9697   0.0324     C
N       0.9779   0.1958   0.0283     N
H       0.9843   0.0074   0.0844     H
C       0.9859   0.1131   0.6226     C
O       0.9925   0.9273   0.3096     O
H        0.994   0.8334   0.0927     H
H       0.9957   0.1967   0.4707     H
C       0.9978    0.557   0.4956     C
