data_I
_chemical_name_common  '/home/zhangsd/repos/MofS-CGCNN/ML/data/TSD/clean_cifs/EDABOC_clean'
_cell_length_a  7.79650
_cell_length_b  9.57430
_cell_length_c 11.46400
_cell_angle_alpha 91.93000
_cell_angle_beta  105.87000
_cell_angle_gamma 103.38000
_space_group_name_H-M_alt      'P 1'


loop_
_space_group_symop_operation_xyz
  'x, y, z' 

loop_
_atom_site_label
_atom_site_fract_x
_atom_site_fract_y
_atom_site_fract_z
_atom_site_type_symbol
H       0.0046   0.3886   0.9398     H
C       0.0137   0.4197   0.7063     C
H       0.0179   0.0576   0.2479     H
O       0.0407   0.5027   0.6232     O
H       0.0502   0.7393    0.688     H
C        0.059   0.9483   0.7021     C
H       0.0871    0.262   0.9087     H
C       0.0991   0.8267   0.6622     C
H       0.1072   0.1634   0.6929     H
C       0.1143   0.3656   0.9287     C
H         0.12    0.388   0.1688     H
C       0.1338   0.0797   0.6673     C
O        0.135   0.6724   0.3135     O
C       0.1657   0.4428   0.8244     C
H       0.1744   0.2458   0.1395     H
N        0.205   0.8272    0.588     N
H       0.2085   0.5455   0.8502     H
C       0.2191   0.3499    0.156     C
C       0.2484   0.0851    0.594     C
H       0.2678    0.411   0.8092     H
O       0.2711   0.3313   0.5708     O
C       0.2713    0.411   0.0466     C
C       0.2778   0.9547   0.5552     C
Pr     0.28634   0.5799   0.5178    Pr
H       0.3076   0.5155   0.0609     H
C       0.3379   0.2257   0.5571     C
H       0.3522   0.9571   0.5038     H
O       0.3681    0.452   0.3648     O
H       0.3765   0.3786   0.0377     H
C       0.3805   0.3868   0.2705     C
O       0.4733   0.2295   0.5169     O
O       0.4754   0.6488   0.7305     O
O       0.5246   0.3512   0.2695     O
O       0.5267   0.7705   0.4831     O
C       0.6195   0.6132   0.7295     C
H       0.6235   0.6214   0.9623     H
O       0.6319    0.548   0.6352     O
H       0.6478   0.0429   0.4962     H
C       0.6621   0.7743   0.4429     C
H       0.6924   0.4845   0.9391     H
Pr     0.71366   0.4201   0.4822    Pr
C       0.7222   0.0453   0.4448     C
C       0.7287    0.589   0.9534     C
O       0.7289   0.6687   0.4292     O
H       0.7322    0.589   0.1908     H
C       0.7516   0.9149    0.406     C
C       0.7809   0.6501    0.844     C
H       0.7915   0.4545   0.1498     H
N        0.795   0.1728    0.412     N
H       0.8256   0.7542   0.8605     H
C       0.8343   0.5572   0.1756     C
O        0.865   0.3276   0.6865     O
C       0.8662   0.9203   0.3327     C
H         0.88    0.612   0.8312     H
C       0.8857   0.6344   0.0713     C
H       0.8928   0.8366   0.3071     H
C       0.9009   0.1733   0.3378     C
H       0.9129    0.738   0.0913     H
C        0.941   0.0517   0.2979     C
H       0.9498   0.2607    0.312     H
O       0.9593   0.4973   0.3768     O
H       0.9821   0.9424   0.7521     H
C       0.9863   0.5803   0.2937     C
H       0.9954   0.6114   0.0602     H
