data_I
_chemical_name_common  '/home/zhangsd/repos/MofS-CGCNN/ML/data/TSD/clean_cifs/EDEPAG_clean'
_cell_length_a 11.05520
_cell_length_b 11.07130
_cell_length_c 17.64880
_cell_angle_alpha 93.08400
_cell_angle_beta  104.42900
_cell_angle_gamma 119.03200
_space_group_name_H-M_alt      'P 1'


loop_
_space_group_symop_operation_xyz
  'x, y, z' 

loop_
_atom_site_label
_atom_site_fract_x
_atom_site_fract_y
_atom_site_fract_z
_atom_site_type_symbol
Eu     0.00114  0.10577  0.09493    Eu
C       0.0068   0.0491   0.6078     C
C       0.0075   0.9254   0.7219     C
H       0.0094   0.4684    0.075     H
H       0.0192   0.3424   0.9581     H
H       0.0279   0.1568   0.5169     H
O       0.0557    0.917   0.0466     O
C       0.0575    0.673   0.0877     C
C        0.076   0.5609   0.1065     C
C       0.0782   0.1551   0.5687     C
O       0.0783   0.9303   0.7928     O
C       0.0829    0.045   0.6826     C
H       0.0935   0.0202   0.4164     H
O       0.1098   0.3404   0.1534     O
C       0.1171   0.9201   0.1186     C
O        0.121   0.1727   0.3176     O
O       0.1443   0.0118   0.1748     O
C       0.1512   0.8075    0.136     C
C       0.1915   0.5847   0.1709     C
C       0.2046   0.4629   0.1968     C
O       0.2091   0.1269    0.946     O
O       0.2214   0.2226   0.0656     O
C       0.2269   0.2609   0.6068     C
O       0.2283   0.3644   0.4903     O
C       0.2302   0.1488   0.7181     C
C        0.263   0.2298    0.005     C
C       0.2671   0.8324   0.2013     C
H       0.2816   0.1454   0.7691     H
C       0.2873   0.7207   0.2191     C
C       0.3012   0.3742   0.5608     C
C       0.3025   0.2558   0.6807     C
O       0.3056    0.488   0.2582     O
Eu     0.32056  0.39764  0.37876    Eu
H        0.332   0.9245   0.2336     H
H       0.3424   0.0261    0.397     H
H       0.3459   0.8192   0.3872     H
H       0.3511    0.329   0.8836     H
H       0.3658   0.7366   0.2638     H
C        0.385   0.3714   0.0021     C
O       0.3956   0.6341   0.4342     O
H       0.4026   0.3249   0.7054     H
O       0.4051   0.2682   0.4553     O
C       0.4078   0.0162    0.439     C
C       0.4081    0.892   0.4335     C
C       0.4126   0.3991   0.9311     C
O       0.4295   0.4709   0.5983     O
H       0.4543   0.4568   0.1223     H
C       0.4729    0.474    0.073     C
C       0.4966    0.734   0.4894     C
C       0.4991   0.8721   0.4956     C
C       0.5009   0.1279   0.5044     C
C       0.5034    0.266   0.5106     C
C       0.5271    0.526    0.927     C
H       0.5457   0.5432   0.8777     H
O       0.5705   0.5291   0.4017     O
C       0.5874   0.6009   0.0689     C
C       0.5919    0.108   0.5665     C
C       0.5922   0.9838    0.561     C
O       0.5949   0.7318   0.5447     O
H       0.5974   0.6751   0.2946     H
O       0.6044   0.3659   0.5658     O
C        0.615   0.6286   0.9979     C
H       0.6342   0.2634   0.7362     H
H       0.6489    0.671   0.1164     H
H       0.6541   0.1808   0.6128     H
H       0.6576   0.9739    0.603     H
H        0.668   0.0755   0.7664     H
Eu     0.67944  0.60236  0.62124    Eu
O       0.6944    0.512   0.7418     O
C       0.6975   0.7442   0.3193     C
C       0.6988   0.6258   0.4392     C
C       0.7127   0.2793   0.7809     C
H       0.7184   0.8546   0.2309     H
C       0.7329   0.1676   0.7987     C
C        0.737   0.7702    0.995     C
C       0.7698   0.8512   0.2819     C
O       0.7717   0.6356   0.5097     O
C       0.7731   0.7391   0.3932     C
O       0.7786   0.7774   0.9344     O
O       0.7909   0.8731    0.054     O
C       0.7954   0.5371   0.8032     C
C       0.8085   0.4153   0.8291     C
C       0.8488   0.1925    0.864     C
O       0.8557   0.9882   0.8252     O
O        0.879   0.8273   0.6824     O
C       0.8829   0.0799   0.8814     C
O       0.8902   0.6596   0.8466     O
H       0.9065   0.9798   0.5836     H
C       0.9171    0.955   0.3174     C
O       0.9217   0.0697   0.2072     O
C       0.9218   0.8449   0.4313     C
C        0.924   0.4391   0.8935     C
C       0.9425    0.327   0.9123     C
O       0.9443    0.083   0.9534     O
H       0.9721   0.8432   0.4831     H
H       0.9808   0.6576   0.0419     H
H       0.9906   0.5316    0.925     H
C       0.9925   0.0746   0.2781     C
C       0.9932   0.9509   0.3922     C
Eu     0.99886  0.89423  0.90507    Eu
