data_I
_chemical_name_common  '/home/zhangsd/repos/MofS-CGCNN/ML/data/TSD/clean_cifs/EDOMAM_clean'
_cell_length_a 13.94100
_cell_length_b 15.07500
_cell_length_c 15.07500
_cell_angle_alpha 82.15000
_cell_angle_beta  87.23000
_cell_angle_gamma 87.23000
_space_group_name_H-M_alt      'P 1'


loop_
_space_group_symop_operation_xyz
  'x, y, z' 

loop_
_atom_site_label
_atom_site_fract_x
_atom_site_fract_y
_atom_site_fract_z
_atom_site_type_symbol
C       0.0021   0.8994   0.5717     C
C       0.0048   0.7713   0.6695     C
H       0.0351   0.9443   0.5332     H
H       0.0415   0.7242   0.7022     H
N       0.0531   0.8387   0.6204     N
C       0.0929   0.2331    0.325     C
C       0.0987    0.097   0.4277     C
H       0.1234   0.2809   0.2884     H
H       0.1327   0.0493   0.4623     H
C       0.1472   0.1641   0.3759     C
H        0.155   0.8934   0.0477     H
H       0.1555   0.8879    0.891     H
H       0.1598   0.1217   0.6567     H
H       0.1605   0.8807   0.3332     H
H       0.1635   0.8913   0.1737     H
H       0.1638    0.276    0.659     H
H        0.172   0.3989   0.6775     H
H       0.1747    0.554   0.6863     H
Cu     0.20602  0.84066   0.6173    Cu
C        0.208    0.868    0.017     C
C        0.209    0.864    0.925     C
O       0.2132   0.8309   0.7473     O
C        0.216    0.153    0.637     C
C       0.2178    0.867   0.2062     C
O       0.2179   0.9708   0.6112     O
C       0.2183   0.8659   0.3014     C
C        0.219    0.244    0.638     C
O       0.2197   0.8507   0.4881     O
C        0.225   0.4324   0.6523     C
C        0.226   0.5239   0.6567     C
O       0.2293   0.7097   0.6227     O
C       0.2524    0.165    0.376     C
H        0.268   0.3005    0.337     H
H       0.2775     0.03   0.4088     H
C        0.291   0.8243   0.8806     C
C       0.2935   0.8311    0.065     C
C       0.2948   0.8252   0.7827     C
C       0.2952   0.8347   0.1643     C
C       0.2974   0.8442   0.3465     C
C       0.2984    0.846   0.4453     C
C       0.2998   0.0053   0.6085     C
C       0.3007   0.1045   0.6063     C
C       0.3019   0.2451   0.3544     C
C       0.3038   0.2889   0.6086     C
C       0.3062   0.3878   0.6086     C
C       0.3068   0.0862   0.3959     C
C       0.3089   0.6697   0.6167     C
C       0.3099   0.5729   0.6129     C
C        0.372    0.793    0.018     C
O       0.3721   0.8204   0.7407     O
C        0.374    0.785    0.928     C
O       0.3758   0.9636   0.6038     O
C        0.376    0.439    0.567     C
C        0.377   0.5289    0.574     C
C        0.377    0.821    0.296     C
O       0.3784   0.8455   0.4801     O
C        0.379    0.813    0.215     C
O       0.3878    0.706   0.6146     O
C         0.39   0.2375    0.582     C
C        0.393    0.148    0.582     C
Cu     0.39503  0.83486  0.61007    Cu
C       0.3977   0.2412   0.3591     C
C        0.405   0.0921    0.396     C
H       0.4248   0.4124   0.5322     H
H       0.4263   0.7566   0.8989     H
H       0.4267   0.7712   0.0502     H
H       0.4294   0.2961   0.3455     H
H       0.4311   0.5606   0.5492     H
H       0.4355     0.81   0.3264     H
H       0.4369   0.7919   0.1865     H
H       0.4408   0.0372   0.4082     H
H       0.4471   0.2688   0.5651     H
H       0.4497   0.1147   0.5666     H
N       0.4539   0.1654   0.3815     N
N       0.5461   0.8346   0.6185     N
H       0.5503   0.8853   0.4334     H
H       0.5529   0.7312   0.4349     H
H       0.5592   0.9628   0.5918     H
H       0.5631   0.2081   0.8135     H
H       0.5645     0.19   0.6736     H
H       0.5689   0.4394   0.4508     H
H       0.5706   0.7039   0.6545     H
H       0.5733   0.2288   0.9498     H
H       0.5737   0.2434   0.1011     H
H       0.5752   0.5876   0.4678     H
C        0.595   0.9079    0.604     C
C       0.6023   0.7588   0.6409     C
Cu     0.60497  0.16514  0.38993    Cu
C        0.607    0.852    0.418     C
C         0.61   0.7625    0.418     C
O       0.6122    0.294   0.3854     O
C        0.621    0.187    0.785     C
O       0.6216   0.1545   0.5199     O
C        0.623    0.179    0.704     C
C        0.623   0.4711    0.426     C
C        0.624    0.561    0.433     C
O       0.6242   0.0364   0.3962     O
C        0.626    0.215    0.072     C
O       0.6279   0.1796   0.2593     O
C        0.628    0.207    0.982     C
C       0.6901   0.4271   0.3871     C
C       0.6911   0.3303   0.3833     C
C       0.6932   0.9138   0.6041     C
C       0.6938   0.6122   0.3914     C
C       0.6962   0.7111   0.3914     C
C       0.6981   0.7549   0.6456     C
C       0.6993   0.8955   0.3937     C
C       0.7002   0.9947   0.3915     C
C       0.7016    0.154   0.5547     C
C       0.7026   0.1558   0.6535     C
C       0.7048   0.1653   0.8357     C
C       0.7052   0.1748   0.2173     C
C       0.7065   0.1689    0.935     C
C        0.709   0.1757   0.1194     C
H       0.7225     0.97   0.5912     H
H        0.732   0.6995    0.663     H
C       0.7476    0.835    0.624     C
O       0.7707   0.2903   0.3773     O
C        0.774   0.4761   0.3433     C
C        0.775   0.5676   0.3477     C
O       0.7803   0.1493   0.5119     O
C        0.781    0.756    0.362     C
C       0.7817   0.1341   0.6986     C
O       0.7821   0.0292   0.3888     O
C       0.7822    0.133   0.7938     C
C        0.784    0.847    0.363     C
O       0.7868   0.1691   0.2527     O
C        0.791    0.136    0.075     C
C        0.792    0.132    0.983     C
Cu     0.79398  0.15934   0.3827    Cu
H       0.8253    0.446   0.3137     H
H        0.828   0.6011   0.3225     H
H       0.8362    0.724    0.341     H
H       0.8365   0.1087   0.8263     H
H       0.8395   0.1193   0.6668     H
H       0.8402   0.8783   0.3433     H
H       0.8445   0.1121    0.109     H
H        0.845   0.1066   0.9523     H
C       0.8528   0.8359   0.6241     C
H       0.8673   0.9507   0.5377     H
H       0.8766   0.7191   0.7116     H
C       0.9013    0.903   0.5723     C
C       0.9071   0.7669    0.675     C
N       0.9469   0.1613   0.3796     N
H       0.9585   0.2758   0.2978     H
H       0.9649   0.0557   0.4668     H
C       0.9952   0.2287   0.3305     C
C       0.9979   0.1006   0.4283     C
