data_I
_chemical_name_common  '/home/zhangsd/repos/MofS-CGCNN/ML/data/TSD/clean_cifs/EDOYOL_clean'
_cell_length_a 13.04690
_cell_length_b 14.12600
_cell_length_c 14.21050
_cell_angle_alpha 90.00000
_cell_angle_beta  91.11000
_cell_angle_gamma 90.00000
_space_group_name_H-M_alt      'P 1'


loop_
_space_group_symop_operation_xyz
  'x, y, z' 

loop_
_atom_site_label
_atom_site_fract_x
_atom_site_fract_y
_atom_site_fract_z
_atom_site_type_symbol
O       0.0074   0.5541   0.7287     O
O       0.0155   0.9736   0.6837     O
O       0.0288   0.9715   0.4311     O
Co     0.05276  0.53225  0.27137    Co
P       0.0606  0.51725  0.81834     P
O       0.0663   0.9663   0.0401     O
P      0.09689  0.98387  0.14303     P
O       0.1066   0.4198   0.7996     O
Co     0.11457  0.97936  0.91433    Co
O       0.1208   0.4118   0.2792     O
O       0.1396   0.8908   0.1841     O
O       0.1402   0.6439   0.2514     O
P      0.14257  0.99777  0.43721     P
O       0.1441   0.5894   0.8477     O
Co     0.15621  0.00824  0.67085    Co
O       0.1577   0.0803   0.3706     O
O       0.1747   0.0246   0.5371     O
O       0.1764   0.0635   0.1471     O
O       0.1786   0.8631   0.8661     O
O       0.1837   0.1222    0.742     O
O       0.1939   0.2551   0.2516     O
O       0.2046   0.9101   0.4069     O
O       0.2168   0.0804    0.914     O
P      0.22016  0.36006  0.25666     P
Co     0.23061  0.12332  0.26302    Co
O       0.2396   0.2453   0.8616     O
Co     0.24346  0.87217   0.2835    Co
Co      0.2463   0.3753  0.81763    Co
P      0.24963  0.14133  0.83134     P
P      0.25166  0.64452  0.28721     P
O       0.2589   0.5936   0.3822     O
O        0.259   0.9167   0.7124     O
O       0.2621   0.3915   0.1607     O
P      0.27141  0.85449  0.80124     P
Co     0.27897  0.62126  0.80324    Co
O       0.2859   0.7528    0.771     O
O       0.2905   0.7465   0.2973     O
O        0.302   0.4333   0.9301     O
O        0.303   0.3781   0.3315     O
O       0.3037   0.5525   0.6876     O
O       0.3149   0.4563   0.5452     O
O        0.321   0.5977   0.2158     O
O       0.3221   0.3773   0.7025     O
Co     0.34079  0.48494  0.41552    Co
P      0.35426  0.46619  0.64634     P
O       0.3626   0.9343   0.2294     O
O       0.3651   0.1218   0.8127     O
O       0.3683   0.8895   0.8561     O
Co      0.3779  0.48211   0.1689    Co
O        0.378   0.1058   0.2721     O
O       0.3866   0.5878   0.8923     O
P      0.40075  0.49076   0.9394     P
O       0.4311   0.5016   0.0424     O
P      0.43707   0.0127  0.26139     P
Co     0.44338  0.00097  0.81871    Co
O       0.4711   0.4718    0.651     O
O       0.4859   0.9853   0.3551     O
O       0.4879   0.4897   0.4005     O
O       0.4888   0.4377   0.8906     O
O        0.499    0.989   0.6947     O
O       0.5074   0.4459   0.2287     O
O       0.5155   0.0264   0.1837     O
O       0.5288   0.0285   0.9311     O
Co     0.55276  0.46775  0.77137    Co
P       0.5606  0.48275  0.31834     P
O       0.5663   0.0337   0.5401     O
P      0.59689  0.01613  0.64303     P
O       0.6066   0.5802   0.2996     O
Co     0.61457  0.02064  0.41433    Co
O       0.6208   0.5882   0.7792     O
O       0.6396   0.1092   0.6841     O
O       0.6402   0.3561   0.7514     O
P      0.64257  0.00223  0.93721     P
O       0.6441   0.4106   0.3477     O
Co     0.65621  0.99176  0.17085    Co
O       0.6577   0.9197   0.8706     O
O       0.6747   0.9754   0.0371     O
O       0.6764   0.9365   0.6471     O
O       0.6786   0.1369   0.3661     O
O       0.6837   0.8778    0.242     O
O       0.6939   0.7449   0.7516     O
O       0.7046   0.0899   0.9069     O
O       0.7168   0.9196    0.414     O
P      0.72016  0.63994  0.75666     P
Co     0.73061  0.87668  0.76302    Co
O       0.7396   0.7547   0.3616     O
Co     0.74346  0.12783   0.7835    Co
Co      0.7463   0.6247  0.31763    Co
P      0.74963  0.85867  0.33134     P
P      0.75166  0.35548  0.78721     P
O       0.7589   0.4064   0.8822     O
O        0.759   0.0833   0.2124     O
O       0.7621   0.6085   0.6607     O
P      0.77141  0.14551  0.30124     P
Co     0.77897  0.37874  0.30324    Co
O       0.7859   0.2472    0.271     O
O       0.7905   0.2535   0.7973     O
O        0.802   0.5667   0.4301     O
O        0.803   0.6219   0.8315     O
O       0.8037   0.4475   0.1876     O
O       0.8149   0.5437   0.0452     O
O        0.821   0.4023   0.7158     O
O       0.8221   0.6227   0.2025     O
Co     0.84079  0.51506  0.91552    Co
P      0.85426  0.53381  0.14634     P
O       0.8626   0.0657   0.7294     O
O       0.8651   0.8782   0.3127     O
O       0.8683   0.1105   0.3561     O
Co      0.8779  0.51789   0.6689    Co
O        0.878   0.8942   0.7721     O
O       0.8866   0.4122   0.3923     O
P      0.90075  0.50924   0.4394     P
O       0.9311   0.4984   0.5424     O
P      0.93707   0.9873  0.76139     P
Co     0.94338  0.99903  0.31871    Co
O       0.9711   0.5282    0.151     O
O       0.9859   0.0147   0.8551     O
O       0.9879   0.5103   0.9005     O
O       0.9888   0.5623   0.3906     O
O        0.999    0.011   0.1947     O
