data_I
_chemical_name_common  '/home/zhangsd/repos/MofS-CGCNN/ML/data/TSD/clean_cifs/EGAFUP_clean'
_cell_length_a  9.14000
_cell_length_b 11.15380
_cell_length_c 11.27160
_cell_angle_alpha 77.26100
_cell_angle_beta  68.45300
_cell_angle_gamma 78.84300
_space_group_name_H-M_alt      'P 1'


loop_
_space_group_symop_operation_xyz
  'x, y, z' 

loop_
_atom_site_label
_atom_site_fract_x
_atom_site_fract_y
_atom_site_fract_z
_atom_site_type_symbol
C       0.0009    0.823   0.1718     C
H       0.0308    0.688   0.7807     H
H       0.0537   0.0567   0.6303     H
O       0.0584    0.104    0.906     O
H       0.0792    0.092   0.4825     H
C       0.0834   0.3008   0.1972     C
S      0.08355   0.2639  0.56258     S
H        0.084   0.3413   0.7359     H
O       0.0851   0.0964   0.1655     O
C       0.0873   0.4864   0.9821     C
H       0.1055   0.2754   0.2776     H
C       0.1056   0.2578   0.7166     C
C       0.1172   0.1015   0.5494     C
H       0.1245   0.4182   0.9336     H
H       0.1354   0.5583   0.9266     H
O       0.1443    0.817   0.1578     O
C       0.1512   0.1946   0.1195     C
S       0.1514  0.44608   0.1246     S
H       0.2098    0.965   0.3396     H
H       0.2149   0.2275   0.7093     H
H       0.2629   0.8233   0.3385     H
O       0.2665   0.2042   0.0155     O
Nd     0.26937  0.98209  0.98065    Nd
C       0.2886   0.0412   0.5184     C
C       0.2938   0.8988   0.3466     C
S      0.30501  0.88019  0.50477     S
H       0.3271    0.047   0.5862     H
H       0.3539   0.0852   0.4378     H
O       0.4287    0.072   0.7528     O
O       0.4297   0.9536   0.1219     O
C       0.4425   0.9271   0.2335     C
C       0.5575   0.0729   0.7665     C
O       0.5703   0.0464   0.8781     O
O       0.5713    0.928   0.2472     O
H       0.6461   0.9148   0.5622     H
H       0.6729    0.953   0.4138     H
S      0.69499  0.11981  0.49523     S
C       0.7062   0.1012   0.6534     C
C       0.7114   0.9588   0.4816     C
Nd     0.73063  0.01791  0.01935    Nd
O       0.7335   0.7958   0.9845     O
H       0.7371   0.1767   0.6615     H
H       0.7851   0.7725   0.2907     H
H       0.7902    0.035   0.6604     H
S       0.8486  0.55392   0.8754     S
C       0.8488   0.8054   0.8805     C
O       0.8557    0.183   0.8422     O
H       0.8646   0.4417   0.0734     H
H       0.8755   0.5818   0.0664     H
C       0.8828   0.8985   0.4506     C
C       0.8944   0.7422   0.2834     C
H       0.8945   0.7246   0.7224     H
C       0.9127   0.5136   0.0179     C
O       0.9149   0.9036   0.8345     O
H        0.916   0.6587   0.2641     H
S      0.91645   0.7361  0.43742     S
C       0.9166   0.6992   0.8028     C
H       0.9208    0.908   0.5175     H
O       0.9416    0.896    0.094     O
H       0.9463   0.9433   0.3697     H
H       0.9692    0.312   0.2193     H
C       0.9991    0.177   0.8282     C
