data_I
_chemical_name_common  '/home/zhangsd/repos/MofS-CGCNN/ML/data/TSD/clean_cifs/EGAGAW_clean'
_cell_length_a  9.16860
_cell_length_b 11.11450
_cell_length_c 11.18990
_cell_angle_alpha 77.15600
_cell_angle_beta  68.19500
_cell_angle_gamma 78.35000
_space_group_name_H-M_alt      'P 1'


loop_
_space_group_symop_operation_xyz
  'x, y, z' 

loop_
_atom_site_label
_atom_site_fract_x
_atom_site_fract_y
_atom_site_fract_z
_atom_site_type_symbol
C       0.0055   0.6736   0.3319     C
H         0.03   0.1885   0.2813     H
H        0.052   0.5554    0.133     H
O       0.0721    0.605   0.4057     O
H       0.0772   0.8421   0.2376     H
H       0.0774   0.5907   0.9841     H
S       0.0778  0.76299  0.06503     S
C       0.0841   0.7999   0.6973     C
C       0.0865   0.9856   0.4823     C
O       0.0869   0.5945   0.6633     O
C       0.1034   0.7583   0.2172     C
H       0.1049   0.7744   0.7788     H
C       0.1148   0.6006   0.0514     C
H       0.1232   0.9168   0.4335     H
H        0.135   0.0572   0.4258     H
O       0.1381   0.3256   0.6511     O
S       0.1515   0.9445   0.6246     S
C       0.1545   0.6924    0.618     C
H       0.2081   0.4638   0.8414     H
H       0.2144   0.7318   0.2065     H
H       0.2649   0.3218   0.8389     H
O       0.2708   0.7014   0.5148     O
Eu     0.27359  0.48365  0.47988    Eu
C       0.2861   0.5404   0.0198     C
C       0.2939    0.398   0.8471     C
S       0.3059   0.3792  0.00618     S
H       0.3243   0.5468   0.0879     H
H       0.3508   0.5846   0.9383     H
O       0.4259   0.4532   0.6215     O
O       0.4321   0.5685   0.2551     O
C       0.4389   0.4279   0.7327     C
C       0.5611   0.5721   0.2673     C
O       0.5679   0.4315   0.7449     O
O       0.5741   0.5468   0.3785     O
H       0.6492   0.4154   0.0617     H
H       0.6757   0.4532   0.9121     H
S       0.6941   0.6208  0.99382     S
C       0.7061    0.602   0.1529     C
C       0.7139   0.4596   0.9802     C
Eu     0.72641  0.51635  0.52012    Eu
O       0.7292   0.2986   0.4852     O
H       0.7351   0.6782   0.1611     H
H       0.7856   0.2682   0.7935     H
H       0.7919   0.5362   0.1586     H
C       0.8455   0.3076    0.382     C
S       0.8485   0.0555   0.3754     S
O       0.8619   0.6744   0.3489     O
H        0.865   0.9428   0.5742     H
H       0.8768   0.0832   0.5665     H
C       0.8852   0.3994   0.9486     C
H       0.8951   0.2256   0.2212     H
C       0.8966   0.2417   0.7828     C
O       0.9131   0.4055   0.3367     O
C       0.9135   0.0144   0.5177     C
C       0.9159   0.2001   0.3027     C
S       0.9222  0.23701  0.93497     S
H       0.9226   0.4093   0.0159     H
H       0.9228   0.1579   0.7624     H
O       0.9279    0.395   0.5943     O
H        0.948   0.4446    0.867     H
H         0.97   0.8115   0.7187     H
C       0.9945   0.3264   0.6681     C
