data_I
_chemical_name_common  '/home/zhangsd/repos/MofS-CGCNN/ML/data/TSD/clean_cifs/EGAGEA_clean'
_cell_length_a  9.17420
_cell_length_b 11.11530
_cell_length_c 11.17140
_cell_angle_alpha 77.00900
_cell_angle_beta  68.08200
_cell_angle_gamma 78.22200
_space_group_name_H-M_alt      'P 1'


loop_
_space_group_symop_operation_xyz
  'x, y, z' 

loop_
_atom_site_label
_atom_site_fract_x
_atom_site_fract_y
_atom_site_fract_z
_atom_site_type_symbol
C        0.006   0.6728   0.8333     C
H       0.0293   0.1896   0.7812     H
H       0.0527   0.5543   0.6356     H
O       0.0751   0.6052   0.9074     O
S      0.07667  0.76291  0.56563     S
H       0.0767   0.5887   0.4865     H
H       0.0775   0.8412   0.7395     H
C       0.0849   0.7987   0.1969     C
C       0.0872   0.9847   0.9818     C
O       0.0877   0.5949   0.1623     O
C       0.1035   0.7575   0.7188     C
H        0.106   0.7728   0.2784     H
C       0.1144   0.5995   0.5532     C
H       0.1227   0.9153   0.9339     H
O       0.1365   0.3275   0.1484     O
H       0.1366   0.0557   0.9242     H
S       0.1522   0.9443  0.12389     S
C       0.1542   0.6926   0.1181     C
H       0.2068   0.4626   0.3418     H
H       0.2146   0.7307   0.7076     H
H       0.2654   0.3207   0.3393     H
O       0.2706   0.7015   0.0158     O
Gd      0.2746  0.48402  0.97972    Gd
C       0.2867   0.5413   0.5206     C
C       0.2932   0.3974   0.3474     C
S      0.30642  0.37908  0.50674     S
H       0.3251   0.5477   0.5886     H
H       0.3506    0.586   0.4387     H
O        0.425   0.4532   0.1214     O
O       0.4323   0.5681   0.7555     O
C       0.4389   0.4283   0.2327     C
C       0.5611   0.5717   0.7673     C
O       0.5677   0.4319   0.2445     O
O        0.575   0.5468   0.8786     O
H       0.6494    0.414   0.5613     H
H       0.6749   0.4523   0.4114     H
S      0.69358  0.62092  0.49326     S
C       0.7068   0.6026   0.6526     C
C       0.7133   0.4587   0.4794     C
Gd      0.7254  0.51598  0.02028    Gd
O       0.7294   0.2985   0.9842     O
H       0.7346   0.6793   0.6607     H
H       0.7854   0.2693   0.2924     H
H       0.7932   0.5374   0.6582     H
C       0.8458   0.3074   0.8819     C
S       0.8478   0.0557  0.87611     S
H       0.8634   0.9443   0.0758     H
O       0.8635   0.6725   0.8516     O
H       0.8773   0.0847   0.0661     H
C       0.8856   0.4005   0.4468     C
H        0.894   0.2272   0.7216     H
C       0.8965   0.2425   0.2812     C
O       0.9123   0.4051   0.8377     O
C       0.9128   0.0153   0.0182     C
C       0.9151   0.2013   0.8031     C
H       0.9225   0.1588   0.2605     H
H       0.9233   0.4113   0.5135     H
S      0.92333  0.23709  0.43437     S
O       0.9249   0.3948   0.0926     O
H       0.9473   0.4457   0.3644     H
H       0.9707   0.8104   0.2188     H
C        0.994   0.3272   0.1667     C
