data_I
_chemical_name_common  '/home/zhangsd/repos/MofS-CGCNN/ML/data/TSD/clean_cifs/EHAFIE_clean'
_cell_length_a 10.94530
_cell_length_b 11.48510
_cell_length_c 13.45300
_cell_angle_alpha 69.53900
_cell_angle_beta  80.09500
_cell_angle_gamma 62.42000
_space_group_name_H-M_alt      'P 1'


loop_
_space_group_symop_operation_xyz
  'x, y, z' 

loop_
_atom_site_label
_atom_site_fract_x
_atom_site_fract_y
_atom_site_fract_z
_atom_site_type_symbol
U          0.0      0.5      0.5     U
C       0.0083   0.3359   0.8458     C
C       0.0326   0.2568   0.7806     C
C       0.0789   0.7251   0.2829     C
O       0.0991   0.6447   0.3774     O
H       0.0997   0.3611   0.9515     H
C        0.118   0.3112   0.9049     C
C       0.1273   0.5453   0.1513     C
O       0.1413   0.4713   0.0949     O
O       0.1436   0.7941   0.2388     O
O       0.1437   0.2487   0.5214     O
C       0.1671   0.1553   0.7737     C
H       0.1833   0.0987   0.7329     H
O       0.2247   0.5158   0.2056     O
C        0.251   0.2151   0.8952     C
C       0.2578   0.2553   0.4922     C
O       0.2609   0.3703   0.4661     O
C        0.278   0.1367   0.8267     C
H       0.2984   0.9974   0.5814     H
O       0.3118   0.2146   0.0538     O
C       0.3559   0.1985   0.9622     C
U      0.36734  0.29822  0.16648     U
Ce     0.37801  0.78602  0.22487    Ce
C       0.3799   0.9989   0.5485     C
C       0.3819   0.1257   0.4964     C
C       0.4191   0.0278    0.809     C
O       0.4283   0.9081   0.8275     O
O       0.4288   0.6982   0.5704     O
O       0.4751   0.1741   0.9315     O
C       0.4796   0.7447   0.6164     C
O       0.4845   0.9395   0.2251     O
O       0.4914   0.3086   0.2872     O
C       0.4946   0.8736   0.5534     C
C       0.5054   0.1264   0.4466     C
O       0.5086   0.6914   0.7128     O
O       0.5155   0.0605   0.7749     O
C       0.5204   0.2553   0.3836     C
O       0.5249   0.8259   0.0685     O
O       0.5712   0.3018   0.4296     O
O       0.5717   0.0919   0.1725     O
C       0.5809   0.9722    0.191     C
C       0.6181   0.8743   0.5036     C
C       0.6201   0.0011   0.4515     C
Ce     0.62199  0.21398  0.77513    Ce
U      0.63266  0.70178  0.83352     U
C       0.6441   0.8015   0.0378     C
O       0.6882   0.7854   0.9462     O
H       0.7016   0.0026   0.4186     H
C        0.722   0.8633   0.1733     C
O       0.7391   0.6297   0.5339     O
C       0.7422   0.7447   0.5078     C
C        0.749   0.7849   0.1048     C
O       0.7753   0.4842   0.7944     O
H       0.8167   0.9013   0.2671     H
C       0.8329   0.8447   0.2263     C
O       0.8563   0.7513   0.4786     O
O       0.8564   0.2059   0.7612     O
O       0.8587   0.5287   0.9051     O
C       0.8727   0.4547   0.8487     C
C        0.882   0.6888   0.0951     C
H       0.9003   0.6389   0.0485     H
O       0.9009   0.3553   0.6226     O
C       0.9211   0.2749   0.7171     C
C       0.9674   0.7432   0.2194     C
C       0.9917   0.6641   0.1542     C
