data_I
_chemical_name_common  '/home/zhangsd/repos/MofS-CGCNN/ML/data/TSD/clean_cifs/EHAFUQ_clean'
_cell_length_a 10.87610
_cell_length_b 11.48660
_cell_length_c 13.42250
_cell_angle_alpha 69.49900
_cell_angle_beta  79.99200
_cell_angle_gamma 62.50600
_space_group_name_H-M_alt      'P 1'


loop_
_space_group_symop_operation_xyz
  'x, y, z' 

loop_
_atom_site_label
_atom_site_fract_x
_atom_site_fract_y
_atom_site_fract_z
_atom_site_type_symbol
U          0.0      0.5      0.5     U
C       0.0083   0.3371   0.8459     C
C       0.0327   0.2576   0.7801     C
C       0.0809   0.7225    0.283     C
H       0.0992   0.3629    0.951     H
O       0.1017   0.6433   0.3773     O
C       0.1172   0.3124   0.9048     C
C       0.1279   0.5445     0.15     C
O       0.1425   0.2488   0.5227     O
O       0.1429   0.4717    0.093     O
O       0.1465   0.7926   0.2388     O
C        0.166   0.1551   0.7748     C
H       0.1815   0.0984   0.7342     H
O       0.2258   0.5147   0.2057     O
C       0.2507   0.2146   0.8957     C
C       0.2574   0.2556   0.4944     C
O       0.2638   0.3686   0.4682     O
C       0.2773   0.1345   0.8281     C
H       0.2964   0.9975   0.5802     H
O       0.3121   0.2135   0.0544     O
C       0.3569   0.1986   0.9622     C
U      0.36844  0.29714  0.16694     U
C       0.3792    0.998   0.5482     C
Nd     0.37937  0.78481  0.22502    Nd
C       0.3848   0.1245   0.4967     C
C       0.4188   0.0297   0.8087     C
O       0.4252   0.7001   0.5698     O
O        0.427   0.9095   0.8271     O
C       0.4745   0.7458   0.6154     C
O       0.4763    0.176   0.9315     O
O        0.483   0.9406    0.224     O
C       0.4923   0.8748   0.5528     C
O       0.4932   0.3085   0.2876     O
O       0.5068   0.6915   0.7124     O
C       0.5077   0.1252   0.4472     C
O        0.517   0.0594    0.776     O
O       0.5237    0.824   0.0685     O
C       0.5255   0.2542   0.3846     C
O        0.573   0.0905   0.1729     O
O       0.5748   0.2999   0.4302     O
C       0.5812   0.9703   0.1913     C
C       0.6152   0.8755   0.5033     C
Nd     0.62063  0.21519  0.77498    Nd
C       0.6208    0.002   0.4518     C
U      0.63156  0.70286  0.83306     U
C       0.6431   0.8014   0.0378     C
O       0.6879   0.7865   0.9456     O
H       0.7036   0.0025   0.4198     H
C       0.7227   0.8655   0.1719     C
O       0.7362   0.6314   0.5318     O
C       0.7426   0.7444   0.5056     C
C       0.7493   0.7854   0.1043     C
O       0.7742   0.4853   0.7943     O
H       0.8185   0.9016   0.2658     H
C        0.834   0.8449   0.2252     C
O       0.8535   0.2074   0.7612     O
O       0.8571   0.5283    0.907     O
O       0.8575   0.7512   0.4773     O
C       0.8721   0.4555     0.85     C
C       0.8828   0.6876   0.0952     C
O       0.8983   0.3567   0.6227     O
H       0.9008   0.6371    0.049     H
C       0.9191   0.2775    0.717     C
C       0.9673   0.7424   0.2199     C
C       0.9917   0.6629   0.1541     C
