data_I
_chemical_name_common  '/home/zhangsd/repos/MofS-CGCNN/ML/data/TSD/clean_cifs/EHAGIF_clean'
_cell_length_a 10.58700
_cell_length_b 11.48700
_cell_length_c 13.37200
_cell_angle_alpha 69.30100
_cell_angle_beta  79.25000
_cell_angle_gamma 63.14000
_space_group_name_H-M_alt      'P 1'


loop_
_space_group_symop_operation_xyz
  'x, y, z' 

loop_
_atom_site_label
_atom_site_fract_x
_atom_site_fract_y
_atom_site_fract_z
_atom_site_type_symbol
U          0.0      0.5      0.5     U
C       0.0018   0.3422   0.8499     C
C       0.0194   0.2657   0.7845     C
H       0.0974    0.361   0.9543     H
C       0.0999   0.7086   0.2759     C
O       0.1107    0.636   0.3746     O
C       0.1134   0.3132   0.9064     C
C       0.1358   0.5355   0.1466     C
O        0.139   0.2518    0.523     O
O       0.1475   0.4643   0.0904     O
C       0.1525   0.1636   0.7768     C
H       0.1645   0.1074   0.7367     H
O       0.1752   0.7705   0.2325     O
O       0.2361   0.5043   0.2011     O
C       0.2475   0.2169   0.8955     C
C       0.2569   0.2543   0.4966     C
O       0.2671   0.3654   0.4677     O
C       0.2693   0.1413   0.8263     C
H       0.2907   0.0011   0.5838     H
O       0.3224   0.2004   0.0537     O
C       0.3603   0.1969   0.9571     C
U      0.37467  0.28721  0.16534     U
C       0.3762   0.0002   0.5502     C
C       0.3847   0.1242   0.4963     C
Gd     0.39619  0.77226  0.24543    Gd
C         0.41   0.0373   0.8031     C
O       0.4142   0.7045   0.5777     O
O       0.4192   0.9179   0.8233     O
C       0.4686   0.7497   0.6194     C
O       0.4794   0.1797   0.9201     O
C       0.4902   0.8752   0.5558     C
O       0.4924   0.9288   0.2379     O
O       0.4962   0.3034   0.2837     O
O       0.5038   0.6966   0.7163     O
O       0.5076   0.0712   0.7621     O
C       0.5098   0.1248   0.4442     C
O       0.5206   0.8203   0.0799     O
C       0.5314   0.2503   0.3806     C
O       0.5808   0.0821   0.1767     O
O       0.5858   0.2955   0.4223     O
C         0.59   0.9627   0.1969     C
Gd     0.60381  0.22774  0.75457    Gd
C       0.6153   0.8758   0.5037     C
C       0.6238   0.9998   0.4498     C
U      0.62533  0.71279  0.83466     U
C       0.6397   0.8031   0.0429     C
O       0.6776   0.7996   0.9463     O
H       0.7093   0.9989   0.4162     H
C       0.7307   0.8587   0.1737     C
O       0.7329   0.6346   0.5323     O
C       0.7431   0.7457   0.5034     C
C       0.7525   0.7831   0.1045     C
O       0.7639   0.4957   0.7989     O
O       0.8248   0.2295   0.7675     O
H       0.8355   0.8926   0.2633     H
C       0.8475   0.8364   0.2232     C
O       0.8525   0.5357   0.9096     O
O        0.861   0.7482    0.477     O
C       0.8642   0.4645   0.8534     C
C       0.8866   0.6868   0.0936     C
O       0.8893    0.364   0.6254     O
C       0.9001   0.2914   0.7241     C
H       0.9026    0.639   0.0457     H
C       0.9806   0.7343   0.2155     C
C       0.9982   0.6578   0.1501     C
