data_I
_chemical_name_common  '/home/zhangsd/repos/MofS-CGCNN/ML/data/TSD/clean_cifs/EHAGUR_clean'
_cell_length_a 10.53630
_cell_length_b 11.46980
_cell_length_c 13.41140
_cell_angle_alpha 69.02800
_cell_angle_beta  78.40600
_cell_angle_gamma 63.41400
_space_group_name_H-M_alt      'P 1'


loop_
_space_group_symop_operation_xyz
  'x, y, z' 

loop_
_atom_site_label
_atom_site_fract_x
_atom_site_fract_y
_atom_site_fract_z
_atom_site_type_symbol
U          0.0      0.5      0.5     U
C       0.0036   0.6585   0.1462     C
C       0.0155   0.2656   0.7861     C
H       0.0958   0.3577   0.9597     H
C       0.1036   0.7087    0.275     C
C        0.111    0.312   0.9105     C
O       0.1123   0.6377   0.3717     O
O       0.1339   0.2495   0.5209     O
C       0.1379    0.537   0.1393     C
C       0.1457   0.1648   0.7751     C
O       0.1496   0.4647   0.0852     O
H       0.1557   0.1096   0.7349     H
O        0.185   0.7662    0.228     O
O       0.2381    0.505   0.1969     O
C       0.2479   0.2151   0.8947     C
C       0.2569   0.2545   0.4916     C
C       0.2666   0.1419   0.8237     C
O        0.267   0.3664   0.4664     O
H       0.2874    0.002   0.5817     H
O       0.3263   0.1965   0.0524     O
C       0.3623   0.1927   0.9579     C
C        0.374   0.0013   0.5485     C
U      0.37618  0.28755  0.16304     U
C       0.3814   0.1243    0.494     C
Dy     0.39967  0.77058   0.2507    Dy
C       0.4083    0.041   0.7948     C
O       0.4107   0.7015   0.5816     O
O        0.417   0.9201     0.82     O
C        0.468   0.7474   0.6221     C
O       0.4836   0.1748   0.9167     O
C       0.4879   0.8759   0.5571     C
O       0.4979   0.9229   0.2481     O
O        0.498   0.3049   0.2816     O
O        0.502   0.6951   0.7184     O
O       0.5021   0.0771   0.7519     O
C       0.5121   0.1241   0.4429     C
O       0.5164   0.8252   0.0833     O
C        0.532   0.2526   0.3779     C
O        0.583   0.0799     0.18     O
O       0.5893   0.2985   0.4184     O
C       0.5917    0.959   0.2052     C
Dy     0.60033  0.22942   0.7493    Dy
C       0.6186   0.8757    0.506     C
U      0.62382  0.71245  0.83696     U
C        0.626   0.9987   0.4515     C
C       0.6377   0.8073   0.0421     C
O       0.6737   0.8035   0.9476     O
H       0.7126    0.998   0.4183     H
O        0.733   0.6336   0.5336     O
C       0.7334   0.8581   0.1763     C
C       0.7431   0.7455   0.5084     C
C       0.7521   0.7849   0.1053     C
O       0.7619    0.495   0.8031     O
O        0.815   0.2338    0.772     O
H       0.8443   0.8904   0.2651     H
O       0.8504   0.5353   0.9148     O
C       0.8543   0.8352   0.2249     C
C       0.8621    0.463   0.8607     C
O       0.8661   0.7505   0.4791     O
O       0.8877   0.3623   0.6283     O
C        0.889    0.688   0.0895     C
C       0.8964   0.2913    0.725     C
H       0.9042   0.6423   0.0403     H
C       0.9845   0.7344   0.2139     C
C       0.9964   0.3415   0.8538     C
