data_I
_chemical_name_common  '/home/zhangsd/repos/MofS-CGCNN/ML/data/TSD/clean_cifs/EHAGOL_clean'
_cell_length_a 10.56750
_cell_length_b 11.51480
_cell_length_c 13.43060
_cell_angle_alpha 69.15100
_cell_angle_beta  78.56900
_cell_angle_gamma 63.22800
_space_group_name_H-M_alt      'P 1'


loop_
_space_group_symop_operation_xyz
  'x, y, z' 

loop_
_atom_site_label
_atom_site_fract_x
_atom_site_fract_y
_atom_site_fract_z
_atom_site_type_symbol
U          0.0      0.5      0.5     U
C       0.0017   0.6567   0.1487     C
C       0.0158   0.2671   0.7856     C
H       0.0965   0.3585   0.9577     H
C       0.1034   0.7089   0.2759     C
C       0.1116   0.3126   0.9088     C
O       0.1127   0.6367   0.3735     O
C       0.1357   0.5373   0.1433     C
O       0.1362   0.2514    0.522     O
O       0.1485   0.4639   0.0869     O
C       0.1488   0.1659   0.7748     C
H       0.1601   0.1118   0.7334     H
O       0.1823    0.767   0.2294     O
O        0.237   0.5046   0.1984     O
C       0.2461   0.2155   0.8949     C
C       0.2558   0.2535   0.4934     C
O       0.2662    0.366    0.466     O
C       0.2664   0.1424    0.824     C
H       0.2866   0.0019   0.5836     H
O       0.3245   0.1978   0.0528     O
C       0.3614   0.1948   0.9566     C
C       0.3728   0.0011   0.5501     C
U      0.37572  0.28697  0.16383     U
C       0.3828   0.1245    0.495     C
Tb     0.39955  0.77046  0.24993    Tb
C       0.4082   0.0392   0.7983     C
O       0.4105   0.7031   0.5809     O
O       0.4179     0.92   0.8209     O
C        0.467   0.7489    0.622     C
O       0.4823   0.1766   0.9178     O
C       0.4881    0.877   0.5564     C
O       0.4962   0.9232   0.2457     O
O       0.4986   0.3031   0.2824     O
O       0.5014   0.6969   0.7176     O
O       0.5038   0.0768   0.7543     O
C       0.5119    0.123   0.4436     C
O       0.5177   0.8234   0.0822     O
C        0.533   0.2511    0.378     C
O       0.5821     0.08   0.1791     O
O       0.5895   0.2969   0.4191     O
C       0.5918   0.9608   0.2017     C
Tb     0.60045  0.22954  0.75007    Tb
C       0.6172   0.8755    0.505     C
U      0.62428  0.71303  0.83617     U
C       0.6272   0.9989   0.4499     C
C       0.6386   0.8052   0.0434     C
O       0.6755   0.8022   0.9472     O
H       0.7134   0.9981   0.4164     H
C       0.7336   0.8576    0.176     C
O       0.7338    0.634    0.534     O
C       0.7442   0.7465   0.5066     C
C       0.7539   0.7845   0.1051     C
O        0.763   0.4954   0.8016     O
O       0.8177    0.233   0.7706     O
H       0.8399   0.8882   0.2666     H
C       0.8512   0.8341   0.2252     C
O       0.8515   0.5361   0.9131     O
O       0.8638   0.7486    0.478     O
C       0.8643   0.4627   0.8567     C
O       0.8873   0.3633   0.6265     O
C       0.8884   0.6874   0.0912     C
C       0.8966   0.2911   0.7241     C
H       0.9035   0.6415   0.0423     H
C       0.9842   0.7329   0.2144     C
C       0.9983   0.3433   0.8513     C
