data_I
_chemical_name_common  '/home/zhangsd/repos/MofS-CGCNN/ML/data/TSD/clean_cifs/EHUCOA_clean'
_cell_length_a 11.63350
_cell_length_b 16.79610
_cell_length_c 18.15750
_cell_angle_alpha 90.00000
_cell_angle_beta  90.00000
_cell_angle_gamma 90.00000
_space_group_name_H-M_alt      'P 1'


loop_
_space_group_symop_operation_xyz
  'x, y, z' 

loop_
_atom_site_label
_atom_site_fract_x
_atom_site_fract_y
_atom_site_fract_z
_atom_site_type_symbol
C       0.0631      0.0      0.5     C
C       0.0631      0.5      0.0     C
C       0.0649   0.1038   0.8109     C
C       0.0649   0.3962   0.3109     C
C       0.0649   0.6038   0.6891     C
C       0.0649   0.8962   0.1891     C
H       0.0867   0.0771   0.5813     H
H       0.0867   0.4229   0.0813     H
H       0.0867   0.5771   0.9187     H
H       0.0867   0.9229   0.4187     H
H       0.0878   0.1691   0.7187     H
H       0.0878   0.3309   0.2187     H
H       0.0878   0.6691   0.7813     H
H       0.0878   0.8309   0.2813     H
H       0.0898   0.0399    0.903     H
H       0.0898   0.4601    0.403     H
H       0.0898   0.5399    0.597     H
H       0.0898   0.9601    0.097     H
C       0.1244    0.045   0.5473     C
C       0.1244    0.455   0.0473     C
C       0.1244    0.545   0.9527     C
C       0.1244    0.955   0.4527     C
C        0.126   0.1433   0.7569     C
C        0.126   0.3567   0.2569     C
C        0.126   0.6433   0.7431     C
C        0.126   0.8567   0.2431     C
C       0.1275   0.0673   0.8656     C
C       0.1275   0.4327   0.3656     C
C       0.1275   0.5673   0.6344     C
C       0.1275   0.9327   0.1344     C
N       0.2215   0.1991   0.0954     N
N       0.2215   0.3009   0.5954     N
N       0.2215   0.6991   0.4046     N
N       0.2215   0.8009   0.9046     N
C       0.2444   0.0435   0.5454     C
C       0.2444   0.4565   0.0454     C
C       0.2444   0.5435   0.9546     C
C       0.2444   0.9565   0.4546     C
C       0.2456   0.1439   0.7604     C
C       0.2456   0.3561   0.2604     C
C       0.2456   0.6439   0.7396     C
C       0.2456   0.8561   0.2396     C
C       0.2468    0.071   0.8651     C
C       0.2468    0.429   0.3651     C
C       0.2468    0.571   0.6349     C
C       0.2468    0.929   0.1349     C
H       0.2839   0.0756   0.5786     H
H       0.2839   0.4244   0.0786     H
H       0.2839   0.5756   0.9214     H
H       0.2839   0.9244   0.4214     H
H       0.2858   0.1709   0.7237     H
H       0.2858   0.3291   0.2237     H
H       0.2858   0.6709   0.7763     H
H       0.2858   0.8291   0.2763     H
H       0.2874   0.0464   0.9029     H
H       0.2874   0.4536   0.4029     H
H       0.2874   0.5464   0.5971     H
H       0.2874   0.9536   0.0971     H
N       0.3047      0.0      0.5     N
N       0.3047      0.5      0.0     N
N       0.3049   0.1084   0.8128     N
N       0.3049   0.3916   0.3128     N
N       0.3049   0.6084   0.6872     N
N       0.3049   0.8916   0.1872     N
C       0.3211    0.198   0.0977     C
C       0.3211    0.302   0.5977     C
C       0.3211    0.698   0.4023     C
C       0.3211    0.802   0.9023     C
Mn         0.5      0.0      0.5    Mn
N          0.5   0.0175    0.157     N
C          0.5   0.0811   0.1355     C
Mn         0.5  0.10974  0.81566    Mn
N          0.5   0.1199   0.5475     N
N          0.5   0.1455   0.9304     N
C          0.5   0.1613   0.9896     C
C          0.5   0.1871   0.5631     C
Cr         0.5   0.1964  0.09904    Cr
N          0.5    0.227   0.7612     N
C          0.5   0.2395    0.205     C
C          0.5   0.2605    0.705     C
N          0.5    0.273   0.2612     N
Cr         0.5   0.3036  0.59904    Cr
C          0.5   0.3129   0.0631     C
C          0.5   0.3387   0.4896     C
N          0.5   0.3545   0.4304     N
N          0.5   0.3801   0.0475     N
Mn         0.5  0.39026  0.31566    Mn
C          0.5   0.4189   0.6355     C
N          0.5   0.4825    0.657     N
Mn         0.5      0.5      0.0    Mn
N          0.5   0.5175    0.343     N
C          0.5   0.5811   0.3645     C
Mn         0.5  0.60974  0.68434    Mn
N          0.5   0.6199   0.9525     N
N          0.5   0.6455   0.5696     N
C          0.5   0.6613   0.5104     C
C          0.5   0.6871   0.9369     C
Cr         0.5   0.6964  0.40096    Cr
N          0.5    0.727   0.7388     N
C          0.5   0.7395    0.295     C
C          0.5   0.7605    0.795     C
N          0.5    0.773   0.2388     N
Cr         0.5   0.8036  0.90096    Cr
C          0.5   0.8129   0.4369     C
C          0.5   0.8387   0.0104     C
N          0.5   0.8545   0.0696     N
N          0.5   0.8801   0.4525     N
Mn         0.5  0.89026  0.18434    Mn
C          0.5   0.9189   0.8645     C
N          0.5   0.9825    0.843     N
C       0.6789    0.198   0.0977     C
C       0.6789    0.302   0.5977     C
C       0.6789    0.698   0.4023     C
C       0.6789    0.802   0.9023     C
N       0.6951   0.1084   0.8128     N
N       0.6951   0.3916   0.3128     N
N       0.6951   0.6084   0.6872     N
N       0.6951   0.8916   0.1872     N
N       0.6953      0.0      0.5     N
N       0.6953      0.5      0.0     N
H       0.7126   0.0464   0.9029     H
H       0.7126   0.4536   0.4029     H
H       0.7126   0.5464   0.5971     H
H       0.7126   0.9536   0.0971     H
H       0.7142   0.1709   0.7237     H
H       0.7142   0.3291   0.2237     H
H       0.7142   0.6709   0.7763     H
H       0.7142   0.8291   0.2763     H
H       0.7161   0.0756   0.5786     H
H       0.7161   0.4244   0.0786     H
H       0.7161   0.5756   0.9214     H
H       0.7161   0.9244   0.4214     H
C       0.7532    0.071   0.8651     C
C       0.7532    0.429   0.3651     C
C       0.7532    0.571   0.6349     C
C       0.7532    0.929   0.1349     C
C       0.7544   0.1439   0.7604     C
C       0.7544   0.3561   0.2604     C
C       0.7544   0.6439   0.7396     C
C       0.7544   0.8561   0.2396     C
C       0.7556   0.0435   0.5454     C
C       0.7556   0.4565   0.0454     C
C       0.7556   0.5435   0.9546     C
C       0.7556   0.9565   0.4546     C
N       0.7785   0.1991   0.0954     N
N       0.7785   0.3009   0.5954     N
N       0.7785   0.6991   0.4046     N
N       0.7785   0.8009   0.9046     N
C       0.8725   0.0673   0.8656     C
C       0.8725   0.4327   0.3656     C
C       0.8725   0.5673   0.6344     C
C       0.8725   0.9327   0.1344     C
C        0.874   0.1433   0.7569     C
C        0.874   0.3567   0.2569     C
C        0.874   0.6433   0.7431     C
C        0.874   0.8567   0.2431     C
C       0.8756    0.045   0.5473     C
C       0.8756    0.455   0.0473     C
C       0.8756    0.545   0.9527     C
C       0.8756    0.955   0.4527     C
H       0.9102   0.0399    0.903     H
H       0.9102   0.4601    0.403     H
H       0.9102   0.5399    0.597     H
H       0.9102   0.9601    0.097     H
H       0.9122   0.1691   0.7187     H
H       0.9122   0.3309   0.2187     H
H       0.9122   0.6691   0.7813     H
H       0.9122   0.8309   0.2813     H
H       0.9133   0.0771   0.5813     H
H       0.9133   0.4229   0.0813     H
H       0.9133   0.5771   0.9187     H
H       0.9133   0.9229   0.4187     H
C       0.9351   0.1038   0.8109     C
C       0.9351   0.3962   0.3109     C
C       0.9351   0.6038   0.6891     C
C       0.9351   0.8962   0.1891     C
C       0.9369      0.0      0.5     C
C       0.9369      0.5      0.0     C
