data_I
_chemical_name_common  '/home/zhangsd/repos/MofS-CGCNN/ML/data/TSD/clean_cifs/EJORAY_clean'
_cell_length_a 10.78800
_cell_length_b 11.25200
_cell_length_c 11.84000
_cell_angle_alpha 100.85400
_cell_angle_beta  110.28900
_cell_angle_gamma 99.77700
_space_group_name_H-M_alt      'P 1'


loop_
_space_group_symop_operation_xyz
  'x, y, z' 

loop_
_atom_site_label
_atom_site_fract_x
_atom_site_fract_y
_atom_site_fract_z
_atom_site_type_symbol
H       0.0247   0.4135   0.0999     H
C       0.0291   0.3519   0.1426     C
O       0.0359  0.05865   0.3101     O
C       0.0388   0.1636   0.2616     C
C       0.0768   0.7921    0.769     C
C       0.0812   0.6961   0.8287     C
C       0.1248   0.0737   0.4317     C
C        0.145   0.3071    0.178     C
C        0.148    0.964   0.4621     C
H         0.15   0.8254   0.7503     H
C       0.1508   0.2127   0.2384     C
H        0.165   0.2603   0.4955     H
C       0.1822   0.1882   0.5183     C
C       0.2033   0.6421   0.8578     C
O      0.22589  0.58884  0.94418     O
H       0.2287    0.183   0.2627     H
C       0.2344   0.9726   0.5842     C
O      0.24508    0.422  0.07079     O
H       0.2523      0.9   0.6057     H
O      0.26263  0.34026  0.81155     O
C       0.2661   0.3602   0.1508     C
C       0.2668   0.1959   0.6409     C
O       0.2702   0.6536  0.79106     O
C       0.2942   0.0864    0.674     C
C       0.3157   0.3244   0.7327     C
Cu     0.35707  0.49001  0.98872    Cu
O       0.3776   0.3392  0.21032     O
O       0.3844  0.98636  0.83034     O
C       0.3898   0.0913   0.8032     C
O       0.3975    0.407   0.7183     O
Cu     0.43914    0.615  0.78904    Cu
O       0.4712   0.1905  0.87551     O
O      0.49959  0.39988  0.04148     O
Cu         0.5      0.0      0.0    Cu
O      0.50041  0.60012  0.95852     O
O       0.5288   0.8095  0.12449     O
Cu     0.56086    0.385  0.21096    Cu
O       0.6025    0.593   0.2817     O
C       0.6102   0.9087   0.1968     C
O       0.6156  0.01364  0.16966     O
O       0.6224   0.6608  0.78968     O
Cu     0.64293  0.50999  0.01128    Cu
C       0.6843   0.6756   0.2673     C
C       0.7058   0.9136    0.326     C
O       0.7298   0.3464  0.20894     O
C       0.7332   0.8041   0.3591     C
C       0.7339   0.6398   0.8492     C
O      0.73737  0.65974  0.18845     O
H       0.7477      0.1   0.3943     H
O      0.75492    0.578  0.92921     O
C       0.7656   0.0274   0.4158     C
H       0.7713    0.817   0.7373     H
O      0.77411  0.41116  0.05582     O
C       0.7967   0.3579   0.1422     C
C       0.8178   0.8118   0.4817     C
H        0.835   0.7397   0.5045     H
C       0.8492   0.7873   0.7616     C
H         0.85   0.1746   0.2497     H
C        0.852    0.036   0.5379     C
C        0.855   0.6929    0.822     C
C       0.8752   0.9263   0.5683     C
C       0.9188   0.3039   0.1713     C
C       0.9232   0.2079    0.231     C
C       0.9612   0.8364   0.7384     C
O       0.9641  0.94135   0.6899     O
C       0.9709   0.6481   0.8574     C
H       0.9753   0.5865   0.9001     H
