data_I
_chemical_name_common  '/home/zhangsd/repos/MofS-CGCNN/ML/data/TSD/clean_cifs/EKEVAT_clean'
_cell_length_a 19.81000
_cell_length_b 13.15300
_cell_length_c  9.80600
_cell_angle_alpha 90.00000
_cell_angle_beta  113.19600
_cell_angle_gamma 90.00000
_space_group_name_H-M_alt      'P 1'


loop_
_space_group_symop_operation_xyz
  'x, y, z' 

loop_
_atom_site_label
_atom_site_fract_x
_atom_site_fract_y
_atom_site_fract_z
_atom_site_type_symbol
Er         0.0  0.05874     0.75    Er
N          0.0   0.1634     0.25     N
O          0.0   0.2547     0.25     O
O          0.0   0.7453     0.75     O
N          0.0   0.8366     0.75     N
Er         0.0  0.94126     0.25    Er
O      0.04069   0.1129    0.204     O
O      0.04069   0.8871    0.704     O
N      0.06856   0.2146   0.8819     N
N      0.06856   0.7854   0.3819     N
O      0.08108   0.0843    0.647     O
O      0.08108   0.9157    0.147     O
O      0.08805   0.0076   0.9629     O
O      0.08805   0.9924   0.4629     O
H       0.0884   0.2869    0.721     H
H       0.0884   0.7131    0.221     H
H       0.0918    0.199   0.0946     H
H       0.0918    0.801   0.5946     H
C       0.1004   0.2803   0.8223     C
C       0.1004   0.7197   0.3223     C
N      0.10221   0.2316   0.0293     N
N      0.10221   0.7684   0.5293     N
C        0.114   0.0527   0.5692     C
C        0.114   0.9473   0.0692     C
H         0.12   0.3183   0.2996     H
H         0.12   0.6817   0.7996     H
C       0.1536   0.3374   0.9305     C
C       0.1536   0.6626   0.4305     C
C       0.1538    0.305   0.0633     C
C       0.1538    0.695   0.5633     C
C       0.1678   0.3408   0.3229     C
C       0.1678   0.6592   0.8229     C
H       0.1831   0.3876   0.9158     H
H       0.1831   0.6124   0.4158     H
H       0.1894   0.3743   0.5358     H
H       0.1894   0.6257   0.0358     H
C       0.1909   0.0905   0.6081     C
C       0.1909   0.9095   0.1081     C
H       0.1938   0.0623   0.4073     H
H       0.1938   0.9377   0.9073     H
C       0.1968    0.339   0.2156     C
C       0.1968    0.661   0.7156     C
C        0.209   0.3754   0.4638     C
C        0.209   0.6246   0.9638     C
H       0.2115   0.1296   0.8183     H
H       0.2115   0.8704   0.3183     H
C       0.2209   0.0882   0.5014     C
C       0.2209   0.9118   0.0014     C
C       0.2319   0.1273   0.7476     C
C       0.2319   0.8727   0.2476     C
C       0.2681   0.3727   0.2524     C
C       0.2681   0.6273   0.7524     C
C       0.2791   0.4118   0.4986     C
C       0.2791   0.5882   0.9986     C
H       0.2885   0.3704   0.1817     H
H       0.2885   0.6296   0.6817     H
C        0.291   0.1246   0.5362     C
C        0.291   0.8754   0.0362     C
C       0.3032    0.161   0.7844     C
C       0.3032    0.839   0.2844     C
H       0.3062   0.4377   0.5927     H
H       0.3062   0.5623   0.0927     H
C       0.3091   0.4095   0.3919     C
C       0.3091   0.5905   0.8919     C
H       0.3106   0.1257   0.4642     H
H       0.3106   0.8743   0.9642     H
H       0.3169   0.1124   0.0842     H
H       0.3169   0.8876   0.5842     H
C       0.3322   0.1592   0.6771     C
C       0.3322   0.8408   0.1771     C
C       0.3462    0.195   0.9367     C
C       0.3462    0.805   0.4367     C
C       0.3464   0.1626   0.0695     C
C       0.3464   0.8374   0.5695     C
H         0.38   0.1817   0.7004     H
H         0.38   0.8183   0.2004     H
C        0.386   0.4473   0.4308     C
C        0.386   0.5527   0.9308     C
N      0.39779   0.2684   0.9707     N
N      0.39779   0.7316   0.4707     N
C       0.3996   0.2197   0.1777     C
C       0.3996   0.7803   0.6777     C
H       0.4082    0.301   0.9054     H
H       0.4082    0.699   0.4054     H
H       0.4116   0.2131    0.279     H
H       0.4116   0.7869    0.779     H
O      0.41195   0.4924   0.0371     O
O      0.41195   0.5076   0.5371     O
O      0.41892   0.4157    0.353     O
O      0.41892   0.5843    0.853     O
N      0.43144   0.2854   0.1181     N
N      0.43144   0.7146   0.6181     N
O      0.45931   0.3871    0.796     O
O      0.45931   0.6129    0.296     O
O          0.5   0.2453     0.75     O
N          0.5   0.3366     0.75     N
Er         0.5  0.44126     0.25    Er
Er         0.5  0.55874     0.75    Er
N          0.5   0.6634     0.25     N
O          0.5   0.7547     0.25     O
O      0.54069   0.3871    0.704     O
O      0.54069   0.6129    0.204     O
N      0.56856   0.2854   0.3819     N
N      0.56856   0.7146   0.8819     N
O      0.58108   0.4157    0.147     O
O      0.58108   0.5843    0.647     O
O      0.58805   0.4924   0.4629     O
O      0.58805   0.5076   0.9629     O
H       0.5884   0.2131    0.221     H
H       0.5884   0.7869    0.721     H
H       0.5918    0.301   0.5946     H
H       0.5918    0.699   0.0946     H
C       0.6004   0.2197   0.3223     C
C       0.6004   0.7803   0.8223     C
N      0.60221   0.2684   0.5293     N
N      0.60221   0.7316   0.0293     N
C        0.614   0.4473   0.0692     C
C        0.614   0.5527   0.5692     C
H         0.62   0.1817   0.7996     H
H         0.62   0.8183   0.2996     H
C       0.6536   0.1626   0.4305     C
C       0.6536   0.8374   0.9305     C
C       0.6538    0.195   0.5633     C
C       0.6538    0.805   0.0633     C
C       0.6678   0.1592   0.8229     C
C       0.6678   0.8408   0.3229     C
H       0.6831   0.1124   0.4158     H
H       0.6831   0.8876   0.9158     H
H       0.6894   0.1257   0.0358     H
H       0.6894   0.8743   0.5358     H
C       0.6909   0.4095   0.1081     C
C       0.6909   0.5905   0.6081     C
H       0.6938   0.4377   0.9073     H
H       0.6938   0.5623   0.4073     H
C       0.6968    0.161   0.7156     C
C       0.6968    0.839   0.2156     C
C        0.709   0.1246   0.9638     C
C        0.709   0.8754   0.4638     C
H       0.7115   0.3704   0.3183     H
H       0.7115   0.6296   0.8183     H
C       0.7209   0.4118   0.0014     C
C       0.7209   0.5882   0.5014     C
C       0.7319   0.3727   0.2476     C
C       0.7319   0.6273   0.7476     C
C       0.7681   0.1273   0.7524     C
C       0.7681   0.8727   0.2524     C
C       0.7791   0.0882   0.9986     C
C       0.7791   0.9118   0.4986     C
H       0.7885   0.1296   0.6817     H
H       0.7885   0.8704   0.1817     H
C        0.791   0.3754   0.0362     C
C        0.791   0.6246   0.5362     C
C       0.8032    0.339   0.2844     C
C       0.8032    0.661   0.7844     C
H       0.8062   0.0623   0.0927     H
H       0.8062   0.9377   0.5927     H
C       0.8091   0.0905   0.8919     C
C       0.8091   0.9095   0.3919     C
H       0.8106   0.3743   0.9642     H
H       0.8106   0.6257   0.4642     H
H       0.8169   0.3876   0.5842     H
H       0.8169   0.6124   0.0842     H
C       0.8322   0.3408   0.1771     C
C       0.8322   0.6592   0.6771     C
C       0.8462    0.305   0.4367     C
C       0.8462    0.695   0.9367     C
C       0.8464   0.3374   0.5695     C
C       0.8464   0.6626   0.0695     C
H         0.88   0.3183   0.2004     H
H         0.88   0.6817   0.7004     H
C        0.886   0.0527   0.9308     C
C        0.886   0.9473   0.4308     C
N      0.89779   0.2316   0.4707     N
N      0.89779   0.7684   0.9707     N
C       0.8996   0.2803   0.6777     C
C       0.8996   0.7197   0.1777     C
H       0.9082    0.199   0.4054     H
H       0.9082    0.801   0.9054     H
H       0.9116   0.2869    0.779     H
H       0.9116   0.7131    0.279     H
O      0.91195   0.0076   0.5371     O
O      0.91195   0.9924   0.0371     O
O      0.91892   0.0843    0.853     O
O      0.91892   0.9157    0.353     O
N      0.93144   0.2146   0.6181     N
N      0.93144   0.7854   0.1181     N
O      0.95931   0.1129    0.296     O
O      0.95931   0.8871    0.796     O
