data_I
_chemical_name_common  '/home/zhangsd/repos/MofS-CGCNN/ML/data/TSD/clean_cifs/EKIJEP01_clean'
_cell_length_a 10.91100
_cell_length_b  6.41300
_cell_length_c 17.04500
_cell_angle_alpha 90.00000
_cell_angle_beta  105.86700
_cell_angle_gamma 90.00000
_space_group_name_H-M_alt      'P 1'


loop_
_space_group_symop_operation_xyz
  'x, y, z' 

loop_
_atom_site_label
_atom_site_fract_x
_atom_site_fract_y
_atom_site_fract_z
_atom_site_type_symbol
C       0.0187   0.0056   0.6308     C
C       0.0187   0.4944   0.1308     C
H       0.0265   0.7361    0.695     H
H       0.0265   0.7639    0.195     H
C       0.0384   0.1522   0.0618     C
C       0.0384   0.3478   0.5618     C
H       0.0509   0.0304   0.4123     H
H       0.0509   0.4696   0.9123     H
C       0.0645   0.6341   0.1954     C
C       0.0645   0.8659   0.6954     C
C        0.078   0.1998   0.6312     C
C        0.078   0.3002   0.1312     C
C       0.0849   0.5693   0.4602     C
C       0.0849   0.9307   0.9602     C
C       0.1223   0.0849   0.0202     C
C       0.1223   0.4151   0.5202     C
H       0.1438   0.6181   0.4342     H
H       0.1438   0.8819   0.9342     H
C       0.1673   0.5769   0.2601     C
C       0.1673   0.9231   0.7601     C
C       0.1785   0.2445   0.1986     C
C       0.1785   0.2555   0.6986     C
H       0.2001   0.6724   0.3016     H
H       0.2001   0.8276   0.8016     H
H       0.2171   0.1147      0.2     H
H       0.2171   0.3853      0.7     H
C       0.2214   0.1168   0.7642     C
C       0.2214   0.3832   0.2642     C
C        0.259   0.1704   0.0365     C
C        0.259   0.3296   0.5365     C
O       0.2759   0.1384   0.5346     O
O       0.2759   0.3616   0.0346     O
C       0.3304   0.1849    0.836     C
C       0.3304   0.3151    0.336     C
O       0.3433   0.0326   0.0486     O
O       0.3433   0.4674   0.5486     O
H       0.3523   0.6903   0.9535     H
H       0.3523   0.8097   0.4535     H
O       0.3599   0.1264   0.3452     O
O       0.3599   0.3736   0.8452     O
O       0.3842   0.0373   0.8815     O
O       0.3842   0.4627   0.3815     O
O       0.4431   0.6902   0.9826     O
O       0.4431   0.8098   0.4826     O
Co     0.46564  0.00356  0.58421    Co
Co     0.46564  0.49644  0.08421    Co
Co         0.5      0.0      0.0    Co
Co         0.5      0.5      0.5    Co
Co     0.53436  0.50356  0.91579    Co
Co     0.53436  0.99644  0.41579    Co
O       0.5569   0.1902   0.5174     O
O       0.5569   0.3098   0.0174     O
O       0.6158   0.5373   0.6185     O
O       0.6158   0.9627   0.1185     O
O       0.6401   0.6264   0.1548     O
O       0.6401   0.8736   0.6548     O
H       0.6477   0.1903   0.5465     H
H       0.6477   0.3097   0.0465     H
O       0.6567   0.5326   0.4514     O
O       0.6567   0.9674   0.9514     O
C       0.6696   0.6849    0.664     C
C       0.6696   0.8151    0.164     C
O       0.7241   0.6384   0.9654     O
O       0.7241   0.8616   0.4654     O
C        0.741   0.6704   0.4635     C
C        0.741   0.8296   0.9635     C
C       0.7786   0.6168   0.7358     C
C       0.7786   0.8832   0.2358     C
H       0.7829   0.6147      0.3     H
H       0.7829   0.8853      0.8     H
H       0.7999   0.1724   0.1984     H
H       0.7999   0.3276   0.6984     H
C       0.8215   0.7445   0.3014     C
C       0.8215   0.7555   0.8014     C
C       0.8327   0.0769   0.2399     C
C       0.8327   0.4231   0.7399     C
H       0.8562   0.1181   0.0658     H
H       0.8562   0.3819   0.5658     H
C       0.8777   0.5849   0.4798     C
C       0.8777   0.9151   0.9798     C
C       0.9151   0.0693   0.0398     C
C       0.9151   0.4307   0.5398     C
C        0.922   0.6998   0.8688     C
C        0.922   0.8002   0.3688     C
C       0.9355   0.1341   0.3046     C
C       0.9355   0.3659   0.8046     C
H       0.9491   0.5304   0.0877     H
H       0.9491   0.9696   0.5877     H
C       0.9616   0.6522   0.4382     C
C       0.9616   0.8478   0.9382     C
H       0.9735   0.2361    0.805     H
H       0.9735   0.2639    0.305     H
C       0.9813   0.5056   0.8692     C
C       0.9813   0.9944   0.3692     C
