data_I
_chemical_name_common  '/home/zhangsd/repos/MofS-CGCNN/ML/data/TSD/clean_cifs/ELEROD_clean'
_cell_length_a  7.03280
_cell_length_b 18.15800
_cell_length_c 24.66000
_cell_angle_alpha 90.00000
_cell_angle_beta  90.00000
_cell_angle_gamma 99.54000
_space_group_name_H-M_alt      'P 1'


loop_
_space_group_symop_operation_xyz
  'x, y, z' 

loop_
_atom_site_label
_atom_site_fract_x
_atom_site_fract_y
_atom_site_fract_z
_atom_site_type_symbol
I          0.0      0.5      0.0     I
I          0.0      0.5      0.5     I
C        0.024   0.7854    0.648     C
C        0.024   0.7854    0.852     C
I      0.02427   0.5569  0.17022     I
I      0.02427   0.5569  0.32978     I
C        0.025   0.3467   0.1556     C
C        0.025   0.3467   0.3444     C
C        0.051    0.143   0.1373     C
C        0.051    0.143   0.3627     C
O        0.062   0.9156   0.6285     O
O        0.062   0.9156   0.8715     O
O        0.074   0.0498   0.5629     O
O        0.074   0.0498   0.9371     O
C        0.094   0.2794   0.1455     C
C        0.094   0.2794   0.3545     C
H       0.0945   0.1657   0.6215     H
H       0.0945   0.1657   0.8785     H
H       0.0993   0.2913   0.6378     H
H       0.0993   0.2913   0.8622     H
H       0.1132   0.3924   0.1536     H
H       0.1132   0.3924   0.3464     H
H       0.1138   0.2617     0.75     H
C       0.1157   0.2009   0.5927     C
C       0.1157   0.2009   0.9073     C
C        0.121   0.2762   0.6017     C
C        0.121   0.2762   0.8983     C
C       0.1409   0.0967   0.5264     C
C       0.1409   0.0967   0.9736     C
C       0.1425   0.1793   0.5405     C
C       0.1425   0.1793   0.9595     C
N       0.1534     0.33   0.5637     N
N       0.1534     0.33   0.9363     N
N       0.1623   0.6512    0.668     N
N       0.1623   0.6512    0.832     N
C       0.1744   0.2318   0.0008     C
C       0.1744   0.2318   0.4992     C
Cu      0.1744  0.44033   0.5807    Cu
Cu      0.1744  0.44033   0.9193    Cu
C       0.1782   0.3064   0.5119     C
C       0.1782   0.3064   0.9881     C
O       0.1869   0.8474     0.25     O
H       0.1933   0.2169   0.0371     H
H       0.1933   0.2169   0.4629     H
H       0.1987   0.3424   0.0163     H
H       0.1987   0.3424   0.4837     H
O       0.2079   0.0832   0.0183     O
O       0.2079   0.0832   0.4817     O
C        0.216    0.786   0.6599     C
C        0.216    0.786   0.8401     C
Eu     0.21929  0.01571  0.09829    Eu
Eu     0.21929  0.01571  0.40171    Eu
H       0.2227   0.7106     0.25     H
H       0.2257   0.2805   0.1369     H
H       0.2257   0.2805   0.3631     H
Cu      0.2288  0.43418     0.75    Cu
O       0.2321   0.1469   0.1357     O
O       0.2321   0.1469   0.3643     O
Cu      0.2484  0.55385   0.6848    Cu
Cu      0.2484  0.55385   0.8152    Cu
C        0.251   0.2682     0.75     C
H       0.2561   0.1588     0.75     H
C        0.274   0.7178   0.6702     C
C        0.274   0.7178   0.8298     C
H       0.2914    0.803   0.5281     H
H       0.2914    0.803   0.9719     H
O       0.3031    0.923   0.0297     O
O       0.3031    0.923   0.4703     O
H       0.3053   0.8314   0.6611     H
H       0.3053   0.8314   0.8389     H
H       0.3184   0.6829   0.5487     H
H       0.3184   0.6829   0.9513     H
C       0.3202   0.7708   0.0001     C
C       0.3202   0.7708   0.4999     C
C        0.326   0.8767   0.0671     C
C        0.326   0.8767   0.4329     C
O       0.3313   0.8964   0.1155     O
O       0.3313   0.8964   0.3845     O
C       0.3349   0.6993   0.5121     C
C       0.3349   0.6993   0.9879     C
C        0.336   0.2064     0.75     C
C       0.3458    0.798   0.0517     C
C       0.3458    0.798   0.4483     C
N         0.35   0.3385     0.75     N
C        0.359   0.7165     0.25     C
C        0.362   0.8533     0.25     C
N        0.372   0.6512   0.0258     N
N        0.372   0.6512   0.4742     N
Cu       0.379  0.54442  0.00767    Cu
Cu       0.379  0.54442  0.49233    Cu
C        0.379   0.7463   0.0925     C
C        0.379   0.7463   0.4075     C
H       0.3794   0.6015     0.25     H
H       0.3907   0.7613   0.1294     H
H       0.3907   0.7613   0.3706     H
C       0.3945   0.6756   0.0781     C
C       0.3945   0.6756   0.4219     C
H       0.4058   0.7188   0.6796     H
H       0.4058   0.7188   0.8204     H
H       0.4218   0.6418   0.1053     H
H       0.4218   0.6418   0.3947     H
C        0.453   0.6504     0.25     C
I      0.46789  0.44153     0.25     I
C        0.472   0.7904     0.25     C
O        0.473   0.9195     0.25     O
I       0.4896  0.47047  0.09017     I
I       0.4896  0.47047  0.40983     I
I       0.5104  0.52953  0.59017     I
I       0.5104  0.52953  0.90983     I
O        0.527   0.0805     0.75     O
C        0.528   0.2096     0.75     C
I      0.53211  0.55847     0.75     I
C        0.547   0.3496     0.75     C
H       0.5782   0.3582   0.6053     H
H       0.5782   0.3582   0.8947     H
H       0.5942   0.2812   0.1796     H
H       0.5942   0.2812   0.3204     H
C       0.6055   0.3244   0.5781     C
C       0.6055   0.3244   0.9219     C
H       0.6093   0.2387   0.6294     H
H       0.6093   0.2387   0.8706     H
H       0.6206   0.3985     0.75     H
C        0.621   0.2537   0.5925     C
C        0.621   0.2537   0.9075     C
Cu       0.621  0.45558  0.50767    Cu
Cu       0.621  0.45558  0.99233    Cu
N        0.628   0.3488   0.5258     N
N        0.628   0.3488   0.9742     N
C        0.638   0.1467     0.75     C
C        0.641   0.2835     0.75     C
N         0.65   0.6615     0.25     N
C       0.6542    0.202   0.5517     C
C       0.6542    0.202   0.9483     C
C        0.664   0.7936     0.25     C
C       0.6651   0.3007   0.0121     C
C       0.6651   0.3007   0.4879     C
O       0.6687   0.1036   0.6155     O
O       0.6687   0.1036   0.8845     O
C        0.674   0.1233   0.5671     C
C        0.674   0.1233   0.9329     C
C       0.6798   0.2292   0.5001     C
C       0.6798   0.2292   0.9999     C
H       0.6816   0.3171   0.0487     H
H       0.6816   0.3171   0.4513     H
H       0.6947   0.1686   0.1611     H
H       0.6947   0.1686   0.3389     H
O       0.6969    0.077   0.5297     O
O       0.6969    0.077   0.9703     O
H       0.7086    0.197   0.0281     H
H       0.7086    0.197   0.4719     H
C        0.726   0.2822   0.1702     C
C        0.726   0.2822   0.3298     C
H       0.7439   0.8412     0.25     H
C        0.749   0.7318     0.25     C
Cu      0.7516  0.44615   0.1848    Cu
Cu      0.7516  0.44615   0.3152    Cu
O       0.7679   0.8531   0.6357     O
O       0.7679   0.8531   0.8643     O
Cu      0.7712  0.56582     0.25    Cu
H       0.7743   0.7195   0.6369     H
H       0.7743   0.7195   0.8631     H
H       0.7773   0.2894     0.75     H
Eu     0.78071  0.98429  0.59829    Eu
Eu     0.78071  0.98429  0.90171    Eu
C        0.784    0.214   0.1599     C
C        0.784    0.214   0.3401     C
O       0.7921   0.9168   0.5183     O
O       0.7921   0.9168   0.9817     O
H       0.8013   0.6576   0.5163     H
H       0.8013   0.6576   0.9837     H
H       0.8067   0.7831   0.5371     H
H       0.8067   0.7831   0.9629     H
O       0.8131   0.1526     0.75     O
C       0.8218   0.6936   0.0119     C
C       0.8218   0.6936   0.4881     C
Cu      0.8256  0.55967   0.0807    Cu
Cu      0.8256  0.55967   0.4193    Cu
C       0.8256   0.7682   0.5008     C
C       0.8256   0.7682   0.9992     C
N       0.8377   0.3488    0.168     N
N       0.8377   0.3488    0.332     N
N       0.8466     0.67   0.0637     N
N       0.8466     0.67   0.4363     N
C       0.8575   0.8207   0.0405     C
C       0.8575   0.8207   0.4595     C
C       0.8591   0.9033   0.0264     C
C       0.8591   0.9033   0.4736     C
C        0.879   0.7238   0.1017     C
C        0.879   0.7238   0.3983     C
C       0.8843   0.7991   0.0927     C
C       0.8843   0.7991   0.4073     C
H       0.8862   0.7383     0.25     H
H       0.8868   0.6076   0.6536     H
H       0.8868   0.6076   0.8464     H
H       0.9007   0.7087   0.1378     H
H       0.9007   0.7087   0.3622     H
H       0.9055   0.8343   0.1215     H
H       0.9055   0.8343   0.3785     H
C        0.906   0.7206   0.6455     C
C        0.906   0.7206   0.8545     C
O        0.926   0.9502   0.0629     O
O        0.926   0.9502   0.4371     O
O        0.938   0.0844   0.1285     O
O        0.938   0.0844   0.3715     O
C        0.949    0.857   0.6373     C
C        0.949    0.857   0.8627     C
C        0.975   0.6533   0.6556     C
C        0.975   0.6533   0.8444     C
I      0.97573   0.4431  0.67022     I
I      0.97573   0.4431  0.82978     I
C        0.976   0.2146    0.148     C
C        0.976   0.2146    0.352     C
