data_I
_chemical_name_common  '/home/zhangsd/repos/MofS-CGCNN/ML/data/TSD/clean_cifs/EMEGEJ_clean'
_cell_length_a  8.70970
_cell_length_b 14.07380
_cell_length_c 16.20650
_cell_angle_alpha 114.08500
_cell_angle_beta  91.02800
_cell_angle_gamma 94.46300
_space_group_name_H-M_alt      'P 1'


loop_
_space_group_symop_operation_xyz
  'x, y, z' 

loop_
_atom_site_label
_atom_site_fract_x
_atom_site_fract_y
_atom_site_fract_z
_atom_site_type_symbol
O       0.0062   0.0976   0.5777     O
C       0.0107   0.7618   0.2356     C
C       0.0112   0.6918   0.1468     C
C       0.0171   0.9566   0.6998     C
H       0.0223   0.3297    0.421     H
H       0.0269    0.067   0.8776     H
C         0.03    0.647    0.726     C
H       0.0318   0.6489   0.7866     H
O       0.0458   0.9065   0.6165     O
C        0.058   0.4113   0.8813     C
H       0.0581   0.8309   0.2537     H
C       0.0584   0.2677    0.701     C
H       0.0585   0.7129   0.1039     H
C       0.0626   0.4888   0.9793     C
C       0.0693   0.4885   0.4843     C
C       0.0782   0.1893    0.608     C
H       0.0789   0.7135   0.7279     H
H       0.0851   0.5894   0.6857     H
H       0.1022   0.6435   0.4287     H
O       0.1065   0.0017   0.2787     O
C         0.11   0.3812   0.4259     C
H       0.1175   0.3632   0.0667     H
C       0.1188   0.0333   0.8604     C
C       0.1217     0.37   0.7279     C
C       0.1218   0.4403   0.8171     C
C       0.1376   0.9686    0.771     C
S        0.155   0.3692   0.3148     S
H       0.1653   0.3918   0.6844     H
H       0.1666   0.5099   0.8344     H
O       0.1716   0.2136   0.5615     O
Eu     0.18541  0.04422  0.43851    Eu
C       0.1891   0.6476   0.4667     C
C        0.197   0.5728   0.5024     C
H       0.1998    0.365   0.4545     H
H       0.2115   0.4449   0.1567     H
H       0.2159   0.5835   0.0829     H
C       0.2202   0.3877   0.0973     C
C       0.2236   0.5269   0.0221     C
H       0.2266   0.0943   0.9864     H
C       0.2378   0.0482   0.9252     C
H       0.2653     0.33    0.105     H
C       0.2689   0.9156   0.7474     C
H       0.2806   0.8698   0.6862     H
H       0.2808   0.5579   0.9854     H
H       0.2951   0.7776   0.4613     H
C       0.3044    0.727   0.4854     C
O       0.3217   0.1764   0.3945     O
C       0.3274   0.5801   0.5566     C
S       0.3346   0.4311    0.034     S
H       0.3358   0.5299   0.5812     H
C       0.3382   0.9326   0.0491     C
C       0.3731   0.9972   0.9023     C
C       0.3832   0.9293   0.8132     C
C       0.4348   0.7341   0.5395     C
C       0.4402   0.1806   0.4402     C
C       0.4444   0.6591   0.5751     C
O       0.4566   0.1118   0.4719     O
H       0.4678   0.3373   0.3878     H
H       0.4708   0.8907   0.7963     H
C       0.4954   0.9833   0.0306     C
C       0.5046   0.0167   0.9694     C
H       0.5292   0.1093   0.2037     H
H       0.5322   0.6627   0.6122     H
O       0.5434   0.8882   0.5281     O
C       0.5556   0.3409   0.4249     C
C       0.5598   0.8194   0.5598     C
C       0.5652   0.2659   0.4605     C
C       0.6168   0.0707   0.1868     C
C       0.6269   0.0028   0.0977     C
C       0.6618   0.0674   0.9509     C
H       0.6642   0.4701   0.4188     H
S       0.6654   0.5689    0.966     S
C       0.6726   0.4199   0.4434     C
O       0.6783   0.8236   0.6055     O
C       0.6956    0.273   0.5146     C
H       0.7049   0.2224   0.5387     H
H       0.7192   0.4421   0.0146     H
H       0.7194   0.1302   0.3138     H
C       0.7311   0.0844   0.2526     C
H       0.7347     0.67    0.895     H
C       0.7622   0.9518   0.0748     C
H       0.7734   0.9057   0.0136     H
C       0.7764   0.4731   0.9779     C
C       0.7798   0.6123   0.9027     C
H       0.7841   0.4165   0.9171     H
H       0.7885   0.5551   0.8433     H
H       0.8002    0.635   0.5455     H
C        0.803   0.4272   0.4976     C
C       0.8109   0.3524   0.5333     C
Eu     0.81459  0.95578  0.56149    Eu
O       0.8284   0.7864   0.4385     O
H       0.8334   0.4901   0.1656     H
H       0.8347   0.6082   0.3156     H
S        0.845   0.6308   0.6852     S
C       0.8624   0.0314    0.229     C
C       0.8782   0.5597   0.1829     C
C       0.8783     0.63   0.2721     C
C       0.8812   0.9667   0.1396     C
H       0.8825   0.6368   0.9333     H
C         0.89   0.6188   0.5741     C
O       0.8935   0.9983   0.7213     O
H       0.8978   0.3565   0.5713     H
H       0.9149   0.4106   0.3143     H
H       0.9211   0.2865   0.2721     H
C       0.9218   0.8107    0.392     C
C       0.9307   0.5115   0.5157     C
C       0.9374   0.5112   0.0207     C
H       0.9415   0.2871   0.8961     H
C       0.9416   0.7323    0.299     C
H       0.9419   0.1691   0.7463     H
C        0.942   0.5887   0.1187     C
O       0.9542   0.0935   0.3835     O
H       0.9682   0.3511   0.2134     H
C         0.97    0.353    0.274     C
H       0.9731    0.933   0.1224     H
H       0.9777   0.6703    0.579     H
C       0.9829   0.0434   0.3002     C
C       0.9888   0.3082   0.8532     C
C       0.9893   0.2382   0.7644     C
O       0.9938   0.9024   0.4223     O
