data_I
_chemical_name_common  '/home/zhangsd/repos/MofS-CGCNN/ML/data/TSD/clean_cifs/EMIYEF_clean'
_cell_length_a  9.51930
_cell_length_b 10.95340
_cell_length_c 11.49350
_cell_angle_alpha 91.78600
_cell_angle_beta  113.80000
_cell_angle_gamma 105.46900
_space_group_name_H-M_alt      'P 1'


loop_
_space_group_symop_operation_xyz
  'x, y, z' 

loop_
_atom_site_label
_atom_site_fract_x
_atom_site_fract_y
_atom_site_fract_z
_atom_site_type_symbol
Co         0.0      0.5      0.5    Co
C       0.0199   0.3583   0.7352     C
C       0.0201   0.7332   0.1944     C
N       0.0402   0.2725   0.0414     N
H       0.0503   0.4176    0.265     H
N       0.0652   0.6503    0.392     N
C       0.0885   0.2847    0.943     C
C       0.1074   0.3717   0.3229     C
H       0.1102   0.4294    0.778     H
N       0.1135   0.3795   0.4411     N
N       0.1168   0.7626   0.9655     N
H       0.1306   0.7682   0.8962     H
C       0.1556   0.8399   0.2568     C
C       0.1764   0.2992   0.1523     C
C       0.1823   0.2982   0.2826     C
H       0.1871   0.9023   0.2117     H
C       0.1923   0.7542    0.452     C
C       0.1958   0.3135   0.5224     C
H       0.1987   0.7785    0.039     H
H       0.2014   0.3188   0.6052     H
O       0.2081     0.58   0.6694     O
C       0.2409   0.8493   0.3871     C
N       0.2456   0.3179    0.993     N
H       0.2506   0.7632   0.5407     H
C       0.2676   0.2294   0.3684     C
C       0.2735   0.2372   0.4902     C
N       0.3005    0.326   0.1245     N
H       0.3194   0.1794   0.3443     H
H       0.3289   0.1919   0.5499     H
H       0.3314   0.9196   0.4321     H
Mo     0.41889  0.62111  0.74983    Mo
O       0.4298   0.5103   0.8855     O
O       0.4668   0.7441   0.9283     O
Mo     0.47606  0.07135  0.13998    Mo
O       0.4764   0.7897   0.7209     O
Mo     0.48849  0.35266  0.93653    Mo
O          0.5      0.0      0.0     O
Mo     0.51151  0.64734  0.06347    Mo
O       0.5236   0.2103   0.2791     O
Mo     0.52394  0.92865  0.86002    Mo
O       0.5332   0.2559   0.0717     O
O       0.5702   0.4897   0.1145     O
Mo     0.58111  0.37889  0.25017    Mo
H       0.6686   0.0804   0.5679     H
H       0.6711   0.8081   0.4501     H
H       0.6806   0.8206   0.6557     H
N       0.6995    0.674   0.8755     N
C       0.7265   0.7628   0.5098     C
C       0.7324   0.7706   0.6316     C
H       0.7494   0.2368   0.4593     H
N       0.7544   0.6821    0.007     N
C       0.7591   0.1507   0.6129     C
O       0.7919     0.42   0.3306     O
H       0.7986   0.6812   0.3948     H
H       0.8013   0.2215    0.961     H
C       0.8042   0.6865   0.4776     C
C       0.8077   0.2458    0.548     C
H       0.8129   0.0977   0.7883     H
C       0.8177   0.7018   0.7174     C
C       0.8236   0.7008   0.8477     C
C       0.8444   0.1601   0.7432     C
H       0.8694   0.2318   0.1038     H
N       0.8832   0.2374   0.0345     N
N       0.8865   0.6205   0.5589     N
H       0.8898   0.5706    0.222     H
C       0.8926   0.6283   0.6771     C
C       0.9115   0.7153    0.057     C
N       0.9348   0.3497    0.608     N
H       0.9497   0.5824    0.735     H
N       0.9598   0.7275   0.9586     N
C       0.9799   0.2668   0.8056     C
C       0.9801   0.6417   0.2648     C
