data_I
_chemical_name_common  '/home/zhangsd/repos/MofS-CGCNN/ML/data/TSD/clean_cifs/ENITAX_clean'
_cell_length_a 12.37100
_cell_length_b 12.37100
_cell_length_c 24.06890
_cell_angle_alpha 90.00000
_cell_angle_beta  90.00000
_cell_angle_gamma 90.00000
_space_group_name_H-M_alt      'P 1'


loop_
_space_group_symop_operation_xyz
  'x, y, z' 

loop_
_atom_site_label
_atom_site_fract_x
_atom_site_fract_y
_atom_site_fract_z
_atom_site_type_symbol
Si         0.0      0.0     0.25    Si
Si         0.0      0.0     0.75    Si
C          0.0   0.1174   0.2023     C
C          0.0   0.1174   0.7977     C
C          0.0   0.2732   0.1194     C
C          0.0   0.2732   0.8806     C
C          0.0   0.3581   0.0732     C
C          0.0   0.3581   0.9268     C
C          0.0   0.6419   0.0732     C
C          0.0   0.6419   0.9268     C
C          0.0   0.7268   0.1194     C
C          0.0   0.7268   0.8806     C
C          0.0   0.8826   0.2023     C
C          0.0   0.8826   0.7977     C
O       0.0908   0.3878  0.05683     O
O       0.0908   0.3878  0.94317     O
O       0.0908   0.6122  0.05683     O
O       0.0908   0.6122  0.94317     O
C       0.0932   0.2371   0.1405     C
C       0.0932   0.2371   0.8595     C
C       0.0932   0.7629   0.1405     C
C       0.0932   0.7629   0.8595     C
C       0.0956   0.1568   0.1817     C
C       0.0956   0.1568   0.8183     C
C       0.0956   0.8432   0.1817     C
C       0.0956   0.8432   0.8183     C
Cu      0.1074      0.5      0.0    Cu
C       0.1174      0.0   0.2977     C
C       0.1174      0.0   0.7023     C
H         0.13   0.1626   0.3049     H
H         0.13   0.1626   0.6951     H
H         0.13   0.8374   0.3049     H
H         0.13   0.8374   0.6951     H
C       0.1568   0.0956   0.3183     C
C       0.1568   0.0956   0.6817     C
C       0.1568   0.9044   0.3183     C
C       0.1568   0.9044   0.6817     C
H       0.1594   0.2665   0.1273     H
H       0.1594   0.2665   0.8727     H
H       0.1594   0.7335   0.1273     H
H       0.1594   0.7335   0.8727     H
H       0.1626     0.13   0.1951     H
H       0.1626     0.13   0.8049     H
H       0.1626     0.87   0.1951     H
H       0.1626     0.87   0.8049     H
C       0.2371   0.0932   0.3595     C
C       0.2371   0.0932   0.6405     C
C       0.2371   0.9068   0.3595     C
C       0.2371   0.9068   0.6405     C
H       0.2665   0.1594   0.3727     H
H       0.2665   0.1594   0.6273     H
H       0.2665   0.8406   0.3727     H
H       0.2665   0.8406   0.6273     H
C       0.2732      0.0   0.3806     C
C       0.2732      0.0   0.6194     C
C       0.3581      0.0   0.4268     C
C       0.3581      0.0   0.5732     C
O       0.3878   0.0908  0.44317     O
O       0.3878   0.0908  0.55683     O
O       0.3878   0.9092  0.44317     O
O       0.3878   0.9092  0.55683     O
Cu         0.5   0.1074      0.5    Cu
Cu         0.5   0.8926      0.5    Cu
O       0.6122   0.0908  0.44317     O
O       0.6122   0.0908  0.55683     O
O       0.6122   0.9092  0.44317     O
O       0.6122   0.9092  0.55683     O
C       0.6419      0.0   0.4268     C
C       0.6419      0.0   0.5732     C
C       0.7268      0.0   0.3806     C
C       0.7268      0.0   0.6194     C
H       0.7335   0.1594   0.3727     H
H       0.7335   0.1594   0.6273     H
H       0.7335   0.8406   0.3727     H
H       0.7335   0.8406   0.6273     H
C       0.7629   0.0932   0.3595     C
C       0.7629   0.0932   0.6405     C
C       0.7629   0.9068   0.3595     C
C       0.7629   0.9068   0.6405     C
H       0.8374     0.13   0.1951     H
H       0.8374     0.13   0.8049     H
H       0.8374     0.87   0.1951     H
H       0.8374     0.87   0.8049     H
H       0.8406   0.2665   0.1273     H
H       0.8406   0.2665   0.8727     H
H       0.8406   0.7335   0.1273     H
H       0.8406   0.7335   0.8727     H
C       0.8432   0.0956   0.3183     C
C       0.8432   0.0956   0.6817     C
C       0.8432   0.9044   0.3183     C
C       0.8432   0.9044   0.6817     C
H         0.87   0.1626   0.3049     H
H         0.87   0.1626   0.6951     H
H         0.87   0.8374   0.3049     H
H         0.87   0.8374   0.6951     H
C       0.8826      0.0   0.2977     C
C       0.8826      0.0   0.7023     C
Cu      0.8926      0.5      0.0    Cu
C       0.9044   0.1568   0.1817     C
C       0.9044   0.1568   0.8183     C
C       0.9044   0.8432   0.1817     C
C       0.9044   0.8432   0.8183     C
C       0.9068   0.2371   0.1405     C
C       0.9068   0.2371   0.8595     C
C       0.9068   0.7629   0.1405     C
C       0.9068   0.7629   0.8595     C
O       0.9092   0.3878  0.05683     O
O       0.9092   0.3878  0.94317     O
O       0.9092   0.6122  0.05683     O
O       0.9092   0.6122  0.94317     O
