data_I
_chemical_name_common  '/home/zhangsd/repos/MofS-CGCNN/ML/data/TSD/clean_cifs/EPEWAY_clean'
_cell_length_a 11.31400
_cell_length_b 11.31400
_cell_length_c 25.24290
_cell_angle_alpha 90.00000
_cell_angle_beta  90.00000
_cell_angle_gamma 90.00000
_space_group_name_H-M_alt      'P 1'


loop_
_space_group_symop_operation_xyz
  'x, y, z' 

loop_
_atom_site_label
_atom_site_fract_x
_atom_site_fract_y
_atom_site_fract_z
_atom_site_type_symbol
Co         0.0   0.2033      0.5    Co
Co         0.0   0.7967      0.0    Co
H       0.0001   0.3119   0.6961     H
H       0.0001   0.6881   0.8039     H
C       0.0081   0.1634   0.2656     C
C       0.0081   0.8366   0.2344     C
N       0.0353   0.2732   0.2793     N
N       0.0353   0.7268   0.2207     N
H       0.0597    0.076   0.0392     H
H       0.0597    0.924   0.4608     H
O       0.0661   0.0972   0.7113     O
O       0.0661   0.9028   0.7887     O
H       0.0663   0.4497   0.9632     H
H       0.0663   0.5503   0.5368     H
N       0.0742     0.13   0.2237     N
N       0.0742     0.87   0.2763     N
H        0.076   0.0597   0.2108     H
H        0.076   0.9403   0.2892     H
H        0.081   0.2558   0.9389     H
H        0.081   0.7442   0.5611     H
O       0.0855   0.0893    0.375     O
O       0.0855   0.9107    0.125     O
O       0.0886   0.3337   0.5403     O
O       0.0886   0.6663   0.9597     O
O       0.0893   0.0855    0.875     O
O       0.0893   0.9145    0.625     O
C       0.0909    0.431   0.9291     C
C       0.0909    0.569   0.5709     C
O       0.0951   0.2758   0.6253     O
O       0.0951   0.7242   0.8747     O
Co     0.09629  0.09629    0.625    Co
Co     0.09629  0.90371    0.875    Co
C       0.0971   0.3523   0.5896     C
C       0.0971   0.6477   0.9104     C
O       0.0972   0.0661   0.5387     O
O       0.0972   0.9339   0.9613     O
C       0.1003   0.3151   0.9149     C
C       0.1003   0.6849   0.5851     C
H       0.1075   0.2584   0.1709     H
H       0.1075   0.7416   0.3291     H
H       0.1133   0.3983   0.2336     H
H       0.1133   0.6017   0.2664     H
C       0.1166   0.4792   0.6055     C
C       0.1166   0.5208   0.8945     C
N         0.13   0.0742   0.0263     N
N         0.13   0.9258   0.4737     N
C       0.1323   0.3208   0.2476     C
C       0.1323   0.6792   0.2524     C
O       0.1357   0.2015    0.445     O
O       0.1357   0.7985    0.055     O
C       0.1394    0.286   0.8636     C
C       0.1394    0.714   0.6364     C
C       0.1413   0.2288   0.2037     C
C       0.1413   0.7712   0.2963     C
C       0.1441   0.1574   0.8465     C
C       0.1441   0.8426   0.6535     C
C       0.1549   0.4926   0.8433     C
C       0.1549   0.5074   0.6567     C
C       0.1574   0.1441   0.4035     C
C       0.1574   0.8559   0.0965     C
C       0.1634   0.0081   0.9844     C
C       0.1634   0.9919   0.5156     C
C       0.1682   0.3763   0.8295     C
C       0.1682   0.6237   0.6705     C
H       0.1711   0.4478    0.681     H
H       0.1711   0.5522    0.819     H
H       0.1974   0.3578    0.796     H
H       0.1974   0.6422    0.704     H
O       0.2015   0.1357    0.805     O
O       0.2015   0.8643    0.695     O
Co      0.2033      0.0     0.75    Co
H       0.2048   0.3255    0.268     H
H       0.2048   0.6745    0.232     H
H       0.2067    0.223   0.0526     H
H       0.2067    0.777   0.4474     H
H        0.223   0.2067   0.1974     H
H        0.223   0.7933   0.3026     H
C       0.2288   0.1413   0.0463     C
C       0.2288   0.8587   0.4537     C
H       0.2558    0.081   0.3111     H
H       0.2558    0.919   0.1889     H
H       0.2584   0.1075   0.0791     H
H       0.2584   0.8925   0.4209     H
N       0.2732   0.0353   0.9707     N
N       0.2732   0.9647   0.5293     N
O       0.2758   0.0951   0.6247     O
O       0.2758   0.9049   0.8753     O
C        0.286   0.1394   0.3864     C
C        0.286   0.8606   0.1136     C
H       0.3119   0.0001   0.5539     H
H       0.3119   0.9999   0.9461     H
C       0.3151   0.1003   0.3351     C
C       0.3151   0.8997   0.1649     C
C       0.3208   0.1323   0.0024     C
C       0.3208   0.8677   0.4976     C
H       0.3255   0.2048    0.982     H
H       0.3255   0.7952    0.518     H
O       0.3337   0.0886   0.7097     O
O       0.3337   0.9114   0.7903     O
C       0.3523   0.0971   0.6604     C
C       0.3523   0.9029   0.8396     C
H       0.3578   0.1974    0.454     H
H       0.3578   0.8026    0.046     H
C       0.3763   0.1682   0.4205     C
C       0.3763   0.8318   0.0795     C
H       0.3983   0.1133   0.0164     H
H       0.3983   0.8867   0.4836     H
C        0.431   0.0909   0.3209     C
C        0.431   0.9091   0.1791     C
H       0.4478   0.1711    0.569     H
H       0.4478   0.8289    0.931     H
H       0.4497   0.0663   0.2868     H
H       0.4497   0.9337   0.2132     H
C       0.4792   0.1166   0.6445     C
C       0.4792   0.8834   0.8555     C
C       0.4926   0.1549   0.4067     C
C       0.4926   0.8451   0.0933     C
C       0.5074   0.1549   0.5933     C
C       0.5074   0.8451   0.9067     C
C       0.5208   0.1166   0.3555     C
C       0.5208   0.8834   0.1445     C
H       0.5503   0.0663   0.7132     H
H       0.5503   0.9337   0.7868     H
H       0.5522   0.1711    0.431     H
H       0.5522   0.8289    0.069     H
C        0.569   0.0909   0.6791     C
C        0.569   0.9091   0.8209     C
H       0.6017   0.1133   0.9836     H
H       0.6017   0.8867   0.5164     H
C       0.6237   0.1682   0.5795     C
C       0.6237   0.8318   0.9205     C
H       0.6422   0.1974    0.546     H
H       0.6422   0.8026    0.954     H
C       0.6477   0.0971   0.3396     C
C       0.6477   0.9029   0.1604     C
O       0.6663   0.0886   0.2903     O
O       0.6663   0.9114   0.2097     O
H       0.6745   0.2048    0.018     H
H       0.6745   0.7952    0.482     H
C       0.6792   0.1323   0.9976     C
C       0.6792   0.8677   0.5024     C
C       0.6849   0.1003   0.6649     C
C       0.6849   0.8997   0.8351     C
H       0.6881   0.0001   0.4461     H
H       0.6881   0.9999   0.0539     H
C        0.714   0.1394   0.6136     C
C        0.714   0.8606   0.8864     C
O       0.7242   0.0951   0.3753     O
O       0.7242   0.9049   0.1247     O
N       0.7268   0.0353   0.0293     N
N       0.7268   0.9647   0.4707     N
H       0.7416   0.1075   0.9209     H
H       0.7416   0.8925   0.5791     H
H       0.7442    0.081   0.6889     H
H       0.7442    0.919   0.8111     H
C       0.7712   0.1413   0.9537     C
C       0.7712   0.8587   0.5463     C
H        0.777   0.2067   0.8026     H
H        0.777   0.7933   0.6974     H
H       0.7933    0.223   0.9474     H
H       0.7933    0.777   0.5526     H
H       0.7952   0.3255    0.732     H
H       0.7952   0.6745    0.768     H
Co      0.7967      0.0     0.25    Co
O       0.7985   0.1357    0.195     O
O       0.7985   0.8643    0.305     O
H       0.8026   0.3578    0.204     H
H       0.8026   0.6422    0.296     H
H       0.8289   0.4478    0.319     H
H       0.8289   0.5522    0.181     H
C       0.8318   0.3763   0.1705     C
C       0.8318   0.6237   0.3295     C
C       0.8366   0.0081   0.0156     C
C       0.8366   0.9919   0.4844     C
C       0.8426   0.1441   0.5965     C
C       0.8426   0.8559   0.9035     C
C       0.8451   0.4926   0.1567     C
C       0.8451   0.5074   0.3433     C
C       0.8559   0.1574   0.1535     C
C       0.8559   0.8426   0.3465     C
C       0.8587   0.2288   0.7963     C
C       0.8587   0.7712   0.7037     C
C       0.8606    0.286   0.1364     C
C       0.8606    0.714   0.3636     C
O       0.8643   0.2015    0.555     O
O       0.8643   0.7985    0.945     O
C       0.8677   0.3208   0.7524     C
C       0.8677   0.6792   0.7476     C
N         0.87   0.0742   0.9737     N
N         0.87   0.9258   0.5263     N
C       0.8834   0.4792   0.3945     C
C       0.8834   0.5208   0.1055     C
H       0.8867   0.3983   0.7664     H
H       0.8867   0.6017   0.7336     H
H       0.8925   0.2584   0.8291     H
H       0.8925   0.7416   0.6709     H
C       0.8997   0.3151   0.0851     C
C       0.8997   0.6849   0.4149     C
O       0.9028   0.0661   0.4613     O
O       0.9028   0.9339   0.0387     O
C       0.9029   0.3523   0.4104     C
C       0.9029   0.6477   0.0896     C
Co     0.90371  0.09629    0.375    Co
Co     0.90371  0.90371    0.125    Co
O       0.9049   0.2758   0.3747     O
O       0.9049   0.7242   0.1253     O
C       0.9091    0.431   0.0709     C
C       0.9091    0.569   0.4291     C
O       0.9107   0.0855    0.125     O
O       0.9107   0.9145    0.375     O
O       0.9114   0.3337   0.4597     O
O       0.9114   0.6663   0.0403     O
O       0.9145   0.0893    0.625     O
O       0.9145   0.9107    0.875     O
H        0.919   0.2558   0.0611     H
H        0.919   0.7442   0.4389     H
H        0.924   0.0597   0.7892     H
H        0.924   0.9403   0.7108     H
N       0.9258     0.13   0.7763     N
N       0.9258     0.87   0.7237     N
H       0.9337   0.4497   0.0368     H
H       0.9337   0.5503   0.4632     H
O       0.9339   0.0972   0.2887     O
O       0.9339   0.9028   0.2113     O
H       0.9403    0.076   0.9608     H
H       0.9403    0.924   0.5392     H
N       0.9647   0.2732   0.7207     N
N       0.9647   0.7268   0.7793     N
C       0.9919   0.1634   0.7344     C
C       0.9919   0.8366   0.7656     C
H       0.9999   0.3119   0.3039     H
H       0.9999   0.6881   0.1961     H
