data_I
_chemical_name_common  '/home/zhangsd/repos/MofS-CGCNN/ML/data/TSD/clean_cifs/EPEXUU_clean'
_cell_length_a 21.85990
_cell_length_b 21.85990
_cell_length_c 21.35250
_cell_angle_alpha 90.00000
_cell_angle_beta  90.00000
_cell_angle_gamma 120.00000
_space_group_name_H-M_alt      'P 1'


loop_
_space_group_symop_operation_xyz
  'x, y, z' 

loop_
_atom_site_label
_atom_site_fract_x
_atom_site_fract_y
_atom_site_fract_z
_atom_site_type_symbol
C      0.00237  0.60623  0.92923     C
C       0.0044   0.2741   0.5527     C
C       0.0054   0.4068   0.4322     C
H      0.00737  0.56593  0.78923     H
C      0.00817  0.32493  0.72693     C
C       0.0084   0.3499   0.3936     C
H       0.0104   0.7034   0.4754     H
H      0.01223  0.26567  0.00887     H
C       0.0141   0.2448   0.3256     C
H       0.0155   0.2092    0.303     H
C      0.01657  0.67483  0.93973     C
O      0.01737  0.49123  0.88143     O
C      0.02053  0.57747  0.40617     C
C      0.02113  0.31147  0.01547     C
C      0.02187  0.37633  0.68213     C
C       0.0234   0.8195   0.3742     C
H      0.02633  0.65627  0.14207     H
H      0.02877  0.59763  0.90013     H
C      0.03303  0.44067  0.23127     C
C      0.03403  0.62817  0.35267     C
C      0.03533  0.54477  0.08747     C
H      0.03673  0.35967  0.19127     H
C       0.0385   0.7392    0.686     C
O      0.04247  0.46723   0.5834     O
C        0.043   0.6878   0.6512     C
C        0.044   0.7868   0.4168     C
C       0.0477   0.2068   0.6384     C
H      0.04793  0.52427  0.28247     H
C      0.05133  0.44967  0.03777     C
O       0.0541    0.597  0.56387     O
O      0.05777  0.27263  0.79141     O
C      0.05923  0.39697  0.21937     C
C      0.06043  0.72947  0.26257     C
O       0.0607   0.4518  0.45808     O
H       0.0625   0.1845   0.6667     H
C       0.0628   0.3357   0.4041     C
C      0.06363  0.67107  0.11397     C
C        0.065    0.282   0.3711     C
C      0.06683  0.49527  0.27437     C
H      0.06767  0.41323  0.67553     H
Cu     0.06785  0.53032  0.51077    Cu
C      0.06807  0.32793  0.76553     C
H      0.06903  0.76447  0.23347     H
N      0.06913  0.52087  0.04807     N
O      0.06967  0.79043   0.8972     O
C      0.07253  0.36737  0.98067     C
O      0.07333  0.58507  0.43556     O
C      0.07347  0.73473  0.90113     C
C       0.0743   0.3003   0.5646     C
H       0.0746   0.1611    0.354     H
C      0.07613  0.62267  0.08347     C
H       0.0799   0.6789   0.6578     H
O       0.0816   0.8216  0.76889     O
H       0.0865   0.9254    0.354     H
C       0.0874    0.882   0.3467     C
C      0.08853  0.43597  0.99227     C
C       0.0892   0.7764   0.7395     C
H        0.091   0.8761   0.3021     H
O      0.09143  0.29087  0.91674     O
C       0.0951   0.2665   0.6077     C
H       0.0978   0.3621   0.4332     H
H      0.10073  0.77477  0.12257     H
C      0.10263  0.68077  0.34107     C
C      0.10733  0.74097  0.10207     C
H       0.1081   0.3407   0.5441     H
C      0.10973  0.35387  0.92717     C
C      0.11633  0.73167  0.29557     C
C        0.118   0.2054   0.3467     C
N       0.1184   0.2642   0.3814     N
H      0.11843  0.57567  0.96877     H
O      0.11847  0.72443  0.87525     O
C      0.12013  0.40947  0.24987     C
C       0.1219   0.8239   0.4208     C
H        0.122   0.9375   0.6667     H
O      0.12377  0.38743  0.76946     O
H       0.1239   0.2149   0.3021     H
H      0.12413  0.47297  0.96967     H
C      0.12653  0.50757  0.30507     C
C      0.12793  0.57927  0.01337     C
Cu     0.12914  0.26548   0.8441    Cu
C      0.12943  0.64327  0.04087     C
O       0.1339   0.7581  0.74993     O
Cu     0.13635  0.87086   0.8441    Cu
H      0.13963  0.68217  0.36367     H
O      0.14053  0.31597  0.21477     O
H       0.1424    0.857   0.6158     H
H        0.143   0.2854   0.6158     H
N       0.1458   0.8816   0.3814     N
H      0.14883  0.54467  0.33337     H
C      0.15283  0.46277  0.29247     C
O      0.15493  0.40667  0.89778     O
C      0.15723  0.36867  0.24587     C
O       0.1579   0.8072   0.4519     O
C       0.1591   0.9523   0.6384     C
H       0.1611   0.0865    0.646     H
C      0.16193  0.76177  0.05897     C
C       0.1714   0.9049   0.6077     C
H      0.17223  0.58017  0.02067     H
C      0.17423  0.71437  0.02827     C
O      0.17543  0.85947  0.21477     O
C       0.1761    0.298   0.4208     C
O       0.1784     0.26  0.76889     O
C       0.1805   0.2039   0.3742     C
H       0.1845    0.122   0.3333     H
N      0.18753  0.78507  0.28527     N
H      0.19033  0.38127  0.05087     H
H      0.19093  0.80967  0.05087     H
O       0.1928   0.3507   0.4519     O
H       0.1937   0.9845    0.303     H
Cu     0.19699   0.7958  0.82256    Cu
O      0.19943  0.90857  0.91674     O
C       0.2039   0.0234   0.6258     C
Cu      0.2042  0.40118  0.82256    Cu
C       0.2054   0.0874   0.6533     C
C       0.2068   0.1591   0.3616     C
H       0.2092   0.1937    0.697     H
H      0.20943  0.45177  0.36457     H
O      0.20957  0.27923   0.8972     O
H      0.21133  0.72917  0.99997     H
C      0.21143  0.84277  0.24587     C
C       0.2132   0.2572   0.4168     C
O      0.21487  0.94223  0.79141     O
H       0.2149    0.091   0.6979     H
N      0.21493  0.40247  0.28527     N
C      0.21533  0.46127  0.31997     C
C        0.217    0.935   0.3711     C
C       0.2236   0.3128   0.7395     C
H      0.22523  0.32597  0.12257     H
C        0.226   0.9257   0.5646     C
C       0.2307   0.9859   0.3256     C
H       0.2326   0.8919   0.5441     H
H      0.23553  0.30457  0.23347     H
C      0.23823  0.40017  0.05897     C
O       0.2419   0.3758  0.74993     O
H      0.24233  0.79057  0.36457     H
C      0.24413  0.89027  0.92717     C
C       0.2448   0.2307   0.6744     C
C      0.24593  0.78467  0.31997     C
H      0.24683  0.74127  0.31267     H
O      0.25173  0.84507  0.89778     O
H      0.25343  0.98777  0.00887     H
C       0.2572    0.044   0.5832     C
H      0.25873  0.50557  0.31267     H
C      0.25903  0.36637  0.10207     C
C      0.25987  0.93193  0.76553     C
O         0.26   0.0816  0.23111     O
C       0.2608   0.2993    0.686     C
O      0.26367  0.87623  0.76946     O
N       0.2642   0.1458   0.6186     N
H       0.2643   0.9022   0.4332     H
C      0.26527  0.33873  0.90113     C
Cu     0.26548  0.13635   0.1559    Cu
H      0.26567  0.25343  0.99113     H
C       0.2665   0.1714   0.3923     C
C      0.26833  0.38467  0.29557     C
C       0.2697   0.9956   0.5527     C
C      0.27053  0.33097  0.26257     C
H      0.27083  0.48217  0.99997     H
O      0.27263  0.21487  0.20859     O
C       0.2729   0.9372   0.4041     C
C       0.2741   0.2697   0.4473     C
O      0.27557  0.39403  0.87525     O
O      0.27923  0.06967   0.1028     O
C        0.282    0.217   0.6289     C
H       0.2854   0.1424   0.3842     H
C      0.28563  0.45987  0.02827     C
C      0.28933  0.87987  0.24987     C
C      0.29033  0.97887  0.01547     C
O      0.29087  0.19943  0.08326     O
C      0.29483  0.92747  0.98067     C
H       0.2966    0.307   0.4754     H
C        0.298   0.1219   0.5792     C
C       0.2993   0.0385    0.314     C
C       0.3003    0.226   0.4354     C
H      0.30457  0.06903  0.76653     H
H        0.307   0.0104   0.5246     H
C      0.30993  0.84717  0.29247     C
C      0.31147  0.29033  0.98453     C
C       0.3122   0.3552   0.6512     C
C       0.3128   0.0892   0.2605     C
O      0.31597  0.17543  0.78523     O
C      0.31677  0.99183  0.72693     C
H      0.31783  0.45747  0.36367     H
C      0.31923  0.42187  0.34107     C
H       0.3211    0.401   0.6578     H
H      0.32293  0.96327  0.19127     H
C      0.32493  0.31677  0.27307     C
C      0.32517  0.34173  0.93973     C
H      0.32597  0.10073  0.87743     H
C      0.32793  0.25987  0.23447     C
C      0.32893  0.39257  0.11397     C
C      0.33097  0.06043  0.73743     C
C       0.3357   0.2729   0.5959     C
C      0.33773  0.94077  0.21937     C
C      0.33873  0.07347  0.09887     C
H       0.3407   0.2326   0.4559     H
C       0.3415   0.9916   0.3936     C
C      0.34173  0.01657  0.06027     C
H      0.34373  0.37007  0.14207     H
H      0.34557  0.93233  0.67553     H
C      0.34743  0.91147  0.99227     C
H      0.34883  0.87587  0.96967     H
C       0.3499   0.3415   0.6064     C
O       0.3507   0.1579   0.5481     O
C      0.35387  0.24413  0.07283     C
C      0.35447  0.97813  0.68213     C
C       0.3552    0.043   0.3488     C
C      0.35673  0.48617  0.04087     C
H      0.35967  0.32293  0.80873     H
H       0.3621   0.2643   0.5668     H
C      0.36637  0.10733  0.89793     C
C      0.36737  0.29483  0.01933     C
C      0.36867  0.21143  0.75413     C
H      0.37007  0.02633  0.85793     H
C      0.37183  0.40587  0.35267     C
O       0.3758   0.1339  0.25007     O
C      0.37633  0.35447  0.31787     C
C      0.37733  0.45347  0.08347     C
C      0.38103  0.87347  0.30507     C
H      0.38127  0.19093  0.94913     H
C      0.38467  0.11633  0.70443     C
O      0.38743  0.26367  0.23054     O
O       0.3911   0.9393  0.45808     O
C      0.39257  0.06363  0.88603     C
C      0.39377  0.39613  0.92923     C
O      0.39403  0.11847  0.12475     O
H      0.39583  0.85117  0.33337     H
C      0.39613  0.00237  0.07077     C
C      0.39697  0.33773  0.78063     C
C      0.39833  0.94867  0.03777     C
C      0.40017  0.16193  0.94103     C
H        0.401   0.0799   0.3422     H
Cu     0.40118  0.19699  0.17744    Cu
C       0.4014   0.9946   0.4322     C
H      0.40237  0.43113  0.90013     H
N      0.40247  0.18753  0.71473     N
O        0.403   0.4571  0.56387     O
C      0.40587  0.03403  0.64733     C
O      0.40667  0.25173  0.10222     O
C       0.4068   0.4014   0.5678     C
C      0.40763  0.96697  0.23127     C
H      0.40793  0.82777  0.02067     H
C      0.40947  0.28933  0.75013     C
H      0.41323  0.34557  0.32447     H
O      0.41493  0.48827  0.43556     O
H      0.41983  0.59207  0.02067     H
C      0.42073  0.54867  0.01337     C
C      0.42187  0.10263  0.65893     C
C      0.42253  0.44307  0.40617     C
H      0.42433  0.54277  0.96877     H
O      0.42477  0.95753   0.5834     O
C      0.42843  0.93317  0.27437     C
H      0.43113  0.02877  0.09987     H
H      0.43407  0.44143  0.78923     H
C      0.43597  0.34743  0.00773     C
C      0.44067  0.40763  0.76873     C
H      0.44143  0.00737  0.21077     H
C      0.44307  0.02053  0.59383     C
C      0.44967  0.39833  0.96223     C
C      0.45133  0.87207  0.01337     C
N      0.45173  0.93087  0.04807     N
H      0.45177  0.24233  0.63543     H
O       0.4518   0.3911  0.54192     O
C      0.45347  0.07613  0.91653     C
C      0.45523  0.49057  0.08747     C
H      0.45533  0.60417  0.33337     H
O       0.4571   0.0541  0.43613     O
H      0.45723  0.88157  0.96877     H
H      0.45747  0.13963  0.63633     H
C      0.45987  0.17423  0.97173     C
C      0.46127  0.24593  0.68003     C
Cu     0.46247  0.93215  0.51077    Cu
C      0.46277  0.30993  0.70753     C
O      0.46723  0.42477   0.4166     O
Cu     0.46968  0.53753  0.51077    Cu
H      0.47297  0.34883  0.03033     H
O      0.47387  0.98263  0.88143     O
H      0.47573  0.52367  0.28247     H
H      0.47633  0.95207  0.28247     H
N      0.47913  0.54827  0.04807     N
H      0.48217  0.21133    3e-05     H
C      0.48617  0.12943  0.95913     C
O      0.48827  0.07333  0.56444     O
C      0.49057  0.03533  0.91253     C
O      0.49123  0.47387  0.11857     O
C      0.49243  0.61897  0.30507     C
H      0.49443  0.75317  0.31267     H
C      0.49527  0.42843  0.72563     C
C      0.50473  0.57157  0.27437     C
H      0.50557  0.24683  0.68733     H
C      0.50757  0.38103  0.69493     C
O      0.50877  0.52613  0.88143     O
C      0.50943  0.96467  0.08747     C
O      0.51173  0.92667  0.43556     O
C      0.51383  0.87057  0.04087     C
H      0.51783  0.78867  0.99997     H
N      0.52087  0.45173  0.95193     N
H      0.52367  0.04793  0.71753     H
H      0.52427  0.47633  0.71753     H
O      0.52613  0.01737  0.11857     O
H      0.52703  0.65117  0.96967     H
Cu     0.53032  0.46247  0.48923    Cu
O      0.53277  0.57523   0.5834     O
C      0.53723  0.69007  0.29247     C
Cu     0.53753  0.06785  0.48923    Cu
C      0.53873  0.75407  0.31997     C
C      0.54013  0.82577  0.02827     C
H      0.54253  0.86037  0.36367     H
H      0.54277  0.11843  0.03123     H
O       0.5429   0.9459  0.56387     O
H      0.54467  0.39583  0.66663     H
C      0.54477  0.50943  0.91253     C
C      0.54653  0.92387  0.08347     C
O       0.5482   0.6089  0.45808     O
H      0.54823  0.75767  0.36457     H
N      0.54827  0.06913  0.95193     N
C      0.54867  0.12793  0.98663     C
C      0.55033  0.60167  0.03777     C
C      0.55693  0.97947  0.40617     C
H      0.55857  0.99263  0.78923     H
C      0.55933  0.59237  0.23127     C
C      0.56403  0.65257  0.99227     C
H      0.56593  0.55857  0.21077     H
H      0.56887  0.97123  0.90013     H
C      0.57157  0.06683  0.72563     C
O      0.57523  0.04247   0.4166     O
H      0.57567  0.45723  0.03123     H
C      0.57747  0.55693  0.59383     C
C      0.57813  0.89737  0.34107     C
C      0.57927  0.45133  0.98663     C
H      0.58017  0.40793  0.97933     H
O      0.58507  0.51173  0.56444     O
H      0.58677  0.65443  0.67553     H
C      0.59053  0.71067  0.24987     C
H      0.59207  0.17223  0.97933     H
C      0.59237  0.03303  0.76873     C
C       0.5932   0.5986   0.4322     C
O      0.59333  0.74827  0.89778     O
C      0.59413  0.96597  0.35267     C
O        0.597   0.5429  0.43613     O
N      0.59753  0.81247  0.28527     N
H      0.59763  0.56887  0.09987     H
C       0.5986   0.0054   0.5678     C
Cu     0.59882  0.80301  0.82256    Cu
H        0.599   0.9201   0.6578     H
C      0.59983  0.83807  0.05897     C
C      0.60167  0.05133  0.96223     C
C      0.60303  0.66227  0.21937     C
C      0.60387  0.99763  0.92923     C
H      0.60417  0.14883  0.66663     H
O      0.60597  0.88153  0.87525     O
C      0.60623  0.60387  0.07077     C
C      0.60743  0.93637  0.11397     C
O       0.6089   0.0607  0.54192     O
O      0.61257  0.73633  0.76946     O
C      0.61533  0.88367  0.29557     C
H      0.61873  0.80907  0.05087     H
C      0.61897  0.12653  0.69493     C
C      0.62267  0.54653  0.91653     C
C      0.62367  0.64553  0.68213     C
O       0.6242   0.8661  0.74993     O
C      0.62817  0.59413  0.64733     C
H      0.62993  0.97367  0.14207     H
C      0.63133  0.78857  0.24587     C
C      0.63263  0.70517  0.98067     C
C      0.63363  0.89267  0.10207     C
H       0.6379   0.7357   0.4332     H
H      0.64033  0.67707  0.19127     H
C      0.64327  0.51383  0.95913     C
C       0.6448    0.957   0.6512     C
C      0.64553  0.02187  0.31787     C
C      0.64613  0.75587  0.92717     C
O       0.6493   0.8421   0.4519     O
C       0.6501   0.6585   0.3936     C
H      0.65117  0.12413  0.03033     H
C      0.65257  0.08853  0.00773     C
H      0.65443  0.06767  0.32447     H
H      0.65627  0.62993  0.85793     H
C      0.65827  0.98343  0.93973     C
C       0.6585   0.0084   0.6064     C
H       0.6593   0.7674   0.5441     H
C      0.66127  0.92653  0.90113     C
C      0.66227  0.05923  0.78063     C
C       0.6643   0.7271   0.4041     C
C      0.66903  0.93957  0.26257     C
C      0.67107  0.60743  0.88603     C
C      0.67207  0.74013  0.76553     C
H      0.67403  0.89927  0.12257     H
C      0.67483  0.65827  0.06027     C
C      0.67507  0.68323  0.72693     C
H      0.67707  0.03673  0.80873     H
H       0.6789    0.599   0.3422     H
C      0.68077  0.57813  0.65893     C
H      0.68217  0.54253  0.63633     H
C      0.68323  0.00817  0.27307     C
O      0.68403  0.82457  0.21477     O
C       0.6872   0.9108   0.7395     C
C       0.6878   0.6448   0.3488     C
C      0.68853  0.70967  0.01547     C
C      0.69007  0.15283  0.70753     C
H        0.693   0.9896   0.4754     H
H      0.69543  0.93097  0.23347     H
C       0.6997    0.774   0.5646     C
C       0.7007   0.9615    0.686     C
C        0.702   0.8781   0.4208     C
H       0.7034    0.693   0.5246     H
C      0.70517  0.07253  0.01933     C
O      0.70913  0.80057  0.91674     O
C      0.70967  0.02113  0.98453     C
C      0.71067  0.12013  0.75013     C
C      0.71437  0.54013  0.97173     C
H       0.7146   0.8576   0.6158     H
C        0.718    0.783   0.3711     C
O      0.72077  0.93033   0.8972     O
O      0.72443  0.60597  0.12475     O
C       0.7259   0.7303   0.5527     C
C       0.7271   0.0628   0.5959     C
O      0.72737  0.78513  0.79141     O
H      0.72917  0.51783    3e-05     H
C      0.72947  0.66903  0.73743     C
C       0.7303   0.0044   0.4473     C
C      0.73167  0.61533  0.70443     C
C       0.7335   0.8286   0.6077     C
H      0.73433  0.74657  0.00887     H
Cu     0.73452  0.86365   0.8441    Cu
C      0.73473  0.66127  0.09887     C
H       0.7357   0.0978   0.5668     H
N       0.7358   0.8542   0.3814     N
O      0.73633  0.12377  0.23054     O
C       0.7392   0.7007    0.314     C
O         0.74   0.9184  0.76889     O
C      0.74013  0.06807  0.23447     C
C      0.74097  0.63363  0.89793     C
H      0.74127  0.49443  0.68733     H
C       0.7428    0.956   0.4168     C
H      0.74657  0.01223  0.99113     H
O      0.74827  0.15493  0.10222     O
H      0.75317  0.25873  0.68733     H
C      0.75407  0.21533  0.68003     C
C       0.7552   0.7693   0.3256     C
C      0.75587  0.10973  0.07283     C
H      0.75767  0.20943  0.63543     H
O       0.7581   0.6242  0.25007     O
C      0.76177  0.59983  0.94103     C
H      0.76447  0.69543  0.76653     H
H       0.7674   0.1081   0.4559     H
C       0.7693   0.0141   0.6744     C
C        0.774   0.0743   0.4354     C
H      0.77477  0.67403  0.87743     H
C       0.7764   0.6872   0.2605     C
C        0.783    0.065   0.6289     C
C      0.78467  0.53873  0.68003     C
N      0.78507  0.59753  0.71473     N
H       0.7851    0.909   0.3021     H
O      0.78513  0.05777  0.20859     O
C       0.7868   0.7428   0.5832     C
C      0.78857  0.15723  0.75413     C
H      0.78867  0.27083    3e-05     H
O      0.79043  0.72077   0.1028     O
H      0.79057  0.54823  0.63543     H
H       0.7908   0.8063    0.303     H
C       0.7932   0.8409   0.6384     C
C       0.7946   0.9126   0.3467     C
Cu      0.7958  0.59882  0.17744    Cu
C       0.7961   0.9766   0.3742     C
O      0.80057  0.09143  0.08326     O
Cu     0.80301   0.2042  0.17744    Cu
H       0.8063   0.0155    0.697     H
O       0.8072   0.6493   0.5481     O
H      0.80907  0.19033  0.94913     H
H      0.80967  0.61873  0.94913     H
N      0.81247  0.21493  0.71473     N
H       0.8155    0.878   0.6667     H
C       0.8195   0.7961   0.6258     C
O       0.8216     0.74  0.23111     O
C       0.8239    0.702   0.5792     C
O      0.82457  0.14053  0.78523     O
C      0.82577  0.28563  0.97173     C
H      0.82777  0.41983  0.97933     H
C       0.8286   0.0951   0.3923     C
C      0.83807  0.23823  0.94103     C
H       0.8389   0.9135    0.354     H
C       0.8409   0.0477   0.3616     C
O       0.8421   0.1928   0.5481     O
C      0.84277  0.63133  0.75413     C
O      0.84507  0.59333  0.10222     O
C      0.84717  0.53723  0.70753     C
H      0.85117  0.45533  0.66663     H
N       0.8542   0.1184   0.6186     N
H        0.857   0.7146   0.3842     H
H       0.8576    0.143   0.3842     H
O      0.85947  0.68403  0.78523     O
H      0.86037  0.31783  0.63633     H
Cu     0.86365  0.12914   0.1559    Cu
O       0.8661   0.2419  0.25007     O
C      0.87057  0.35673  0.95913     C
Cu     0.87086  0.73452   0.1559    Cu
C      0.87207  0.42073  0.98663     C
C      0.87347  0.49243  0.69493     C
H      0.87587  0.52703  0.03033     H
H       0.8761   0.7851   0.6979     H
O      0.87623  0.61257  0.23054     O
H        0.878   0.0625   0.3333     H
C       0.8781   0.1761   0.5792     C
C      0.87987  0.59053  0.75013     C
O      0.88153  0.27557  0.12475     O
H      0.88157  0.42433  0.03123     H
N       0.8816   0.7358   0.6186     N
C        0.882   0.7946   0.6533     C
C      0.88367  0.26833  0.70443     C
C      0.89027  0.64613  0.07283     C
H       0.8919   0.6593   0.4559     H
C      0.89267  0.25903  0.89793     C
C      0.89737  0.31923  0.65893     C
H      0.89927  0.22523  0.87743     H
H       0.9022   0.6379   0.5668     H
C       0.9049   0.7335   0.3923     C
O      0.90857  0.70913  0.08326     O
H        0.909   0.1239   0.6979     H
C       0.9108   0.2236   0.2605     C
C      0.91147  0.56403  0.00773     C
C       0.9126    0.118   0.6533     C
H       0.9135   0.0746    0.646     H
O       0.9184   0.1784  0.23111     O
H       0.9201   0.3211   0.3422     H
C      0.92387  0.37733  0.91653     C
H       0.9254   0.8389    0.646     H
C       0.9257   0.6997   0.4354     C
C      0.92653  0.26527  0.09887     C
O      0.92667  0.41493  0.56444     O
C      0.92747  0.63263  0.01933     C
O      0.93033  0.20957   0.1028     O
N      0.93087  0.47913  0.95193     N
H      0.93097  0.23553  0.76653     H
C      0.93193  0.67207  0.23447     C
Cu     0.93215  0.46968  0.48923    Cu
H      0.93233  0.58677  0.32447     H
C      0.93317  0.50473  0.72563     C
C        0.935    0.718   0.6289     C
C      0.93637  0.32893  0.88603     C
C       0.9372   0.6643   0.5959     C
H       0.9375   0.8155   0.3333     H
O       0.9393   0.5482  0.54192     O
C      0.93957  0.27053  0.73743     C
C      0.94077  0.60303  0.78063     C
O      0.94223  0.72737  0.20859     O
O       0.9459    0.403  0.43613     O
C      0.94867  0.55033  0.96223     C
H      0.95207  0.47573  0.71753     H
C       0.9523   0.7932   0.3616     C
C        0.956   0.2132   0.5832     C
C        0.957   0.3122   0.3488     C
O      0.95753  0.53277   0.4166     O
C       0.9615   0.2608    0.314     C
H      0.96327  0.64033  0.80873     H
C      0.96467  0.45523  0.91253     C
C      0.96597  0.37183  0.64733     C
C      0.96697  0.55933  0.76873     C
H      0.97123  0.40237  0.09987     H
H      0.97367  0.34373  0.85793     H
C       0.9766   0.1805   0.6258     C
C      0.97813  0.62367  0.31787     C
C      0.97887  0.68853  0.98453     C
C      0.97947  0.42253  0.59383     C
O      0.98263  0.50877  0.11857     O
C      0.98343  0.32517  0.06027     C
H       0.9845   0.7908    0.697     H
C       0.9859   0.7552   0.6744     C
H      0.98777  0.73433  0.99113     H
H       0.9896   0.2966   0.5246     H
C       0.9916   0.6501   0.6064     C
C      0.99183  0.67507  0.27307     C
H      0.99263  0.43407  0.21077     H
C       0.9946   0.5932   0.5678     C
C       0.9956   0.7259   0.4473     C
C      0.99763  0.39377  0.07077     C
