data_I
_chemical_name_common  '/home/zhangsd/repos/MofS-CGCNN/ML/data/TSD/clean_cifs/EQAMUG_clean'
_cell_length_a  6.90700
_cell_length_b 21.89700
_cell_length_c 23.15100
_cell_angle_alpha 90.00000
_cell_angle_beta  90.00000
_cell_angle_gamma 90.00000
_space_group_name_H-M_alt      'P 1'


loop_
_space_group_symop_operation_xyz
  'x, y, z' 

loop_
_atom_site_label
_atom_site_fract_x
_atom_site_fract_y
_atom_site_fract_z
_atom_site_type_symbol
O        0.035   0.0826   0.3113     O
O        0.035   0.4174   0.8113     O
C       0.0359   0.5626    0.502     C
C       0.0359   0.9374    0.002     C
O        0.039   0.5863   0.3703     O
O        0.039   0.9137   0.8703     O
O       0.0494  0.16375  0.02031     O
O       0.0494  0.33625  0.52031     O
C       0.0628   0.0373   0.0441     C
C       0.0628   0.4627   0.5441     C
H       0.0646   0.1576   0.2364     H
H       0.0646   0.3424   0.7364     H
O       0.0664  0.21088  0.14127     O
O       0.0664  0.28912  0.64127     O
N       0.0683   0.1239   0.3438     N
N       0.0683   0.3761   0.8438     N
C       0.0687   0.6303   0.5068     C
C       0.0687   0.8697   0.0068     C
C       0.0707   0.1918   0.2602     C
C       0.0707   0.3082   0.7602     C
C        0.071   0.1854   0.3196     C
C        0.071   0.3146   0.8196     C
C        0.073   0.2315   0.4215     C
C        0.073   0.2685   0.9215     C
C       0.0765   0.2347   0.3562     C
C       0.0765   0.2653   0.8562     C
Nd      0.0783  0.23157  0.55064    Nd
Nd      0.0783  0.26843  0.05064    Nd
C       0.0795   0.2497   0.2366     C
C       0.0795   0.2503   0.7366     C
C       0.0824   0.2423   0.6726     C
C       0.0824   0.2577   0.1726     C
O        0.085  0.72452  0.05241     O
O        0.085  0.77548  0.55241     O
C       0.0853   0.2069   0.8325     C
C       0.0853   0.2931   0.3325     C
C       0.0868   0.1998   0.7729     C
C       0.0868   0.3002   0.2729     C
H       0.0901   0.1729   0.8564     H
H       0.0901   0.3271   0.3564     H
H       0.0928   0.1608   0.7571     H
H       0.0928   0.3392   0.2571     H
N       0.0976   0.0692   0.0995     N
N       0.0976   0.4308   0.5995     N
O       0.1006  0.18974   0.6505     O
O       0.1006  0.31026   0.1505     O
C        0.102    0.525   0.5466     C
C        0.102    0.975   0.0466     C
O       0.1021    0.117    0.395     O
O       0.1021    0.383    0.895     O
O       0.2018  0.64858  0.53925     O
O       0.2018  0.85142  0.03925     O
O       0.2284  0.23946  0.44851     O
O       0.2284  0.26054  0.94851     O
O        0.237   0.5755   0.1107     O
O        0.237   0.9245   0.6107     O
O        0.263   0.0755   0.1107     O
O        0.263   0.4245   0.6107     O
O       0.2716  0.73946  0.44851     O
O       0.2716  0.76054  0.94851     O
O       0.2982  0.14858  0.53925     O
O       0.2982  0.35142  0.03925     O
O       0.3979    0.617    0.395     O
O       0.3979    0.883    0.895     O
C        0.398    0.025   0.5466     C
C        0.398    0.475   0.0466     C
O       0.3994  0.68974   0.6505     O
O       0.3994  0.81026   0.1505     O
N       0.4024   0.5692   0.0995     N
N       0.4024   0.9308   0.5995     N
H       0.4072   0.6608   0.7571     H
H       0.4072   0.8392   0.2571     H
H       0.4099   0.6729   0.8564     H
H       0.4099   0.8271   0.3564     H
C       0.4132   0.6998   0.7729     C
C       0.4132   0.8002   0.2729     C
C       0.4147   0.7069   0.8325     C
C       0.4147   0.7931   0.3325     C
O        0.415  0.22452  0.05241     O
O        0.415  0.27548  0.55241     O
C       0.4176   0.7423   0.6726     C
C       0.4176   0.7577   0.1726     C
C       0.4205   0.7497   0.2366     C
C       0.4205   0.7503   0.7366     C
Nd      0.4217  0.73157  0.55064    Nd
Nd      0.4217  0.76843  0.05064    Nd
C       0.4235   0.7347   0.3562     C
C       0.4235   0.7653   0.8562     C
C        0.427   0.7315   0.4215     C
C        0.427   0.7685   0.9215     C
C        0.429   0.6854   0.3196     C
C        0.429   0.8146   0.8196     C
C       0.4293   0.6918   0.2602     C
C       0.4293   0.8082   0.7602     C
C       0.4313   0.1303   0.5068     C
C       0.4313   0.3697   0.0068     C
N       0.4317   0.6239   0.3438     N
N       0.4317   0.8761   0.8438     N
O       0.4336  0.71088  0.14127     O
O       0.4336  0.78912  0.64127     O
H       0.4354   0.6576   0.2364     H
H       0.4354   0.8424   0.7364     H
C       0.4372   0.5373   0.0441     C
C       0.4372   0.9627   0.5441     C
O       0.4506  0.66375  0.02031     O
O       0.4506  0.83625  0.52031     O
O        0.461   0.0863   0.3703     O
O        0.461   0.4137   0.8703     O
C       0.4641   0.0626    0.502     C
C       0.4641   0.4374    0.002     C
O        0.465   0.5826   0.3113     O
O        0.465   0.9174   0.8113     O
O        0.535   0.0826   0.1887     O
O        0.535   0.4174   0.6887     O
C       0.5359   0.5626    0.998     C
C       0.5359   0.9374    0.498     C
O        0.539   0.5863   0.1297     O
O        0.539   0.9137   0.6297     O
O       0.5494  0.16375  0.47969     O
O       0.5494  0.33625  0.97969     O
C       0.5628   0.0373   0.4559     C
C       0.5628   0.4627   0.9559     C
H       0.5646   0.1576   0.2636     H
H       0.5646   0.3424   0.7636     H
O       0.5664  0.21088  0.35873     O
O       0.5664  0.28912  0.85873     O
N       0.5683   0.1239   0.1562     N
N       0.5683   0.3761   0.6562     N
C       0.5687   0.6303   0.9932     C
C       0.5687   0.8697   0.4932     C
C       0.5707   0.1918   0.2398     C
C       0.5707   0.3082   0.7398     C
C        0.571   0.1854   0.1804     C
C        0.571   0.3146   0.6804     C
C        0.573   0.2315   0.0785     C
C        0.573   0.2685   0.5785     C
C       0.5765   0.2347   0.1438     C
C       0.5765   0.2653   0.6438     C
Nd      0.5783  0.23157  0.94936    Nd
Nd      0.5783  0.26843  0.44936    Nd
C       0.5795   0.2497   0.2634     C
C       0.5795   0.2503   0.7634     C
C       0.5824   0.2423   0.8274     C
C       0.5824   0.2577   0.3274     C
O        0.585  0.72452  0.44759     O
O        0.585  0.77548  0.94759     O
C       0.5853   0.2069   0.6675     C
C       0.5853   0.2931   0.1675     C
C       0.5868   0.1998   0.7271     C
C       0.5868   0.3002   0.2271     C
H       0.5901   0.1729   0.6436     H
H       0.5901   0.3271   0.1436     H
H       0.5928   0.1608   0.7429     H
H       0.5928   0.3392   0.2429     H
N       0.5976   0.0692   0.4005     N
N       0.5976   0.4308   0.9005     N
O       0.6006  0.18974   0.8495     O
O       0.6006  0.31026   0.3495     O
C        0.602    0.525   0.9534     C
C        0.602    0.975   0.4534     C
O       0.6021    0.117    0.105     O
O       0.6021    0.383    0.605     O
O       0.7018  0.64858  0.96075     O
O       0.7018  0.85142  0.46075     O
O       0.7284  0.23946  0.05149     O
O       0.7284  0.26054  0.55149     O
O        0.737   0.5755   0.3893     O
O        0.737   0.9245   0.8893     O
O        0.763   0.0755   0.3893     O
O        0.763   0.4245   0.8893     O
O       0.7716  0.73946  0.05149     O
O       0.7716  0.76054  0.55149     O
O       0.7982  0.14858  0.96075     O
O       0.7982  0.35142  0.46075     O
O       0.8979    0.617    0.105     O
O       0.8979    0.883    0.605     O
C        0.898    0.025   0.9534     C
C        0.898    0.475   0.4534     C
O       0.8994  0.68974   0.8495     O
O       0.8994  0.81026   0.3495     O
N       0.9024   0.5692   0.4005     N
N       0.9024   0.9308   0.9005     N
H       0.9072   0.6608   0.7429     H
H       0.9072   0.8392   0.2429     H
H       0.9099   0.6729   0.6436     H
H       0.9099   0.8271   0.1436     H
C       0.9132   0.6998   0.7271     C
C       0.9132   0.8002   0.2271     C
C       0.9147   0.7069   0.6675     C
C       0.9147   0.7931   0.1675     C
O        0.915  0.22452  0.44759     O
O        0.915  0.27548  0.94759     O
C       0.9176   0.7423   0.8274     C
C       0.9176   0.7577   0.3274     C
C       0.9205   0.7497   0.2634     C
C       0.9205   0.7503   0.7634     C
Nd      0.9217  0.73157  0.94936    Nd
Nd      0.9217  0.76843  0.44936    Nd
C       0.9235   0.7347   0.1438     C
C       0.9235   0.7653   0.6438     C
C        0.927   0.7315   0.0785     C
C        0.927   0.7685   0.5785     C
C        0.929   0.6854   0.1804     C
C        0.929   0.8146   0.6804     C
C       0.9293   0.6918   0.2398     C
C       0.9293   0.8082   0.7398     C
C       0.9313   0.1303   0.9932     C
C       0.9313   0.3697   0.4932     C
N       0.9317   0.6239   0.1562     N
N       0.9317   0.8761   0.6562     N
O       0.9336  0.71088  0.35873     O
O       0.9336  0.78912  0.85873     O
H       0.9354   0.6576   0.2636     H
H       0.9354   0.8424   0.7636     H
C       0.9372   0.5373   0.4559     C
C       0.9372   0.9627   0.9559     C
O       0.9506  0.66375  0.47969     O
O       0.9506  0.83625  0.97969     O
O        0.961   0.0863   0.1297     O
O        0.961   0.4137   0.6297     O
C       0.9641   0.0626    0.998     C
C       0.9641   0.4374    0.498     C
O        0.965   0.5826   0.1887     O
O        0.965   0.9174   0.6887     O
