data_I
_chemical_name_common  '/home/zhangsd/repos/MofS-CGCNN/ML/data/TSD/clean_cifs/EQUNEL_clean'
_cell_length_a 22.62300
_cell_length_b 22.62300
_cell_length_c 22.62300
_cell_angle_alpha 90.00000
_cell_angle_beta  90.00000
_cell_angle_gamma 90.00000
_space_group_name_H-M_alt      'P 1'


loop_
_space_group_symop_operation_xyz
  'x, y, z' 

loop_
_atom_site_label
_atom_site_fract_x
_atom_site_fract_y
_atom_site_fract_z
_atom_site_type_symbol
C          0.0   0.0256   0.3307     C
C          0.0   0.0256   0.6693     C
C          0.0   0.0867   0.3187     C
C          0.0   0.0867   0.6813     C
C          0.0   0.2055   0.2865     C
C          0.0   0.2055   0.7135     C
H          0.0   0.2448   0.2746     H
H          0.0   0.2448   0.7254     H
H          0.0   0.7552   0.2746     H
H          0.0   0.7552   0.7254     H
C          0.0   0.7945   0.2865     C
C          0.0   0.7945   0.7135     C
C          0.0   0.9133   0.3187     C
C          0.0   0.9133   0.6813     C
C          0.0   0.9744   0.3307     C
C          0.0   0.9744   0.6693     C
C       0.0256   0.3307      0.0     C
C       0.0256   0.6693      0.0     C
C       0.0525   0.1751   0.2956     C
C       0.0525   0.1751   0.7044     C
C       0.0525   0.8249   0.2956     C
C       0.0525   0.8249   0.7044     C
C       0.0536   0.1174   0.3085     C
C       0.0536   0.1174   0.6915     C
C       0.0536   0.8826   0.3085     C
C       0.0536   0.8826   0.6915     C
C       0.0867   0.3187      0.0     C
C       0.0867   0.6813      0.0     C
H       0.0895   0.0975   0.3109     H
H       0.0895   0.0975   0.6891     H
H       0.0895   0.9025   0.3109     H
H       0.0895   0.9025   0.6891     H
H       0.0975   0.3109   0.0895     H
H       0.0975   0.3109   0.9105     H
H       0.0975   0.6891   0.0895     H
H       0.0975   0.6891   0.9105     H
C       0.1112   0.2064   0.2864     C
C       0.1112   0.2064   0.7136     C
C       0.1112   0.7936   0.2864     C
C       0.1112   0.7936   0.7136     C
O       0.1132   0.2549   0.2649     O
O       0.1132   0.2549   0.7351     O
O       0.1132   0.7451   0.2649     O
O       0.1132   0.7451   0.7351     O
C       0.1174   0.3085   0.0536     C
C       0.1174   0.3085   0.9464     C
C       0.1174   0.6915   0.0536     C
C       0.1174   0.6915   0.9464     C
O       0.1563   0.1742   0.3059     O
O       0.1563   0.1742   0.6941     O
O       0.1563   0.8258   0.3059     O
O       0.1563   0.8258   0.6941     O
C       0.1693   0.4744      0.5     C
C       0.1693   0.5256      0.5     C
O       0.1742   0.3059   0.1563     O
O       0.1742   0.3059   0.8437     O
O       0.1742   0.6941   0.1563     O
O       0.1742   0.6941   0.8437     O
C       0.1751   0.2956   0.0525     C
C       0.1751   0.2956   0.9475     C
C       0.1751   0.7044   0.0525     C
C       0.1751   0.7044   0.9475     C
C       0.1813   0.4133      0.5     C
C       0.1813   0.5867      0.5     C
In     0.18633  0.31367     0.25    In
In     0.18633  0.31367     0.75    In
In     0.18633  0.68633     0.25    In
In     0.18633  0.68633     0.75    In
H       0.1891   0.4025   0.4105     H
H       0.1891   0.4025   0.5895     H
H       0.1891   0.5975   0.4105     H
H       0.1891   0.5975   0.5895     H
C       0.1915   0.3826   0.4464     C
C       0.1915   0.3826   0.5536     C
C       0.1915   0.6174   0.4464     C
C       0.1915   0.6174   0.5536     C
O       0.1941   0.3258   0.3437     O
O       0.1941   0.3258   0.6563     O
O       0.1941   0.6742   0.3437     O
O       0.1941   0.6742   0.6563     O
C       0.2044   0.3249   0.4475     C
C       0.2044   0.3249   0.5525     C
C       0.2044   0.6751   0.4475     C
C       0.2044   0.6751   0.5525     C
C       0.2055   0.2865      0.0     C
C       0.2055   0.7135      0.0     C
C       0.2064   0.2864   0.1112     C
C       0.2064   0.2864   0.8888     C
C       0.2064   0.7136   0.1112     C
C       0.2064   0.7136   0.8888     C
C       0.2135   0.2945      0.5     C
C       0.2135   0.7055      0.5     C
C       0.2136   0.2936   0.3888     C
C       0.2136   0.2936   0.6112     C
C       0.2136   0.7064   0.3888     C
C       0.2136   0.7064   0.6112     C
H       0.2254   0.2552      0.5     H
H       0.2254   0.7448      0.5     H
O       0.2351   0.2451   0.3868     O
O       0.2351   0.2451   0.6132     O
O       0.2351   0.7549   0.3868     O
O       0.2351   0.7549   0.6132     O
H       0.2448   0.2746      0.0     H
H       0.2448   0.7254      0.0     H
O       0.2451   0.3868   0.2351     O
O       0.2451   0.3868   0.7649     O
O       0.2451   0.6132   0.2351     O
O       0.2451   0.6132   0.7649     O
In        0.25  0.18633  0.31367    In
In        0.25  0.18633  0.68633    In
O         0.25     0.25     0.25     O
O         0.25     0.25     0.75     O
O         0.25     0.75     0.25     O
O         0.25     0.75     0.75     O
In        0.25  0.81367  0.31367    In
In        0.25  0.81367  0.68633    In
O       0.2549   0.2649   0.1132     O
O       0.2549   0.2649   0.8868     O
O       0.2549   0.7351   0.1132     O
O       0.2549   0.7351   0.8868     O
H       0.2552      0.5   0.2254     H
H       0.2552      0.5   0.7746     H
O       0.2649   0.1132   0.2549     O
O       0.2649   0.1132   0.7451     O
O       0.2649   0.8868   0.2549     O
O       0.2649   0.8868   0.7451     O
H       0.2746      0.0   0.2448     H
H       0.2746      0.0   0.7552     H
C       0.2864   0.1112   0.2064     C
C       0.2864   0.1112   0.7936     C
C       0.2864   0.8888   0.2064     C
C       0.2864   0.8888   0.7936     C
C       0.2865      0.0   0.2055     C
C       0.2865      0.0   0.7945     C
C       0.2936   0.3888   0.2136     C
C       0.2936   0.3888   0.7864     C
C       0.2936   0.6112   0.2136     C
C       0.2936   0.6112   0.7864     C
C       0.2945      0.5   0.2135     C
C       0.2945      0.5   0.7865     C
C       0.2956   0.0525   0.1751     C
C       0.2956   0.0525   0.8249     C
C       0.2956   0.9475   0.1751     C
C       0.2956   0.9475   0.8249     C
O       0.3059   0.1563   0.1742     O
O       0.3059   0.1563   0.8258     O
O       0.3059   0.8437   0.1742     O
O       0.3059   0.8437   0.8258     O
C       0.3085   0.0536   0.1174     C
C       0.3085   0.0536   0.8826     C
C       0.3085   0.9464   0.1174     C
C       0.3085   0.9464   0.8826     C
H       0.3109   0.0895   0.0975     H
H       0.3109   0.0895   0.9025     H
H       0.3109   0.9105   0.0975     H
H       0.3109   0.9105   0.9025     H
In     0.31367     0.25  0.18633    In
In     0.31367     0.25  0.81367    In
In     0.31367     0.75  0.18633    In
In     0.31367     0.75  0.81367    In
C       0.3187      0.0   0.0867     C
C       0.3187      0.0   0.9133     C
C       0.3249   0.4475   0.2044     C
C       0.3249   0.4475   0.7956     C
C       0.3249   0.5525   0.2044     C
C       0.3249   0.5525   0.7956     C
O       0.3258   0.3437   0.1941     O
O       0.3258   0.3437   0.8059     O
O       0.3258   0.6563   0.1941     O
O       0.3258   0.6563   0.8059     O
C       0.3307      0.0   0.0256     C
C       0.3307      0.0   0.9744     C
O       0.3437   0.1941   0.3258     O
O       0.3437   0.1941   0.6742     O
O       0.3437   0.8059   0.3258     O
O       0.3437   0.8059   0.6742     O
C       0.3826   0.4464   0.1915     C
C       0.3826   0.4464   0.8085     C
C       0.3826   0.5536   0.1915     C
C       0.3826   0.5536   0.8085     C
O       0.3868   0.2351   0.2451     O
O       0.3868   0.2351   0.7549     O
O       0.3868   0.7649   0.2451     O
O       0.3868   0.7649   0.7549     O
C       0.3888   0.2136   0.2936     C
C       0.3888   0.2136   0.7064     C
C       0.3888   0.7864   0.2936     C
C       0.3888   0.7864   0.7064     C
H       0.4025   0.4105   0.1891     H
H       0.4025   0.4105   0.8109     H
H       0.4025   0.5895   0.1891     H
H       0.4025   0.5895   0.8109     H
H       0.4105   0.1891   0.4025     H
H       0.4105   0.1891   0.5975     H
H       0.4105   0.8109   0.4025     H
H       0.4105   0.8109   0.5975     H
C       0.4133      0.5   0.1813     C
C       0.4133      0.5   0.8187     C
C       0.4464   0.1915   0.3826     C
C       0.4464   0.1915   0.6174     C
C       0.4464   0.8085   0.3826     C
C       0.4464   0.8085   0.6174     C
C       0.4475   0.2044   0.3249     C
C       0.4475   0.2044   0.6751     C
C       0.4475   0.7956   0.3249     C
C       0.4475   0.7956   0.6751     C
C       0.4744      0.5   0.1693     C
C       0.4744      0.5   0.8307     C
C          0.5   0.1693   0.4744     C
C          0.5   0.1693   0.5256     C
C          0.5   0.1813   0.4133     C
C          0.5   0.1813   0.5867     C
C          0.5   0.2135   0.2945     C
C          0.5   0.2135   0.7055     C
H          0.5   0.2254   0.2552     H
H          0.5   0.2254   0.7448     H
H          0.5   0.7746   0.2552     H
H          0.5   0.7746   0.7448     H
C          0.5   0.7865   0.2945     C
C          0.5   0.7865   0.7055     C
C          0.5   0.8187   0.4133     C
C          0.5   0.8187   0.5867     C
C          0.5   0.8307   0.4744     C
C          0.5   0.8307   0.5256     C
C       0.5256      0.5   0.1693     C
C       0.5256      0.5   0.8307     C
C       0.5525   0.2044   0.3249     C
C       0.5525   0.2044   0.6751     C
C       0.5525   0.7956   0.3249     C
C       0.5525   0.7956   0.6751     C
C       0.5536   0.1915   0.3826     C
C       0.5536   0.1915   0.6174     C
C       0.5536   0.8085   0.3826     C
C       0.5536   0.8085   0.6174     C
C       0.5867      0.5   0.1813     C
C       0.5867      0.5   0.8187     C
H       0.5895   0.1891   0.4025     H
H       0.5895   0.1891   0.5975     H
H       0.5895   0.8109   0.4025     H
H       0.5895   0.8109   0.5975     H
H       0.5975   0.4105   0.1891     H
H       0.5975   0.4105   0.8109     H
H       0.5975   0.5895   0.1891     H
H       0.5975   0.5895   0.8109     H
C       0.6112   0.2136   0.2936     C
C       0.6112   0.2136   0.7064     C
C       0.6112   0.7864   0.2936     C
C       0.6112   0.7864   0.7064     C
O       0.6132   0.2351   0.2451     O
O       0.6132   0.2351   0.7549     O
O       0.6132   0.7649   0.2451     O
O       0.6132   0.7649   0.7549     O
C       0.6174   0.4464   0.1915     C
C       0.6174   0.4464   0.8085     C
C       0.6174   0.5536   0.1915     C
C       0.6174   0.5536   0.8085     C
O       0.6563   0.1941   0.3258     O
O       0.6563   0.1941   0.6742     O
O       0.6563   0.8059   0.3258     O
O       0.6563   0.8059   0.6742     O
C       0.6693      0.0   0.0256     C
C       0.6693      0.0   0.9744     C
O       0.6742   0.3437   0.1941     O
O       0.6742   0.3437   0.8059     O
O       0.6742   0.6563   0.1941     O
O       0.6742   0.6563   0.8059     O
C       0.6751   0.4475   0.2044     C
C       0.6751   0.4475   0.7956     C
C       0.6751   0.5525   0.2044     C
C       0.6751   0.5525   0.7956     C
C       0.6813      0.0   0.0867     C
C       0.6813      0.0   0.9133     C
In     0.68633     0.25  0.18633    In
In     0.68633     0.25  0.81367    In
In     0.68633     0.75  0.18633    In
In     0.68633     0.75  0.81367    In
H       0.6891   0.0895   0.0975     H
H       0.6891   0.0895   0.9025     H
H       0.6891   0.9105   0.0975     H
H       0.6891   0.9105   0.9025     H
C       0.6915   0.0536   0.1174     C
C       0.6915   0.0536   0.8826     C
C       0.6915   0.9464   0.1174     C
C       0.6915   0.9464   0.8826     C
O       0.6941   0.1563   0.1742     O
O       0.6941   0.1563   0.8258     O
O       0.6941   0.8437   0.1742     O
O       0.6941   0.8437   0.8258     O
C       0.7044   0.0525   0.1751     C
C       0.7044   0.0525   0.8249     C
C       0.7044   0.9475   0.1751     C
C       0.7044   0.9475   0.8249     C
C       0.7055      0.5   0.2135     C
C       0.7055      0.5   0.7865     C
C       0.7064   0.3888   0.2136     C
C       0.7064   0.3888   0.7864     C
C       0.7064   0.6112   0.2136     C
C       0.7064   0.6112   0.7864     C
C       0.7135      0.0   0.2055     C
C       0.7135      0.0   0.7945     C
C       0.7136   0.1112   0.2064     C
C       0.7136   0.1112   0.7936     C
C       0.7136   0.8888   0.2064     C
C       0.7136   0.8888   0.7936     C
H       0.7254      0.0   0.2448     H
H       0.7254      0.0   0.7552     H
O       0.7351   0.1132   0.2549     O
O       0.7351   0.1132   0.7451     O
O       0.7351   0.8868   0.2549     O
O       0.7351   0.8868   0.7451     O
H       0.7448      0.5   0.2254     H
H       0.7448      0.5   0.7746     H
O       0.7451   0.2649   0.1132     O
O       0.7451   0.2649   0.8868     O
O       0.7451   0.7351   0.1132     O
O       0.7451   0.7351   0.8868     O
In        0.75  0.18633  0.31367    In
In        0.75  0.18633  0.68633    In
O         0.75     0.25     0.25     O
O         0.75     0.25     0.75     O
O         0.75     0.75     0.25     O
O         0.75     0.75     0.75     O
In        0.75  0.81367  0.31367    In
In        0.75  0.81367  0.68633    In
O       0.7549   0.3868   0.2351     O
O       0.7549   0.3868   0.7649     O
O       0.7549   0.6132   0.2351     O
O       0.7549   0.6132   0.7649     O
H       0.7552   0.2746      0.0     H
H       0.7552   0.7254      0.0     H
O       0.7649   0.2451   0.3868     O
O       0.7649   0.2451   0.6132     O
O       0.7649   0.7549   0.3868     O
O       0.7649   0.7549   0.6132     O
H       0.7746   0.2552      0.5     H
H       0.7746   0.7448      0.5     H
C       0.7864   0.2936   0.3888     C
C       0.7864   0.2936   0.6112     C
C       0.7864   0.7064   0.3888     C
C       0.7864   0.7064   0.6112     C
C       0.7865   0.2945      0.5     C
C       0.7865   0.7055      0.5     C
C       0.7936   0.2864   0.1112     C
C       0.7936   0.2864   0.8888     C
C       0.7936   0.7136   0.1112     C
C       0.7936   0.7136   0.8888     C
C       0.7945   0.2865      0.0     C
C       0.7945   0.7135      0.0     C
C       0.7956   0.3249   0.4475     C
C       0.7956   0.3249   0.5525     C
C       0.7956   0.6751   0.4475     C
C       0.7956   0.6751   0.5525     C
O       0.8059   0.3258   0.3437     O
O       0.8059   0.3258   0.6563     O
O       0.8059   0.6742   0.3437     O
O       0.8059   0.6742   0.6563     O
C       0.8085   0.3826   0.4464     C
C       0.8085   0.3826   0.5536     C
C       0.8085   0.6174   0.4464     C
C       0.8085   0.6174   0.5536     C
H       0.8109   0.4025   0.4105     H
H       0.8109   0.4025   0.5895     H
H       0.8109   0.5975   0.4105     H
H       0.8109   0.5975   0.5895     H
In     0.81367  0.31367     0.25    In
In     0.81367  0.31367     0.75    In
In     0.81367  0.68633     0.25    In
In     0.81367  0.68633     0.75    In
C       0.8187   0.4133      0.5     C
C       0.8187   0.5867      0.5     C
C       0.8249   0.2956   0.0525     C
C       0.8249   0.2956   0.9475     C
C       0.8249   0.7044   0.0525     C
C       0.8249   0.7044   0.9475     C
O       0.8258   0.3059   0.1563     O
O       0.8258   0.3059   0.8437     O
O       0.8258   0.6941   0.1563     O
O       0.8258   0.6941   0.8437     O
C       0.8307   0.4744      0.5     C
C       0.8307   0.5256      0.5     C
O       0.8437   0.1742   0.3059     O
O       0.8437   0.1742   0.6941     O
O       0.8437   0.8258   0.3059     O
O       0.8437   0.8258   0.6941     O
C       0.8826   0.3085   0.0536     C
C       0.8826   0.3085   0.9464     C
C       0.8826   0.6915   0.0536     C
C       0.8826   0.6915   0.9464     C
O       0.8868   0.2549   0.2649     O
O       0.8868   0.2549   0.7351     O
O       0.8868   0.7451   0.2649     O
O       0.8868   0.7451   0.7351     O
C       0.8888   0.2064   0.2864     C
C       0.8888   0.2064   0.7136     C
C       0.8888   0.7936   0.2864     C
C       0.8888   0.7936   0.7136     C
H       0.9025   0.3109   0.0895     H
H       0.9025   0.3109   0.9105     H
H       0.9025   0.6891   0.0895     H
H       0.9025   0.6891   0.9105     H
H       0.9105   0.0975   0.3109     H
H       0.9105   0.0975   0.6891     H
H       0.9105   0.9025   0.3109     H
H       0.9105   0.9025   0.6891     H
C       0.9133   0.3187      0.0     C
C       0.9133   0.6813      0.0     C
C       0.9464   0.1174   0.3085     C
C       0.9464   0.1174   0.6915     C
C       0.9464   0.8826   0.3085     C
C       0.9464   0.8826   0.6915     C
C       0.9475   0.1751   0.2956     C
C       0.9475   0.1751   0.7044     C
C       0.9475   0.8249   0.2956     C
C       0.9475   0.8249   0.7044     C
C       0.9744   0.3307      0.0     C
C       0.9744   0.6693      0.0     C
