data_I
_chemical_name_common  '/home/zhangsd/repos/MofS-CGCNN/ML/data/TSD/clean_cifs/ERUVEU_clean'
_cell_length_a 21.64920
_cell_length_b  9.95280
_cell_length_c  8.41460
_cell_angle_alpha 90.00000
_cell_angle_beta  105.59700
_cell_angle_gamma 90.00000
_space_group_name_H-M_alt      'P 1'


loop_
_space_group_symop_operation_xyz
  'x, y, z' 

loop_
_atom_site_label
_atom_site_fract_x
_atom_site_fract_y
_atom_site_fract_z
_atom_site_type_symbol
Cd         0.0  0.09675     0.25    Cd
Cd         0.0  0.90325     0.75    Cd
N      0.06148   0.0673   0.9168     N
N      0.06148   0.9327   0.4168     N
N      0.06326   0.1079   0.0708     N
N      0.06326   0.8921   0.5708     N
H       0.0705    0.337    0.331     H
H       0.0705    0.663    0.831     H
H       0.0746   0.2836   0.5924     H
H       0.0746   0.7164   0.0924     H
N      0.08815   0.2541   0.3668     N
N      0.08815   0.7459   0.8668     N
C      0.11081   0.2633    0.549     C
C      0.11081   0.7367    0.049     C
N      0.11359    0.106   0.8803     N
N      0.11359    0.894   0.3803     N
C      0.11871   0.1718    0.125     C
C      0.11871   0.8282    0.625     C
H        0.128    0.177   0.5931     H
H        0.128    0.823   0.0931     H
C      0.14279   0.2227   0.2972     C
C      0.14279   0.7773   0.7972     C
N      0.15041   0.1735   0.0089     N
N      0.15041   0.8265   0.5089     N
C      0.16168   0.3697   0.6065     C
C      0.16168   0.6303   0.1065     C
N      0.16227   0.4835   0.5239     N
N      0.16227   0.5165   0.0239     N
H       0.1683    0.303   0.2979     H
H       0.1683    0.697   0.7979     H
H         0.17   0.1554    0.365     H
H         0.17   0.8446    0.865     H
N      0.21189   0.3622   0.7388     N
N      0.21189   0.6378   0.2388     N
N      0.21588   0.4525   0.1096     N
N      0.21588   0.5475   0.6096     N
N      0.24545   0.4771   0.7382     N
N      0.24545   0.5229   0.2382     N
Cd        0.25     0.25      0.0    Cd
Cd        0.25     0.75      0.5    Cd
N      0.25455   0.0229   0.2618     N
N      0.25455   0.9771   0.7618     N
N      0.28412   0.0475   0.8904     N
N      0.28412   0.9525   0.3904     N
N      0.28811   0.1378   0.2612     N
N      0.28811   0.8622   0.7612     N
H         0.33   0.3446    0.635     H
H         0.33   0.6554    0.135     H
H       0.3317    0.197   0.7021     H
H       0.3317    0.803   0.2021     H
N      0.33773   0.0165   0.4761     N
N      0.33773   0.9835   0.9761     N
C      0.33832   0.1303   0.3935     C
C      0.33832   0.8697   0.8935     C
N      0.34959   0.3265   0.9911     N
N      0.34959   0.6735   0.4911     N
C      0.35721   0.2773   0.7028     C
C      0.35721   0.7227   0.2028     C
H        0.372    0.323   0.4069     H
H        0.372    0.677   0.9069     H
C      0.38129   0.3282    0.875     C
C      0.38129   0.6718    0.375     C
N      0.38641    0.394   0.1197     N
N      0.38641    0.606   0.6197     N
C      0.38919   0.2367    0.451     C
C      0.38919   0.7633    0.951     C
N      0.41185   0.2459   0.6332     N
N      0.41185   0.7541   0.1332     N
H       0.4254   0.2164   0.4076     H
H       0.4254   0.7836   0.9076     H
H       0.4295    0.163    0.669     H
H       0.4295    0.837    0.169     H
N      0.43674   0.3921   0.9292     N
N      0.43674   0.6079   0.4292     N
N      0.43852   0.4327   0.0832     N
N      0.43852   0.5673   0.5832     N
Cd         0.5  0.40325     0.75    Cd
Cd         0.5  0.59675     0.25    Cd
N      0.56148   0.4327   0.4168     N
N      0.56148   0.5673   0.9168     N
N      0.56326   0.3921   0.5708     N
N      0.56326   0.6079   0.0708     N
H       0.5705    0.163    0.831     H
H       0.5705    0.837    0.331     H
H       0.5746   0.2164   0.0924     H
H       0.5746   0.7836   0.5924     H
N      0.58815   0.2459   0.8668     N
N      0.58815   0.7541   0.3668     N
C      0.61081   0.2367    0.049     C
C      0.61081   0.7633    0.549     C
N      0.61359    0.394   0.3803     N
N      0.61359    0.606   0.8803     N
C      0.61871   0.3282    0.625     C
C      0.61871   0.6718    0.125     C
H        0.628    0.323   0.0931     H
H        0.628    0.677   0.5931     H
C      0.64279   0.2773   0.7972     C
C      0.64279   0.7227   0.2972     C
N      0.65041   0.3265   0.5089     N
N      0.65041   0.6735   0.0089     N
C      0.66168   0.1303   0.1065     C
C      0.66168   0.8697   0.6065     C
N      0.66227   0.0165   0.0239     N
N      0.66227   0.9835   0.5239     N
H       0.6683    0.197   0.7979     H
H       0.6683    0.803   0.2979     H
H         0.67   0.3446    0.865     H
H         0.67   0.6554    0.365     H
N      0.71189   0.1378   0.2388     N
N      0.71189   0.8622   0.7388     N
N      0.71588   0.0475   0.6096     N
N      0.71588   0.9525   0.1096     N
N      0.74545   0.0229   0.2382     N
N      0.74545   0.9771   0.7382     N
Cd        0.75     0.25      0.5    Cd
Cd        0.75     0.75      0.0    Cd
N      0.75455   0.4771   0.7618     N
N      0.75455   0.5229   0.2618     N
N      0.78412   0.4525   0.3904     N
N      0.78412   0.5475   0.8904     N
N      0.78811   0.3622   0.7612     N
N      0.78811   0.6378   0.2612     N
H         0.83   0.1554    0.135     H
H         0.83   0.8446    0.635     H
H       0.8317    0.303   0.2021     H
H       0.8317    0.697   0.7021     H
N      0.83773   0.4835   0.9761     N
N      0.83773   0.5165   0.4761     N
C      0.83832   0.3697   0.8935     C
C      0.83832   0.6303   0.3935     C
N      0.84959   0.1735   0.4911     N
N      0.84959   0.8265   0.9911     N
C      0.85721   0.2227   0.2028     C
C      0.85721   0.7773   0.7028     C
H        0.872    0.177   0.9069     H
H        0.872    0.823   0.4069     H
C      0.88129   0.1718    0.375     C
C      0.88129   0.8282    0.875     C
N      0.88641    0.106   0.6197     N
N      0.88641    0.894   0.1197     N
C      0.88919   0.2633    0.951     C
C      0.88919   0.7367    0.451     C
N      0.91185   0.2541   0.1332     N
N      0.91185   0.7459   0.6332     N
H       0.9254   0.2836   0.9076     H
H       0.9254   0.7164   0.4076     H
H       0.9295    0.337    0.169     H
H       0.9295    0.663    0.669     H
N      0.93674   0.1079   0.4292     N
N      0.93674   0.8921   0.9292     N
N      0.93852   0.0673   0.5832     N
N      0.93852   0.9327   0.0832     N
