data_I
_chemical_name_common  '/home/zhangsd/repos/MofS-CGCNN/ML/data/TSD/clean_cifs/ESANET_clean'
_cell_length_a 27.14800
_cell_length_b 27.14800
_cell_length_c  9.95700
_cell_angle_alpha 90.00000
_cell_angle_beta  90.00000
_cell_angle_gamma 120.00000
_space_group_name_H-M_alt      'P 1'


loop_
_space_group_symop_operation_xyz
  'x, y, z' 

loop_
_atom_site_label
_atom_site_fract_x
_atom_site_fract_y
_atom_site_fract_z
_atom_site_type_symbol
Cd         0.0      0.5      0.5    Cd
N      0.00651  0.38779   0.4332     N
N      0.00778  0.31351  0.67873     N
H      0.01377  0.17943  0.46433     H
N      0.01438  0.28549  0.57533     N
Cd     0.01532  0.73677   0.6593    Cd
N      0.01898  0.43621   0.7529     N
N      0.01982  0.36093   0.3454     N
N      0.02563  0.44083   0.3897     N
N       0.0276  0.67444  0.98793     N
N      0.03366  0.48589    0.701     N
H      0.03567  0.16693  0.27093     H
N      0.03981  0.21824  0.42203     N
H       0.0455   0.4944   0.1299     H
N      0.04784  0.39555    0.242     N
N      0.04795  0.32682  0.76653     N
C      0.05072   0.4441   0.2727     C
N      0.05087  0.44418   0.8604     N
N      0.05446  0.71461  0.90013     N
Cd     0.05479  0.65135  0.32596    Cd
N      0.05998  0.28246  0.19373     N
C      0.06005  0.28261  0.60603     C
N      0.06222  0.68104  0.09133     N
C      0.06385  0.20343  0.30753     C
Cd      0.0701  0.38812  0.00737    Cd
Cl     0.07461  0.83651  0.77242    Cl
N       0.0751  0.52686   0.7725     N
C      0.07546  0.49344   0.1807     C
C      0.08142  0.24816  0.20363     C
N      0.08187   0.3077  0.72303     N
N       0.0839  0.31435  0.08623     N
C      0.08465  0.25787  0.51403     C
C      0.08517  0.49992   0.8703     C
Cl     0.09523  0.59205  0.43908    Cl
H       0.0955   0.5284   0.2318     H
H      0.09647  0.20053  0.33643     H
H      0.09957  0.23783  0.56513     H
N      0.10288  0.75056  0.58043     N
H      0.10407  0.90353  0.33643     H
N       0.1075  0.74853  0.94363     N
C      0.11077  0.72671  0.06063     C
N      0.11085  0.72664  0.47293     N
N      0.11509  0.48823   0.0887     N
H      0.11557  0.28783  0.46323     H
N      0.11843  0.25823  0.10583     N
N       0.1189  0.29967  0.03433     N
C       0.1299  0.52708   0.9742     C
H      0.13127  0.96433  0.27093     H
H       0.1328   0.5626   0.0031     H
H      0.13827  0.90043  0.56513     H
C      0.13959  0.93615  0.30753     C
N      0.13981  0.88157  0.10583     N
N      0.15256  0.78556  0.63233     N
H       0.1539    0.501    0.131     H
N       0.1549  0.70647  0.24463     N
C      0.16011  0.75131  0.15263     C
H      0.16107  0.78223  0.20343     H
Cl     0.16349  0.23811  0.77242    Cl
H      0.16567  0.98623  0.46433     H
H       0.1664   0.5354   0.9376     H
C      0.16659  0.74808  0.46303     C
Cd     0.16667  0.33333  0.83333    Cd
Cd     0.16667  0.83333  0.83333    Cd
C      0.16675  0.91858  0.20363     C
H      0.16693  0.13127  0.72907     H
H      0.16767  0.68043  0.20233     H
Cl     0.16984  0.42856  0.89425    Cl
H      0.17227  0.88443  0.46323     H
C      0.17323  0.91535  0.51403     C
N      0.17844  0.96019  0.42203     N
H      0.17943  0.16567  0.53567     H
N      0.18078   0.8811  0.03433     N
N      0.19353  0.78509  0.56083     N
C      0.19375  0.73051  0.35913     C
H      0.19507  0.76623  0.10153     H
H      0.20053  0.10407  0.66357     H
H      0.20207  0.70233  0.39573     H
C      0.20343  0.13959  0.69247     C
N      0.21444  0.36699  0.63233     N
N      0.21491  0.40843  0.56083     N
H      0.21777  0.37883  0.20343     H
N      0.21824  0.17844  0.57797     N
N      0.22249  0.94002  0.19373     N
C      0.22257  0.93995  0.60603     C
N      0.22584  0.91813  0.72303     N
H      0.22927  0.76313  0.33023     H
N      0.23046   0.9161  0.08623     N
H      0.23377  0.42883  0.10153     H
H      0.23687  0.46613  0.33023     H
H      0.23783  0.13827  0.43487     H
Cl     0.23811  0.07461  0.22758    Cl
C      0.24816  0.16675  0.79637     C
C      0.24869  0.40879  0.15263     C
N      0.24944  0.35231  0.58043     N
N      0.25147  0.35896  0.94363     N
C      0.25192   0.4185  0.46303     C
C      0.25787  0.17323  0.48597     C
N      0.25823  0.13981  0.89417     N
Cl     0.25872  0.83016  0.89425    Cl
Cd     0.26323  0.27855   0.6593    Cd
C      0.26949  0.46323  0.35913     C
N      0.27112  0.98562  0.57533     N
C      0.27329  0.38405  0.06063     C
N      0.27336   0.3842  0.47293     N
Cd     0.27855  0.01532   0.3407    Cd
N      0.27888  0.95205  0.76653     N
N      0.28246  0.22249  0.80627     N
C      0.28261  0.22257  0.39397     C
N      0.28539  0.33984  0.90013     N
N      0.28549  0.27112  0.42467     N
H      0.28783  0.17227  0.53677     H
N      0.29353  0.44842  0.24463     N
H      0.29767  0.49973  0.39573     H
N      0.29967  0.18078  0.96567     N
N      0.30574  0.99222  0.67873     N
N       0.3077  0.22584  0.27697     N
N      0.31351  0.30574  0.32127     N
N      0.31435  0.23046  0.91377     N
Cd     0.31802   0.9299  0.00737    Cd
N      0.31896  0.38117  0.09133     N
H      0.31957  0.48723  0.20233     H
N      0.32556  0.35315  0.98793     N
N      0.32682  0.27888  0.23347     N
Cd     0.33333  0.16667  0.16667    Cd
N      0.33984  0.05446  0.09987     N
N      0.34111  0.98018   0.3454     N
H       0.3471   0.8461    0.131     H
N      0.34771  0.95216    0.242     N
Cd     0.34865  0.40344  0.32596    Cd
N      0.35231  0.10288  0.41957     N
N      0.35315   0.0276  0.01207     N
N      0.35896   0.1075  0.05637     N
N      0.36093  0.34111   0.6546     N
N      0.36699  0.15256  0.36767     N
H        0.369   0.8336   0.9376     H
N      0.37314  0.88491   0.0887     N
H      0.37883  0.16107  0.79657     H
N      0.38117  0.06222  0.90867     N
N      0.38128  0.99349   0.4332     N
C      0.38405  0.11077  0.93937     C
N       0.3842  0.11085  0.52707     N
N      0.38779  0.38128   0.5668     N
Cd     0.38812  0.31802  0.99263    Cd
N      0.39331  0.94913   0.8604     N
C      0.39338  0.94928   0.2727     C
N      0.39555  0.34771    0.758     N
C      0.39718   0.8701   0.9742     C
Cd     0.40344  0.05479  0.67404    Cd
Cl     0.40795  0.50317  0.43908    Cl
N      0.40843  0.19353  0.43917     N
C      0.40879  0.16011  0.84737     C
C      0.41475  0.91483   0.8703     C
N       0.4152  0.97437   0.3897     N
N      0.41723  0.98102   0.7529     N
C      0.41798  0.92454   0.1807     C
C       0.4185  0.16659  0.53697     C
Cl     0.42856  0.25872  0.10575    Cl
H      0.42883  0.19507  0.89847     H
H       0.4298   0.8672   0.0031     H
H       0.4329   0.9045   0.2318     H
N      0.43621  0.41723   0.2471     N
H       0.4374   0.5702   0.0031     H
N      0.44083   0.4152   0.6103     N
C       0.4441  0.39338   0.7273     C
N      0.44418  0.39331   0.1396     N
N      0.44842   0.1549  0.75537     N
H       0.4489   0.9545   0.1299     H
N      0.45176   0.9249   0.7725     N
N      0.45223  0.96634    0.701     N
C      0.46323  0.19375  0.64087     C
H       0.4646    0.631   0.9376     H
H      0.46613  0.22927  0.66977     H
H       0.4716   0.5671   0.2318     H
C      0.47292  0.60282   0.9742     C
N      0.47314  0.54824   0.7725     N
N      0.48589  0.45223    0.299     N
H      0.48723  0.16767  0.79767     H
N      0.48823  0.37314   0.9113     N
C      0.49344  0.41798   0.8193     C
H       0.4944   0.4489   0.8701     H
Cl     0.49683  0.90477  0.43908    Cl
H        0.499   0.6529    0.131     H
H      0.49973  0.20207  0.60427     H
C      0.49992  0.41475   0.1297     C
Cd         0.5      0.0      0.5    Cd
Cd         0.5      0.5      0.5    Cd
C      0.50008  0.58525   0.8703     C
H      0.50027  0.79793  0.39573     H
H        0.501   0.3471    0.869     H
Cl     0.50317  0.09523  0.56092    Cl
H       0.5056   0.5511   0.1299     H
C      0.50656  0.58202   0.1807     C
N      0.51177  0.62686   0.0887     N
H      0.51277  0.83233  0.20233     H
N      0.51411  0.54777    0.701     N
N      0.52686  0.45176   0.2275     N
C      0.52708  0.39718   0.0258     C
H       0.5284   0.4329   0.7682     H
H      0.53387  0.77073  0.33023     H
H       0.5354    0.369   0.0624     H
C      0.53677  0.80625  0.35913     C
N      0.54777  0.03366    0.299     N
N      0.54824   0.0751   0.2275     N
H       0.5511   0.0455   0.8701     H
N      0.55158   0.8451  0.24463     N
N      0.55582  0.60669   0.8604     N
C       0.5559  0.60662   0.2727     C
N      0.55917   0.5848   0.3897     N
H       0.5626   0.4298   0.9969     H
N      0.56379  0.58277   0.7529     N
H       0.5671   0.0955   0.7682     H
H       0.5702   0.1328   0.9969     H
H      0.57117  0.80493  0.10153     H
Cl     0.57144  0.74128  0.89425    Cl
C       0.5815  0.83341  0.46303     C
C      0.58202  0.07546   0.8193     C
N      0.58277  0.01898   0.2471     N
N       0.5848  0.02563   0.6103     N
C      0.58525  0.08517   0.1297     C
C      0.59121  0.83989  0.15263     C
N      0.59157  0.80647  0.56083     N
Cl     0.59205  0.49683  0.56092    Cl
Cd     0.59656  0.94521  0.32596    Cd
C      0.60282   0.1299   0.0258     C
N      0.60445  0.65229    0.242     N
C      0.60662  0.05072   0.7273     C
N      0.60669  0.05087   0.1396     N
Cd     0.61188  0.68199  0.00737    Cd
N      0.61221  0.61872   0.4332     N
N       0.6158  0.88915  0.47293     N
C      0.61595  0.88923  0.06063     C
N      0.61872  0.00651   0.5668     N
N      0.61883  0.93778  0.09133     N
H      0.62117  0.83893  0.20343     H
N      0.62686  0.11509   0.9113     N
H        0.631   0.1664   0.0624     H
N      0.63301  0.84744  0.63233     N
N      0.63907  0.65889   0.3454     N
N      0.64104   0.8925  0.94363     N
N      0.64685   0.9724  0.98793     N
N      0.64769  0.89712  0.58043     N
Cd     0.65135  0.59656  0.67404    Cd
N      0.65229  0.04784    0.758     N
H       0.6529   0.1539    0.869     H
N      0.65889  0.01982   0.6546     N
N      0.66016  0.94554  0.90013     N
Cd     0.66667  0.83333  0.83333    Cd
N      0.67318  0.72112  0.76653     N
N      0.67444  0.64685  0.01207     N
H      0.68043  0.51277  0.79767     H
N      0.68104  0.61883  0.90867     N
Cd     0.68199   0.0701  0.99263    Cd
N      0.68565  0.76954  0.08623     N
N      0.68649  0.69426  0.67873     N
N       0.6923  0.77416  0.72303     N
N      0.69426  0.00778  0.32127     N
N      0.70033  0.81922  0.03433     N
H      0.70233  0.50027  0.60427     H
N      0.70647  0.55158  0.75537     N
H      0.71217  0.82773  0.46323     H
N      0.71451  0.72888  0.57533     N
N      0.71461  0.66016  0.09987     N
C      0.71739  0.77743  0.60603     C
N      0.71754  0.77751  0.19373     N
N      0.72112  0.04795  0.23347     N
Cd     0.72145  0.98468   0.6593    Cd
N      0.72664   0.6158  0.52707     N
C      0.72671  0.61595  0.93937     C
N      0.72888  0.01438  0.42467     N
C      0.73051  0.53677  0.64087     C
Cd     0.73677  0.72145   0.3407    Cd
Cl     0.74128  0.16984  0.10575    Cl
N      0.74177  0.86019  0.10583     N
C      0.74213  0.82677  0.51403     C
C      0.74808   0.5815  0.53697     C
N      0.74853  0.64104  0.05637     N
N      0.75056  0.64769  0.41957     N
C      0.75131  0.59121  0.84737     C
C      0.75184  0.83325  0.20363     C
Cl     0.76189  0.92539  0.77242    Cl
H      0.76217  0.86173  0.56513     H
H      0.76313  0.53387  0.66977     H
H      0.76623  0.57117  0.89847     H
N      0.76954   0.0839  0.91377     N
H      0.77073  0.23687  0.66977     H
N      0.77416  0.08187  0.27697     N
C      0.77743  0.06005  0.39397     C
N      0.77751  0.05998  0.80627     N
N      0.78176  0.82156  0.42203     N
H      0.78223  0.62117  0.79657     H
N      0.78509  0.59157  0.43917     N
N      0.78556  0.63301  0.36767     N
C      0.79657  0.86041  0.30753     C
H      0.79793  0.29767  0.60427     H
H      0.79947  0.89593  0.33643     H
H      0.80493  0.23377  0.89847     H
C      0.80625  0.26949  0.64087     C
N      0.80647  0.21491  0.43917     N
N      0.81922   0.1189  0.96567     N
H      0.82057  0.83433  0.46433     H
N      0.82156  0.03981  0.57797     N
C      0.82677  0.08465  0.48597     C
H      0.82773  0.11557  0.53677     H
Cl     0.83016  0.57144  0.10575    Cl
H      0.83233  0.31957  0.79767     H
H      0.83307  0.86873  0.27093     H
C      0.83325  0.08142  0.79637     C
Cd     0.83333  0.16667  0.16667    Cd
Cd     0.83333  0.66667  0.16667    Cd
C      0.83341  0.25192  0.53697     C
H       0.8336   0.4646   0.0624     H
H      0.83433  0.01377  0.53567     H
Cl     0.83651  0.76189  0.22758    Cl
H      0.83893  0.21777  0.79657     H
C      0.83989  0.24869  0.84737     C
N       0.8451  0.29353  0.75537     N
H       0.8461    0.499    0.869     H
N      0.84744  0.21444  0.36767     N
N      0.86019  0.11843  0.89417     N
C      0.86041  0.06385  0.69247     C
H      0.86173  0.09957  0.43487     H
H       0.8672   0.4374   0.9969     H
H      0.86873  0.03567  0.72907     H
C       0.8701  0.47292   0.0258     C
N       0.8811  0.70033  0.96567     N
N      0.88157  0.74177  0.89417     N
H      0.88443  0.71217  0.53677     H
N      0.88491  0.51177   0.9113     N
N      0.88915  0.27336  0.52707     N
C      0.88923  0.27329  0.93937     C
N       0.8925  0.25147  0.05637     N
H      0.89593  0.09647  0.66357     H
N      0.89712  0.24944  0.41957     N
H      0.90043  0.76217  0.43487     H
H      0.90353  0.79947  0.66357     H
H       0.9045   0.4716   0.7682     H
Cl     0.90477  0.40795  0.56092    Cl
C      0.91483  0.50008   0.1297     C
C      0.91535  0.74213  0.48597     C
N       0.9161  0.68565  0.91377     N
N      0.91813   0.6923  0.27697     N
C      0.91858  0.75184  0.79637     C
C      0.92454  0.50656   0.8193     C
N       0.9249  0.47314   0.2275     N
Cl     0.92539  0.16349  0.22758    Cl
Cd      0.9299  0.61188  0.99263    Cd
C      0.93615  0.79657  0.69247     C
N      0.93778  0.31896  0.90867     N
C      0.93995  0.71739  0.39397     C
N      0.94002  0.71754  0.80627     N
Cd     0.94521  0.34865  0.67404    Cd
N      0.94554  0.28539  0.09987     N
N      0.94913  0.55582   0.1396     N
C      0.94928   0.5559   0.7273     C
N      0.95205  0.67318  0.23347     N
N      0.95216  0.60445    0.758     N
H       0.9545   0.5056   0.8701     H
N      0.96019  0.78176  0.57797     N
H      0.96433  0.83307  0.72907     H
N      0.96634  0.51411    0.299     N
N       0.9724  0.32556  0.01207     N
N      0.97437  0.55917   0.6103     N
N      0.98018  0.63907   0.6546     N
N      0.98102  0.56379   0.2471     N
Cd     0.98468  0.26323   0.3407    Cd
N      0.98562  0.71451  0.42467     N
H      0.98623  0.82057  0.53567     H
N      0.99222  0.68649  0.32127     N
N      0.99349  0.61221   0.5668     N
