data_I
_chemical_name_common  '/home/zhangsd/repos/MofS-CGCNN/ML/data/TSD/clean_cifs/ESIDOB_clean'
_cell_length_a  7.27760
_cell_length_b 22.06000
_cell_length_c 15.02340
_cell_angle_alpha 90.00000
_cell_angle_beta  98.68700
_cell_angle_gamma 90.00000
_space_group_name_H-M_alt      'P 1'


loop_
_space_group_symop_operation_xyz
  'x, y, z' 

loop_
_atom_site_label
_atom_site_fract_x
_atom_site_fract_y
_atom_site_fract_z
_atom_site_type_symbol
In         0.0      0.0      0.5    In
In         0.0      0.5      0.0    In
H       0.0093   0.9095   0.9967     H
C       0.0215   0.0269   0.8108     C
H       0.0219    0.698   0.0568     H
C       0.0431   0.2734   0.4648     C
C       0.0433   0.9209   0.0565     C
H       0.0479   0.8005   0.0758     H
H        0.051   0.8095   0.5123     H
C       0.0523   0.2124   0.4765     C
C       0.0752   0.0448   0.8997     C
O        0.079   0.9963    0.368     O
H       0.0853   0.5341   0.4553     H
O       0.0926   0.0918   0.5104     O
H       0.1021   0.0041   0.7818     H
H       0.1076   0.4131   0.2806     H
O       0.1196   0.5904    0.025     O
O       0.1308   0.4692   0.1341     O
C       0.1329   0.7172   0.0503     C
O       0.1354   0.4962   0.5969     O
N       0.1403   0.6979    0.539     N
C       0.1491   0.7785   0.0622     C
C       0.1527    0.957   0.2348     C
O       0.1623   0.3695   0.4392     O
H       0.1702   0.4536   0.8913     H
C       0.1921   0.3078   0.4453     C
O       0.1934   0.5436   0.4736     O
O        0.202   0.6656   0.5988     O
C       0.2068   0.9752   0.3313     C
C       0.2136   0.9038   0.1041     C
O        0.219   0.7072   0.4728     O
C       0.2199   0.1835   0.4714     C
C       0.2262   0.4228   0.3093     C
O       0.2314   0.4711   0.9459     O
C       0.2334   0.1162   0.4851     C
C       0.2373   0.5263   0.5551     C
C       0.2627   0.0263   0.9449     C
C       0.2666   0.6162   0.0149     C
O       0.2686   0.9711   0.5541     O
C       0.2738   0.9228   0.1907     C
C       0.2801   0.6835   0.0286     C
O        0.281   0.2072   0.0272     O
C       0.2864   0.4038   0.3959     C
C       0.2932   0.4752   0.1687     C
O        0.298   0.1656   0.9012     O
O       0.3066   0.0436   0.0264     O
C       0.3079   0.8078   0.0547     C
H       0.3298   0.9536   0.6087     H
O       0.3377   0.8695   0.0608     O
C       0.3473    0.457   0.2652     C
C       0.3509   0.2785   0.4378     C
N       0.3597   0.1979    0.961     N
O       0.3646   0.9962   0.9031     O
C       0.3671   0.2172   0.4497     C
O       0.3692   0.9692   0.3659     O
O       0.3804   0.0904    0.475     O
H       0.3924   0.9131   0.2194     H
H       0.3979   0.5041   0.7182     H
O       0.4074   0.5918   0.9896     O
H       0.4147   0.0341   0.0447     H
O        0.421   0.4963    0.132     O
C       0.4248   0.5448   0.6003     C
C       0.4477   0.7124   0.0235     C
H        0.449   0.3095   0.9877     H
H       0.4521   0.3005   0.4242     H
C       0.4567   0.4209   0.4435     C
C       0.4569   0.7734   0.0352     C
H       0.4781    0.198   0.4432     H
C       0.4785   0.5269   0.6892     C
H       0.4907   0.4095   0.5033     H
In         0.5      0.0      0.5    In
In         0.5      0.5      0.0    In
H       0.5093   0.5905   0.4967     H
C       0.5215   0.4731   0.3108     C
H       0.5219    0.802   0.5568     H
C       0.5431   0.2266   0.9648     C
C       0.5433   0.5791   0.5565     C
H       0.5479   0.6995   0.5758     H
H        0.551   0.6905   0.0123     H
C       0.5523   0.2876   0.9765     C
C       0.5752   0.4552   0.3997     C
O        0.579   0.5037    0.868     O
H       0.5853   0.9659   0.9553     H
O       0.5926   0.4082   0.0104     O
H       0.6021   0.4959   0.2818     H
H       0.6076   0.0869   0.7806     H
O       0.6196   0.9096    0.525     O
O       0.6308   0.0308   0.6341     O
C       0.6329   0.7828   0.5503     C
O       0.6354   0.0038   0.0969     O
N       0.6403   0.8021    0.039     N
C       0.6491   0.7215   0.5622     C
C       0.6527    0.543   0.7348     C
O       0.6623   0.1305   0.9392     O
H       0.6702   0.0464   0.3913     H
C       0.6921   0.1922   0.9453     C
O       0.6934   0.9564   0.9736     O
O        0.702   0.8344   0.0988     O
C       0.7068   0.5248   0.8313     C
C       0.7136   0.5962   0.6041     C
O        0.719   0.7928   0.9728     O
C       0.7199   0.3165   0.9714     C
C       0.7262   0.0772   0.8093     C
O       0.7314   0.0289   0.4459     O
C       0.7334   0.3838   0.9851     C
C       0.7373   0.9737   0.0551     C
C       0.7627   0.4737   0.4449     C
C       0.7666   0.8838   0.5149     C
O       0.7686   0.5289   0.0541     O
C       0.7738   0.5772   0.6907     C
C       0.7801   0.8165   0.5286     C
O        0.781   0.2928   0.5272     O
C       0.7864   0.0962   0.8959     C
C       0.7932   0.0248   0.6687     C
O        0.798   0.3344   0.4012     O
O       0.8066   0.4564   0.5264     O
C       0.8079   0.6922   0.5547     C
H       0.8298   0.5464   0.1087     H
O       0.8377   0.6305   0.5608     O
C       0.8473    0.043   0.7652     C
C       0.8509   0.2215   0.9378     C
N       0.8597   0.3021    0.461     N
O       0.8646   0.5038   0.4031     O
C       0.8671   0.2828   0.9497     C
O       0.8692   0.5308   0.8659     O
O       0.8804   0.4096    0.975     O
H       0.8924   0.5869   0.7194     H
H       0.8979   0.9959   0.2182     H
O       0.9074   0.9082   0.4896     O
H       0.9147   0.4659   0.5447     H
O        0.921   0.0037    0.632     O
C       0.9248   0.9552   0.1003     C
C       0.9477   0.7876   0.5235     C
H        0.949   0.1905   0.4877     H
H       0.9521   0.1995   0.9242     H
C       0.9567   0.0791   0.9435     C
C       0.9569   0.7266   0.5352     C
H       0.9781    0.302   0.9432     H
C       0.9785   0.9731   0.1892     C
H       0.9907   0.0905   0.0033     H
