data_I
_chemical_name_common  '/home/zhangsd/repos/MofS-CGCNN/ML/data/TSD/clean_cifs/ETAXIH_clean'
_cell_length_a 14.34700
_cell_length_b 14.34700
_cell_length_c 20.40800
_cell_angle_alpha 90.00000
_cell_angle_beta  90.00000
_cell_angle_gamma 120.00000
_space_group_name_H-M_alt      'P 1'


loop_
_space_group_symop_operation_xyz
  'x, y, z' 

loop_
_atom_site_label
_atom_site_fract_x
_atom_site_fract_y
_atom_site_fract_z
_atom_site_type_symbol
Zn         0.0   0.6375     0.75    Zn
H       0.0016   0.2378   0.6623     H
H       0.0016   0.7638   0.1623     H
C        0.005    0.248   0.6152     C
C        0.005    0.757   0.1152     C
H       0.0172   0.3995   0.6221     H
H       0.0172   0.6177   0.1221     H
C       0.0264   0.3825   0.9729     C
C       0.0264   0.6439   0.4729     C
C         0.03   0.3631   0.9008     C
C         0.03   0.6669   0.4008     C
H       0.0336    0.127   0.9108     H
H       0.0336   0.9066   0.4108     H
C       0.0337    0.412   0.4268     C
C       0.0337   0.6217   0.9268     C
N       0.0648   0.4192   0.4922     N
N       0.0648   0.6456   0.9922     N
C       0.0653    0.203   0.9179     C
C       0.0653   0.8623   0.4179     C
H       0.0695   0.2172   0.9641     H
H       0.0695   0.8523   0.4641     H
H       0.0788   0.2767   0.6016     H
H       0.0788   0.8021   0.1016     H
C       0.0797   0.4219   0.0767     C
C       0.0797   0.6578   0.5767     C
H       0.0934    0.127   0.4108     H
H       0.0934   0.9664   0.9108     H
O       0.0972   0.4734   0.3167     O
O       0.0972   0.6238   0.8167     O
H       0.1026   0.4095   0.8849     H
H       0.1026   0.6931   0.3849     H
H       0.1033   0.2397   0.3994     H
H       0.1033   0.8636   0.8994     H
N       0.1152   0.4261   0.0126     N
N       0.1152   0.6891   0.5126     N
C       0.1175   0.4785   0.3769     C
C       0.1175    0.639   0.8769     C
H        0.127   0.0336   0.5892     H
H        0.127   0.0934   0.0892     H
O       0.1344   0.4596     0.19     O
O       0.1344   0.6748     0.69     O
H       0.1364   0.2397   0.8994     H
H       0.1364   0.8967   0.3994     H
C       0.1377    0.203   0.4179     C
C       0.1377   0.9347   0.9179     C
H       0.1477   0.2172   0.4641     H
H       0.1477   0.9305   0.9641     H
C       0.1606   0.4632   0.1306     C
C       0.1606   0.6974   0.6306     C
H       0.1979   0.2767   0.1016     H
H       0.1979   0.9212   0.6016     H
C        0.203   0.0653   0.5821     C
C        0.203   0.1377   0.0821     C
O       0.2125   0.5441    0.401     O
O       0.2125   0.6684    0.901     O
H       0.2172   0.0695   0.5359     H
H       0.2172   0.1477   0.0359     H
Zn     0.22633  0.50551   0.5058    Zn
Zn     0.22633  0.72082   0.0058    Zn
H       0.2362   0.2378   0.1623     H
H       0.2362   0.9984   0.6623     H
H       0.2378   0.0016   0.8377     H
H       0.2378   0.2362   0.3377     H
H       0.2397   0.1033   0.1006     H
H       0.2397   0.1364   0.6006     H
O       0.2398   0.5004   0.6122     O
O       0.2398   0.7394   0.1122     O
C        0.243    0.248   0.1152     C
C        0.243    0.995   0.6152     C
C        0.248    0.005   0.8848     C
C        0.248    0.243   0.3848     C
O       0.2606   0.5004   0.1122     O
O       0.2606   0.7602   0.6122     O
H       0.2767   0.0788   0.8984     H
H       0.2767   0.1979   0.3984     H
Zn     0.27918  0.50551   0.0058    Zn
Zn     0.27918  0.77367   0.5058    Zn
C       0.3026   0.4632   0.6306     C
C       0.3026   0.8394   0.1306     C
H       0.3069   0.4095   0.3849     H
H       0.3069   0.8974   0.8849     H
N       0.3109   0.4261   0.5126     N
N       0.3109   0.8848   0.0126     N
O       0.3252   0.4596     0.69     O
O       0.3252   0.8656     0.19     O
O       0.3316   0.5441    0.901     O
O       0.3316   0.7875    0.401     O
C       0.3331   0.3631   0.4008     C
C       0.3331     0.97   0.9008     C
O      0.33333  0.66666   0.0209     O
O      0.33333  0.66666   0.5209     O
C       0.3422   0.4219   0.5767     C
C       0.3422   0.9203   0.0767     C
N       0.3544   0.4192   0.9922     N
N       0.3544   0.9352   0.4922     N
C       0.3561   0.3825   0.4729     C
C       0.3561   0.9736   0.9729     C
C        0.361   0.4785   0.8769     C
C        0.361   0.8825   0.3769     C
Zn      0.3625      0.0     0.25    Zn
Zn      0.3625   0.3625     0.75    Zn
C       0.3631     0.03   0.5992     C
C       0.3631   0.3331   0.0992     C
O       0.3762   0.4734   0.8167     O
O       0.3762   0.9028   0.3167     O
C       0.3783    0.412   0.9268     C
C       0.3783   0.9663   0.4268     C
H       0.3823   0.3995   0.1221     H
H       0.3823   0.9828   0.6221     H
C       0.3825   0.0264   0.5271     C
C       0.3825   0.3561   0.0271     C
H       0.3995   0.0172   0.8779     H
H       0.3995   0.3823   0.3779     H
H       0.4095   0.1026   0.6151     H
H       0.4095   0.3069   0.1151     H
C        0.412   0.0337   0.0732     C
C        0.412   0.3783   0.5732     C
N       0.4192   0.0648   0.0078     N
N       0.4192   0.3544   0.5078     N
C       0.4219   0.0797   0.4233     C
C       0.4219   0.3422   0.9233     C
N       0.4261   0.1152   0.4874     N
N       0.4261   0.3109   0.9874     N
O       0.4559   0.6684    0.401     O
O       0.4559   0.7875    0.901     O
O       0.4596   0.1344     0.31     O
O       0.4596   0.3252     0.81     O
C       0.4632   0.1606   0.3694     C
C       0.4632   0.3026   0.8694     C
O       0.4734   0.0972   0.1833     O
O       0.4734   0.3762   0.6833     O
C       0.4785   0.1175   0.1231     C
C       0.4785    0.361   0.6231     C
Zn     0.49449  0.72082   0.5058    Zn
Zn     0.49449  0.77367   0.0058    Zn
O       0.4996   0.7394   0.6122     O
O       0.4996   0.7602   0.1122     O
O       0.5004   0.2398   0.8878     O
O       0.5004   0.2606   0.3878     O
Zn     0.50551  0.22633   0.9942    Zn
Zn     0.50551  0.27918   0.4942    Zn
C       0.5215    0.639   0.3769     C
C       0.5215   0.8825   0.8769     C
O       0.5266   0.6238   0.3167     O
O       0.5266   0.9028   0.8167     O
C       0.5368   0.6974   0.1306     C
C       0.5368   0.8394   0.6306     C
O       0.5404   0.6748     0.19     O
O       0.5404   0.8656     0.69     O
O       0.5441   0.2125    0.099     O
O       0.5441   0.3316    0.599     O
N       0.5739   0.6891   0.0126     N
N       0.5739   0.8848   0.5126     N
C       0.5781   0.6578   0.0767     C
C       0.5781   0.9203   0.5767     C
N       0.5808   0.6456   0.4922     N
N       0.5808   0.9352   0.9922     N
C        0.588   0.6217   0.4268     C
C        0.588   0.9663   0.9268     C
H       0.5905   0.6931   0.8849     H
H       0.5905   0.8974   0.3849     H
H       0.6005   0.6177   0.6221     H
H       0.6005   0.9828   0.1221     H
C       0.6175   0.6439   0.9729     C
C       0.6175   0.9736   0.4729     C
H       0.6177   0.0172   0.3779     H
H       0.6177   0.6005   0.8779     H
C       0.6217   0.0337   0.5732     C
C       0.6217    0.588   0.0732     C
O       0.6238   0.0972   0.6833     O
O       0.6238   0.5266   0.1833     O
C       0.6369   0.6669   0.9008     C
C       0.6369     0.97   0.4008     C
Zn      0.6375      0.0     0.75    Zn
Zn      0.6375   0.6375     0.25    Zn
C        0.639   0.1175   0.6231     C
C        0.639   0.5215   0.1231     C
C       0.6439   0.0264   0.0271     C
C       0.6439   0.6175   0.5271     C
N       0.6456   0.0648   0.5078     N
N       0.6456   0.5808   0.0078     N
C       0.6578   0.0797   0.9233     C
C       0.6578   0.5781   0.4233     C
O      0.66667  0.33334   0.4791     O
O      0.66667  0.33334   0.9791     O
C       0.6669     0.03   0.0992     C
C       0.6669   0.6369   0.5992     C
O       0.6684   0.2125    0.599     O
O       0.6684   0.4559    0.099     O
O       0.6748   0.1344     0.81     O
O       0.6748   0.5404     0.31     O
N       0.6891   0.1152   0.9874     N
N       0.6891   0.5739   0.4874     N
H       0.6931   0.1026   0.1151     H
H       0.6931   0.5905   0.6151     H
C       0.6974   0.1606   0.8694     C
C       0.6974   0.5368   0.3694     C
Zn     0.72082  0.22633   0.4942    Zn
Zn     0.72082  0.49449   0.9942    Zn
H       0.7233   0.8021   0.6016     H
H       0.7233   0.9212   0.1016     H
O       0.7394   0.2398   0.3878     O
O       0.7394   0.4996   0.8878     O
C        0.752    0.757   0.6152     C
C        0.752    0.995   0.1152     C
C        0.757    0.005   0.3848     C
C        0.757    0.752   0.8848     C
O       0.7602   0.2606   0.8878     O
O       0.7602   0.4996   0.3878     O
H       0.7603   0.8636   0.3994     H
H       0.7603   0.8967   0.8994     H
H       0.7622   0.7638   0.6623     H
H       0.7622   0.9984   0.1623     H
H       0.7638   0.0016   0.3377     H
H       0.7638   0.7622   0.8377     H
Zn     0.77367  0.27918   0.9942    Zn
Zn     0.77367  0.49449   0.4942    Zn
H       0.7828   0.8523   0.9641     H
H       0.7828   0.9305   0.4641     H
O       0.7875   0.3316    0.099     O
O       0.7875   0.4559    0.599     O
C        0.797   0.8623   0.9179     C
C        0.797   0.9347   0.4179     C
H       0.8021   0.0788   0.3984     H
H       0.8021   0.7233   0.8984     H
C       0.8394   0.3026   0.3694     C
C       0.8394   0.5368   0.8694     C
H       0.8523   0.0695   0.0359     H
H       0.8523   0.7828   0.5359     H
C       0.8623   0.0653   0.0821     C
C       0.8623    0.797   0.5821     C
H       0.8636   0.1033   0.6006     H
H       0.8636   0.7603   0.1006     H
O       0.8656   0.3252     0.31     O
O       0.8656   0.5404     0.81     O
H        0.873   0.9066   0.9108     H
H        0.873   0.9664   0.4108     H
C       0.8825    0.361   0.1231     C
C       0.8825   0.5215   0.6231     C
N       0.8848   0.3109   0.4874     N
N       0.8848   0.5739   0.9874     N
H       0.8967   0.1364   0.1006     H
H       0.8967   0.7603   0.6006     H
H       0.8974   0.3069   0.6151     H
H       0.8974   0.5905   0.1151     H
O       0.9028   0.3762   0.1833     O
O       0.9028   0.5266   0.6833     O
H       0.9066   0.0336   0.0892     H
H       0.9066    0.873   0.5892     H
C       0.9203   0.3422   0.4233     C
C       0.9203   0.5781   0.9233     C
H       0.9212   0.1979   0.8984     H
H       0.9212   0.7233   0.3984     H
H       0.9305   0.1477   0.5359     H
H       0.9305   0.7828   0.0359     H
C       0.9347   0.1377   0.5821     C
C       0.9347    0.797   0.0821     C
N       0.9352   0.3544   0.0078     N
N       0.9352   0.5808   0.5078     N
C       0.9663   0.3783   0.0732     C
C       0.9663    0.588   0.5732     C
H       0.9664   0.0934   0.5892     H
H       0.9664    0.873   0.0892     H
C         0.97   0.3331   0.5992     C
C         0.97   0.6369   0.0992     C
C       0.9736   0.3561   0.5271     C
C       0.9736   0.6175   0.0271     C
H       0.9828   0.3823   0.8779     H
H       0.9828   0.6005   0.3779     H
C        0.995    0.243   0.8848     C
C        0.995    0.752   0.3848     C
H       0.9984   0.2362   0.8377     H
H       0.9984   0.7622   0.3377     H
Zn         1.0   0.3625     0.25    Zn
