data_I
_chemical_name_common  '/home/zhangsd/repos/MofS-CGCNN/ML/data/TSD/clean_cifs/ETECOX_clean'
_cell_length_a 26.07670
_cell_length_b 26.07670
_cell_length_c  8.94670
_cell_angle_alpha 90.00000
_cell_angle_beta  90.00000
_cell_angle_gamma 90.00000
_space_group_name_H-M_alt      'P 1'


loop_
_space_group_symop_operation_xyz
  'x, y, z' 

loop_
_atom_site_label
_atom_site_fract_x
_atom_site_fract_y
_atom_site_fract_z
_atom_site_type_symbol
C      0.00302  0.01249   0.5766     C
C      0.00302  0.51249   0.4234     C
O      0.03655  0.48265   0.6538     O
O      0.03655  0.98265   0.3462     O
O      0.04742  0.02566   0.6139     O
O      0.04742  0.52566   0.3861     O
In      0.1074  0.02433  0.43362    In
In      0.1074  0.52433  0.56638    In
O      0.13157  0.49115    0.789     O
O      0.13157  0.99115    0.211     O
O      0.14221  0.05547   0.6463     O
O      0.14221  0.55547   0.3537     O
O      0.14526  0.45388   0.5114     O
O      0.14526  0.95388   0.4886     O
C      0.16129  0.45363   0.7761     C
C      0.16129  0.95363   0.2239     C
C      0.16792  0.43122   0.6177     C
C      0.16792  0.93122   0.3823     C
C      0.18122  0.08208   0.6323     C
C      0.18122  0.58208   0.3677     C
O       0.1826  0.06349   0.3734     O
O       0.1826  0.56349   0.6266     O
O      0.18651   0.4326   0.8766     O
O      0.18651   0.9326   0.1234     O
O      0.19453  0.39221   0.6037     O
O      0.19453  0.89221   0.3963     O
C      0.20363  0.08871   0.4739     C
C      0.20363  0.58871   0.5261     C
O      0.20388  0.10474   0.7386     O
O      0.20388  0.60474   0.2614     O
O      0.22434  0.29742   0.6361     O
O      0.22434  0.79742   0.3639     O
In     0.22567   0.3574  0.81638    In
In     0.22567   0.8574  0.18362    In
O      0.23265  0.21345   0.5962     O
O      0.23265  0.71345   0.4038     O
C      0.23751  0.25302   0.6734     C
C      0.23751  0.75302   0.3266     C
O      0.24115  0.11843    0.461     O
O      0.24115  0.61843    0.539     O
O      0.25885  0.38157    0.039     O
O      0.25885  0.88157    0.961     O
C      0.26249  0.24698   0.8266     C
C      0.26249  0.74698   0.1734     C
O      0.26735  0.28655   0.9038     O
O      0.26735  0.78655   0.0962     O
In     0.27433   0.1426  0.68362    In
In     0.27433   0.6426  0.31638    In
O      0.27566  0.20258   0.8639     O
O      0.27566  0.70258   0.1361     O
O      0.29612  0.39526   0.7614     O
O      0.29612  0.89526   0.2386     O
C      0.29637  0.41129   0.0261     C
C      0.29637  0.91129   0.9739     C
O      0.30547  0.10779   0.8963     O
O      0.30547  0.60779   0.1037     O
O      0.31349   0.0674   0.6234     O
O      0.31349   0.5674   0.3766     O
O       0.3174  0.43651   0.1266     O
O       0.3174  0.93651   0.8734     O
C      0.31878  0.41792   0.8677     C
C      0.31878  0.91792   0.1323     C
C      0.33208  0.06878   0.8823     C
C      0.33208  0.56878   0.1177     C
C      0.33871  0.04637   0.7239     C
C      0.33871  0.54637   0.2761     C
O      0.35474  0.04612   0.9886     O
O      0.35474  0.54612   0.0114     O
O      0.35779  0.44453   0.8537     O
O      0.35779  0.94453   0.1463     O
O      0.36843  0.00885    0.711     O
O      0.36843  0.50885    0.289     O
In      0.3926  0.47567  0.06638    In
In      0.3926  0.97567  0.93362    In
O      0.45258  0.47434   0.8861     O
O      0.45258  0.97434   0.1139     O
O      0.46345  0.01735   0.8462     O
O      0.46345  0.51735   0.1538     O
C      0.49698  0.48751   0.9234     C
C      0.49698  0.98751   0.0766     C
C      0.50302  0.01249   0.9234     C
C      0.50302  0.51249   0.0766     C
O      0.53655  0.48265   0.8462     O
O      0.53655  0.98265   0.1538     O
O      0.54742  0.02566   0.8861     O
O      0.54742  0.52566   0.1139     O
In      0.6074  0.02433  0.06638    In
In      0.6074  0.52433  0.93362    In
O      0.63157  0.49115    0.711     O
O      0.63157  0.99115    0.289     O
O      0.64221  0.05547   0.8537     O
O      0.64221  0.55547   0.1463     O
O      0.64526  0.45388   0.9886     O
O      0.64526  0.95388   0.0114     O
C      0.66129  0.45363   0.7239     C
C      0.66129  0.95363   0.2761     C
C      0.66792  0.43122   0.8823     C
C      0.66792  0.93122   0.1177     C
C      0.68122  0.08208   0.8677     C
C      0.68122  0.58208   0.1323     C
O       0.6826  0.06349   0.1266     O
O       0.6826  0.56349   0.8734     O
O      0.68651   0.4326   0.6234     O
O      0.68651   0.9326   0.3766     O
O      0.69453  0.39221   0.8963     O
O      0.69453  0.89221   0.1037     O
C      0.70363  0.08871   0.0261     C
C      0.70363  0.58871   0.9739     C
O      0.70388  0.10474   0.7614     O
O      0.70388  0.60474   0.2386     O
O      0.72434  0.29742   0.8639     O
O      0.72434  0.79742   0.1361     O
In     0.72567   0.3574  0.68362    In
In     0.72567   0.8574  0.31638    In
O      0.73265  0.21345   0.9038     O
O      0.73265  0.71345   0.0962     O
C      0.73751  0.25302   0.8266     C
C      0.73751  0.75302   0.1734     C
O      0.74115  0.11843    0.039     O
O      0.74115  0.61843    0.961     O
O      0.75885  0.38157    0.461     O
O      0.75885  0.88157    0.539     O
C      0.76249  0.24698   0.6734     C
C      0.76249  0.74698   0.3266     C
O      0.76735  0.28655   0.5962     O
O      0.76735  0.78655   0.4038     O
In     0.77433   0.1426  0.81638    In
In     0.77433   0.6426  0.18362    In
O      0.77566  0.20258   0.6361     O
O      0.77566  0.70258   0.3639     O
O      0.79612  0.39526   0.7386     O
O      0.79612  0.89526   0.2614     O
C      0.79637  0.41129   0.4739     C
C      0.79637  0.91129   0.5261     C
O      0.80547  0.10779   0.6037     O
O      0.80547  0.60779   0.3963     O
O      0.81349   0.0674   0.8766     O
O      0.81349   0.5674   0.1234     O
O       0.8174  0.43651   0.3734     O
O       0.8174  0.93651   0.6266     O
C      0.81878  0.41792   0.6323     C
C      0.81878  0.91792   0.3677     C
C      0.83208  0.06878   0.6177     C
C      0.83208  0.56878   0.3823     C
C      0.83871  0.04637   0.7761     C
C      0.83871  0.54637   0.2239     C
O      0.85474  0.04612   0.5114     O
O      0.85474  0.54612   0.4886     O
O      0.85779  0.44453   0.6463     O
O      0.85779  0.94453   0.3537     O
O      0.86843  0.00885    0.789     O
O      0.86843  0.50885    0.211     O
In      0.8926  0.47567  0.43362    In
In      0.8926  0.97567  0.56638    In
O      0.95258  0.47434   0.6139     O
O      0.95258  0.97434   0.3861     O
O      0.96345  0.01735   0.6538     O
O      0.96345  0.51735   0.3462     O
C      0.99698  0.48751   0.5766     C
C      0.99698  0.98751   0.4234     C
