data_I
_chemical_name_common  '/home/zhangsd/repos/MofS-CGCNN/ML/data/TSD/clean_cifs/ETEJOD_clean'
_cell_length_a 10.52300
_cell_length_b 11.18400
_cell_length_c 12.70000
_cell_angle_alpha 102.98000
_cell_angle_beta  109.32900
_cell_angle_gamma 97.76600
_space_group_name_H-M_alt      'P 1'


loop_
_space_group_symop_operation_xyz
  'x, y, z' 

loop_
_atom_site_label
_atom_site_fract_x
_atom_site_fract_y
_atom_site_fract_z
_atom_site_type_symbol
C        0.004    0.087   0.5969     C
H       0.0059   0.1459   0.6623     H
O        0.017   0.6722   0.4118     O
C        0.022   0.8811    0.506     C
C       0.0273     0.97   0.6055     C
C       0.0401   0.7502   0.5068     C
O       0.0528    0.948   0.7109     O
H       0.0645   0.8763   0.7062     H
O        0.077   0.7287   0.6051     O
Nd     0.10233  0.54633  0.68132    Nd
O       0.1297     0.43   0.3243     O
O       0.1532   0.4932   0.5074     O
O       0.1785    0.752   0.8492     O
H       0.1819   0.9169   0.9495     H
C       0.2057   0.4686    0.432     C
O       0.2342   0.9846   0.9916     O
H       0.2563   0.3945    0.256     H
C       0.2991   0.7709   0.8481     C
O       0.3355   0.6918   0.7837     O
O       0.3382   0.3984    0.267     O
C       0.3572   0.4844   0.4659     C
C        0.362   0.9854   0.9909     C
O       0.4016   0.1819    0.112     O
C       0.4026   0.8901   0.9264     C
H       0.4042   0.5608   0.6371     H
C       0.4155   0.4491   0.3826     C
C       0.4428   0.5359   0.5819     C
H         0.46   0.2304   0.1725     H
C       0.4601   0.0955   0.0644     C
C       0.5399   0.9045   0.9356     C
H         0.54   0.7696   0.8275     H
C       0.5572   0.4641   0.4181     C
C       0.5845   0.5509   0.6174     C
H       0.5958   0.4392   0.3629     H
C       0.5974   0.1099   0.0736     C
O       0.5984   0.8181    0.888     O
C        0.638   0.0146   0.0091     C
C       0.6428   0.5156   0.5341     C
O       0.6618   0.6016    0.733     O
O       0.6645   0.3082   0.2163     O
C       0.7009   0.2291   0.1519     C
H       0.7437   0.6055    0.744     H
O       0.7658   0.0154   0.0084     O
C       0.7943   0.5314    0.568     C
H       0.8181   0.0831   0.0505     H
O       0.8215    0.248   0.1508     O
O       0.8468   0.5068   0.4926     O
O       0.8703     0.57   0.6757     O
Nd     0.89767  0.45367  0.31868    Nd
O        0.923   0.2713   0.3949     O
H       0.9355   0.1237   0.2938     H
O       0.9472    0.052   0.2891     O
C       0.9599   0.2498   0.4932     C
C       0.9727     0.03   0.3945     C
C        0.978   0.1189    0.494     C
O        0.983   0.3278   0.5882     O
H       0.9941   0.8541   0.3377     H
C        0.996    0.913   0.4031     C
