data_I
_chemical_name_common  '/home/zhangsd/repos/MofS-CGCNN/ML/data/TSD/clean_cifs/ETEJIX_clean'
_cell_length_a 10.53400
_cell_length_b 11.30000
_cell_length_c 12.66100
_cell_angle_alpha 101.90100
_cell_angle_beta  108.73000
_cell_angle_gamma 99.04400
_space_group_name_H-M_alt      'P 1'


loop_
_space_group_symop_operation_xyz
  'x, y, z' 

loop_
_atom_site_label
_atom_site_fract_x
_atom_site_fract_y
_atom_site_fract_z
_atom_site_type_symbol
C       0.0085   0.0853   0.5972     C
H       0.0142   0.1435   0.6633     H
O        0.016   0.6772   0.4125     O
C       0.0229   0.8827   0.5058     C
C       0.0319   0.9701   0.6063     C
C       0.0414   0.7537   0.5071     C
O       0.0624   0.9483   0.7115     O
H       0.0739   0.8775   0.7066     H
O       0.0813   0.7312    0.605     O
La      0.1032   0.5444  0.68232    La
O        0.133   0.4313   0.3203     O
O       0.1507   0.4935   0.5011     O
O       0.1856   0.7485   0.8511     O
H       0.1859   0.9133   0.9427     H
C       0.2062   0.4689    0.427     C
O       0.2377   0.9804   0.9845     O
H       0.2619   0.3942   0.2552     H
C       0.3045   0.7711   0.8503     C
O       0.3441   0.3988   0.2676     O
O       0.3445   0.6941   0.7865     O
C       0.3567   0.4856   0.4629     C
C       0.3625    0.982   0.9875     C
H       0.4003   0.5623   0.6323     H
C        0.407   0.8894   0.9268     C
C        0.418   0.4489   0.3823     C
C       0.4407   0.5368   0.5789     C
C       0.4541   0.0922   0.0593     C
C       0.5459   0.9078   0.9407     C
C       0.5593   0.4632   0.4211     C
C        0.582   0.5511   0.6177     C
C        0.593   0.1106   0.0732     C
H       0.5997   0.4377   0.3677     H
C       0.6375    0.018   0.0125     C
C       0.6433   0.5144   0.5371     C
O       0.6555   0.3059   0.2135     O
O       0.6559   0.6012   0.7324     O
C       0.6955   0.2289   0.1497     C
H       0.7381   0.6058   0.7448     H
O       0.7623   0.0196   0.0155     O
C       0.7938   0.5311    0.573     C
H       0.8141   0.0867   0.0573     H
O       0.8144   0.2515   0.1489     O
O       0.8493   0.5065   0.4989     O
O        0.867   0.5687   0.6797     O
La      0.8968   0.4556  0.31768    La
O       0.9187   0.2688    0.395     O
H       0.9261   0.1225   0.2934     H
O       0.9376   0.0517   0.2885     O
C       0.9586   0.2463   0.4929     C
C       0.9681   0.0299   0.3937     C
C       0.9771   0.1173   0.4942     C
O        0.984   0.3228   0.5875     O
H       0.9858   0.8565   0.3367     H
C       0.9915   0.9147   0.4028     C
