data_I
_chemical_name_common  '/home/zhangsd/repos/MofS-CGCNN/ML/data/TSD/clean_cifs/ETEMIB_clean'
_cell_length_a 10.18450
_cell_length_b 20.87470
_cell_length_c 10.70700
_cell_angle_alpha 90.00000
_cell_angle_beta  101.87600
_cell_angle_gamma 90.00000
_space_group_name_H-M_alt      'P 1'


loop_
_space_group_symop_operation_xyz
  'x, y, z' 

loop_
_atom_site_label
_atom_site_fract_x
_atom_site_fract_y
_atom_site_fract_z
_atom_site_type_symbol
N       0.0012   0.4564   0.2203     N
N       0.0106  0.48016   0.7454     N
C       0.0295  0.31279   0.5896     C
C       0.0326  0.25089   0.6611     C
C       0.0427  0.13911   0.8031     C
H       0.0463   0.1017   0.8526     H
C       0.0519   0.9393   0.4946     C
O      0.05291  0.64552   0.3869     O
C       0.0731  0.05221   0.4763     C
C       0.0744  0.55083   0.8936     C
Co     0.07706  0.38594  0.36418    Co
C       0.0785  0.82999   0.2377     C
C       0.0835  0.77362   0.3069     C
Co     0.08538  0.55065  0.44022    Co
H       0.0857   0.5895   0.9395     H
H       0.0866   0.8978   0.4909     H
C       0.0915  0.45251   0.8404     C
O      0.09379  0.45603   0.4929     O
O      0.10361  0.65909    0.695     O
O      0.10913  0.31866   0.5149     O
H       0.1168   0.4092   0.8423     H
H       0.1227   0.0881     0.46     H
C       0.1258  0.99194    0.471     C
N       0.1339  0.49484   0.9355     N
C       0.1533  0.21792   0.6986     C
C       0.1602  0.16287   0.7718     C
H        0.161   0.4538    0.558     H
H       0.1654   0.7518   0.3323     H
O      0.18345   0.3328   0.2483     O
O      0.19461  0.90033   0.1224     O
C       0.2036  0.85604   0.2018     C
C       0.2078  0.63113   0.6767     C
O      0.20795  0.57902   0.6177     O
H       0.2207   0.5136     0.12     H
H       0.2248   0.4399   0.0847     H
H       0.2309   0.2332   0.6738     H
C       0.2349   0.4834   0.0539     C
C       0.2651   0.9834   0.4461     C
H       0.2691   0.7332   0.8262     H
H       0.2752   0.9399   0.4153     H
H       0.2793   0.0136     0.38     H
O      0.29205  0.07902   0.8823     O
C       0.2922  0.13113   0.8233     C
C       0.2964  0.35604   0.2982     C
O      0.30539  0.40033   0.3776     O
O      0.31655   0.8328   0.2517     O
H       0.3346   0.2518   0.1677     H
H        0.339   0.9538    0.942     H
C       0.3398  0.66287   0.7282     C
C       0.3467  0.71792   0.8014     C
N       0.3661  0.99484   0.5645     N
C       0.3742  0.49194    0.029     C
H       0.3773   0.5881     0.04     H
H       0.3832   0.9092   0.6577     H
O      0.39087  0.81866   0.9851     O
O      0.39639  0.15909    0.805     O
O      0.40621  0.95603   0.0071     O
C       0.4085  0.95251   0.6596     C
H       0.4134   0.3978   0.0091     H
H       0.4143   0.0895   0.5605     H
Co     0.41462  0.05065  0.05978    Co
C       0.4165  0.27362   0.1931     C
C       0.4215  0.32999   0.2623     C
Co     0.42294  0.88594  0.13582    Co
C       0.4256  0.05083   0.6064     C
C       0.4269  0.55221   0.0237     C
O      0.44709  0.14552   0.1131     O
C       0.4481   0.4393   0.0054     C
H       0.4537   0.6017   0.6474     H
C       0.4573  0.63911   0.6969     C
C       0.4674  0.75089   0.8389     C
C       0.4705  0.81279   0.9104     C
N       0.4894  0.98016   0.7546     N
N       0.4988   0.9564   0.2797     N
N       0.5012   0.0436   0.7203     N
N       0.5106  0.01984   0.2454     N
C       0.5295  0.18721   0.0896     C
C       0.5326  0.24911   0.1611     C
C       0.5427  0.36089   0.3031     C
H       0.5463   0.3983   0.3526     H
C       0.5519   0.5607   0.9946     C
O      0.55291  0.85448   0.8869     O
C       0.5731  0.44779   0.9763     C
C       0.5744  0.94917   0.3936     C
Co     0.57706  0.11406  0.86418    Co
C       0.5785  0.67001   0.7377     C
C       0.5835  0.72638   0.8069     C
Co     0.58538  0.94935  0.94022    Co
H       0.5857   0.9105   0.4395     H
H       0.5866   0.6022   0.9909     H
C       0.5915  0.04749   0.3404     C
O      0.59379  0.04397   0.9929     O
O      0.60361  0.84091    0.195     O
O      0.60913  0.18134   0.0149     O
H       0.6168   0.0908   0.3423     H
H       0.6227   0.4119     0.96     H
C       0.6258  0.50806    0.971     C
N       0.6339  0.00516   0.4355     N
C       0.6533  0.28208   0.1986     C
C       0.6602  0.33713   0.2718     C
H        0.661   0.0462    0.058     H
H       0.6654   0.7482   0.8323     H
O      0.68345   0.1672   0.7483     O
O      0.69461  0.59967   0.6224     O
C       0.7036  0.64396   0.7018     C
C       0.7078  0.86887   0.1767     C
O      0.70795  0.92098   0.1177     O
H       0.7207   0.9864     0.62     H
H       0.7248   0.0601   0.5847     H
H       0.7309   0.2668   0.1738     H
C       0.7349   0.0166   0.5539     C
C       0.7651   0.5166   0.9461     C
H       0.7691   0.7668   0.3262     H
H       0.7752   0.5601   0.9153     H
H       0.7793   0.4864     0.88     H
O      0.79205  0.42098   0.3823     O
C       0.7922  0.36887   0.3233     C
C       0.7964  0.14396   0.7982     C
O      0.80539  0.09967   0.8776     O
O      0.81655   0.6672   0.7517     O
H       0.8346   0.2482   0.6677     H
H        0.839   0.5462    0.442     H
C       0.8398  0.83713   0.2282     C
C       0.8467  0.78208   0.3014     C
N       0.8661  0.50516   0.0645     N
C       0.8742  0.00806    0.529     C
H       0.8773   0.9119     0.54     H
H       0.8832   0.5908   0.1577     H
O      0.89087  0.68134   0.4851     O
O      0.89639  0.34091    0.305     O
O      0.90621  0.54397   0.5071     O
C       0.9085  0.54749   0.1596     C
H       0.9134   0.1022   0.5091     H
H       0.9143   0.4105   0.0605     H
Co     0.91462  0.44935  0.55978    Co
C       0.9165  0.22638   0.6931     C
C       0.9215  0.17001   0.7623     C
Co     0.92294  0.61406  0.63582    Co
C       0.9256  0.44917   0.1064     C
C       0.9269  0.94779   0.5237     C
O      0.94709  0.35448   0.6131     O
C       0.9481   0.0607   0.5054     C
H       0.9537   0.8983   0.1474     H
C       0.9573  0.86089   0.1969     C
C       0.9674  0.74911   0.3389     C
C       0.9705  0.68721   0.4104     C
N       0.9894  0.51984   0.2546     N
N       0.9988   0.5436   0.7797     N
