data_I
_chemical_name_common  '/home/zhangsd/repos/MofS-CGCNN/ML/data/TSD/clean_cifs/ETEQUQ_clean'
_cell_length_a 11.96770
_cell_length_b 12.20120
_cell_length_c 14.73860
_cell_angle_alpha 67.61300
_cell_angle_beta  74.52700
_cell_angle_gamma 63.72400
_space_group_name_H-M_alt      'P 1'


loop_
_space_group_symop_operation_xyz
  'x, y, z' 

loop_
_atom_site_label
_atom_site_fract_x
_atom_site_fract_y
_atom_site_fract_z
_atom_site_type_symbol
P      0.06598  0.07162  0.83504     P
O       0.0807   0.8663   0.1374     O
O       0.0869   0.9819    0.776     O
O       0.1017   0.1861   0.7663     O
O       0.1282    0.008   0.9274     O
O        0.186   0.1145   0.5947     O
O       0.2228   0.8286   0.2584     O
Mo     0.22594   0.9163  0.67004    Mo
O        0.248   0.2563   0.2208     O
Mo      0.2527  0.19488  0.66409    Mo
O       0.2529   0.0357   0.2124     O
Mn     0.26165  0.83702  0.00873    Mn
Mo     0.26363  0.09394  0.32171    Mo
Mo      0.2792  0.29688  0.32419    Mo
O       0.2795   0.4696   0.2216     O
O       0.2831   0.7525   0.7715     O
P      0.30616  0.90377  0.19454     P
O       0.3094   0.9257   0.0856     O
O       0.3245   0.1985   0.7658     O
O       0.3246   0.9782   0.7389     O
O       0.3386   0.1189   0.4131     O
O       0.3473   0.6536   0.1125     O
O       0.3476   0.8963   0.3964     O
P      0.38521  0.51308  0.15815     P
O        0.386   0.8842   0.5824     O
O       0.3867   0.3323   0.3956     O
O       0.4132   0.1414   0.5797     O
O       0.4234    0.845   0.8987     O
Mo     0.42552  0.70793  0.67344    Mo
O       0.4335   0.4464   0.0739     O
O       0.4417   0.8282   0.2228     O
P      0.44824  0.89162  0.78768     P
O       0.4685   0.0286   0.2506     O
Mo     0.47047  0.18922  0.66783    Mo
O       0.4837   0.2246   0.2547     O
O       0.4944   0.4605   0.2188     O
Mn         0.5      0.0      0.5    Mn
O       0.5056   0.5395   0.7812     O
O       0.5163   0.7754   0.7453     O
Mo     0.52953  0.81078  0.33217    Mo
O       0.5315   0.9714   0.7494     O
P      0.55176  0.10838  0.21232     P
O       0.5583   0.1718   0.7772     O
O       0.5665   0.5536   0.9261     O
Mo     0.57448  0.29207  0.32656    Mo
O       0.5766    0.155   0.1013     O
O       0.5868   0.8586   0.4203     O
O       0.6133   0.6677   0.6044     O
O        0.614   0.1158   0.4176     O
P      0.61479  0.48692  0.84185     P
O       0.6524   0.1037   0.6036     O
O       0.6527   0.3464   0.8875     O
O       0.6614   0.8811   0.5869     O
O       0.6754   0.0218   0.2611     O
O       0.6755   0.8015   0.2342     O
O       0.6906   0.0743   0.9144     O
P      0.69384  0.09623  0.80546     P
O       0.7169   0.2475   0.2285     O
O       0.7205   0.5304   0.7784     O
Mo      0.7208  0.70312  0.67581    Mo
Mo     0.73637  0.90606  0.67829    Mo
Mn     0.73835  0.16298  0.99127    Mn
O       0.7471   0.9643   0.7876     O
Mo      0.7473  0.80512  0.33591    Mo
O        0.752   0.7437   0.7792     O
Mo     0.77406   0.0837  0.32996    Mo
O       0.7772   0.1714   0.7416     O
O        0.814   0.8855   0.4053     O
O       0.8718    0.992   0.0726     O
O       0.8983   0.8139   0.2337     O
O       0.9131   0.0181    0.224     O
O       0.9193   0.1337   0.8626     O
P      0.93402  0.92838  0.16496     P
