data_I
_chemical_name_common  '/home/zhangsd/repos/MofS-CGCNN/ML/data/TSD/clean_cifs/EVADIQ_clean'
_cell_length_a 13.66050
_cell_length_b 15.01030
_cell_length_c 18.53450
_cell_angle_alpha 69.05100
_cell_angle_beta  71.14500
_cell_angle_gamma 65.01400
_space_group_name_H-M_alt      'P 1'


loop_
_space_group_symop_operation_xyz
  'x, y, z' 

loop_
_atom_site_label
_atom_site_fract_x
_atom_site_fract_y
_atom_site_fract_z
_atom_site_type_symbol
C       0.0012   0.7208   0.6556     C
C       0.0094    0.778   0.5772     C
O       0.0114   0.3724   0.1031     O
H       0.0623   0.1866   0.1655     H
N       0.0646   0.1296   0.4478     N
H       0.0694    0.751     0.54     H
C       0.0757   0.3423   0.0442     C
O       0.0772   0.5705   0.7508     O
C       0.0902    0.243   0.2893     C
O       0.0911   0.3972   0.9765     O
C       0.0961   0.6249   0.6818     C
H       0.1001   0.2807    0.237     H
C        0.124   0.1628    0.128     C
H       0.1309   0.2046   0.8605     H
H       0.1317   0.9428   0.5208     H
H       0.1356   0.0533   0.8509     H
C       0.1445   0.2299   0.0578     C
C       0.1521   0.0934   0.3928     C
Dy     0.15214  0.50291  0.86236    Dy
H       0.1658   0.7691   0.8404     H
C       0.1668   0.1482   0.3147     C
C       0.1716   0.1817   0.8156     C
C       0.1747   0.0912   0.8104     C
O       0.1772   0.3621    0.823     O
O       0.1857   0.6087   0.6339     O
N       0.1873   0.0642   0.1463     N
N       0.1879   0.9045   0.8016     N
C       0.1977   0.9208   0.4859     C
C       0.2024   0.8083   0.7988     C
C       0.2242   0.3394   0.7588     C
C       0.2282   0.9882   0.4185     C
H        0.229   0.1212   0.2788     H
O        0.229   0.6208   0.7874     O
C       0.2295   0.2398   0.7536     C
C       0.2325   0.1936   0.0004     C
C       0.2372   0.0583   0.7438     C
C        0.245   0.9603   0.7399     C
H       0.2465   0.7737    0.548     H
H       0.2469   0.2371   0.9511     H
C       0.2652     0.82   0.5018     C
O       0.2668   0.3912   0.6988     O
C       0.2704   0.7699   0.7353     C
C       0.2756   0.0304    0.091     C
C        0.286    0.666   0.7325     C
C       0.2898   0.2038   0.6871     C
H       0.2912   0.9003    0.234     H
N       0.2953   0.1128   0.6812     N
C       0.2996   0.0916   0.0169     C
C       0.3115   0.9256   0.6741     C
C       0.3228   0.8309   0.6724     C
N       0.3236   0.9608   0.3682     N
H       0.3274   0.2421   0.6456     H
O       0.3299   0.3944   0.8795     O
C       0.3459   0.8712   0.1954     C
H       0.3474   0.9652   0.6324     H
C       0.3515   0.9245   0.1152     C
O       0.3526   0.6342   0.6753     O
H       0.3589   0.0655    0.979     H
C       0.3618   0.7895   0.4475     C
H       0.3662   0.8068   0.6284     H
Dy     0.37001  0.49616  0.63014    Dy
C       0.3881   0.8636    0.384     C
C       0.4059   0.3673   0.8239     C
O       0.4066   0.6136   0.5144     O
O       0.4125   0.4172    0.754     O
H       0.4198   0.7386   0.2685     H
C       0.4225   0.7754    0.216     C
N       0.4294   0.8845   0.0576     N
C       0.4353   0.6783    0.456     C
H       0.4448   0.2377   0.9622     H
H       0.4557   0.8446   0.3497     H
O       0.4827   0.3404   0.5982     O
C       0.4952   0.2655   0.8443     C
C       0.4969   0.2092   0.9223     C
C       0.5031   0.7908   0.0777     C
C       0.5048   0.7345   0.1557     C
O       0.5173   0.6596   0.4018     O
H       0.5443   0.1554   0.6503     H
H       0.5552   0.7623   0.0378     H
C       0.5647   0.3217    0.544     C
N       0.5706   0.1155   0.9424     N
C       0.5775   0.2246    0.784     C
H       0.5802   0.2614   0.7315     H
O       0.5875   0.5828    0.246     O
O       0.5934   0.3864   0.4856     O
C       0.5941   0.6327   0.1761     C
C       0.6119   0.1364    0.616     C
Dy     0.62999  0.50384  0.36986    Dy
H       0.6338   0.1932   0.3716     H
C       0.6382   0.2105   0.5525     C
H       0.6411   0.9345    0.021     H
O       0.6474   0.3658   0.3247     O
C       0.6485   0.0755   0.8848     C
H       0.6526   0.0348   0.3676     H
C       0.6541   0.1288   0.8046     C
O       0.6701   0.6056   0.1205     O
H       0.6726   0.7579   0.3544     H
N       0.6764   0.0392   0.6318     N
C       0.6772   0.1691   0.3276     C
C       0.6885   0.0744   0.3259     C
C       0.7004   0.9084   0.9831     C
N       0.7047   0.8872   0.3188     N
H       0.7088   0.0997    0.766     H
C       0.7102   0.7962   0.3129     C
C        0.714    0.334   0.2675     C
C       0.7244   0.9696    0.909     C
C       0.7296   0.2301   0.2647     C
O       0.7332   0.6088   0.3012     O
C       0.7348     0.18   0.4982     C
H       0.7531   0.7629   0.0489     H
H       0.7535   0.2263    0.452     H
C        0.755   0.0397   0.2601     C
C       0.7628   0.9417   0.2562     C
C       0.7675   0.8064   0.9996     C
C       0.7705   0.7602   0.2464     C
O        0.771   0.3792   0.2126     O
H        0.771   0.8788   0.7212     H
C       0.7718   0.0118   0.5815     C
C       0.7758   0.6606   0.2412     C
C       0.7976   0.1917   0.2012     C
C       0.8023   0.0792   0.5141     C
N       0.8121   0.0955   0.1984     N
N       0.8127   0.9358   0.8537     N
O       0.8143   0.3913   0.3661     O
O       0.8228   0.6379    0.177     O
C       0.8253   0.9088   0.1896     C
C       0.8284   0.8183   0.1844     C
C       0.8332   0.8518   0.6853     C
H       0.8342   0.2309   0.1596     H
Dy     0.84786  0.49709  0.13764    Dy
C       0.8479   0.9066   0.6072     C
C       0.8555   0.7701   0.9422     C
H       0.8644   0.9467   0.1491     H
H       0.8683   0.0572   0.4792     H
H       0.8691   0.7954   0.1395     H
C        0.876   0.8372    0.872     C
H       0.8999   0.7193    0.763     H
C       0.9039   0.3751   0.3182     C
O       0.9089   0.6028   0.0235     O
C       0.9098    0.757   0.7107     C
O       0.9228   0.4295   0.2492     O
C       0.9243   0.6577   0.9558     C
H       0.9306    0.249     0.46     H
N       0.9354   0.8704   0.5522     N
H       0.9377   0.8134   0.8345     H
O       0.9886   0.6276   0.8969     O
C       0.9906    0.222   0.4228     C
C       0.9988   0.2792   0.3444     C
