data_I
_chemical_name_common  '/home/zhangsd/repos/MofS-CGCNN/ML/data/TSD/clean_cifs/EWUCOP_clean'
_cell_length_a 10.92200
_cell_length_b 11.40200
_cell_length_c 14.65400
_cell_angle_alpha 90.00000
_cell_angle_beta  109.30000
_cell_angle_gamma 90.00000
_space_group_name_H-M_alt      'P 1'


loop_
_space_group_symop_operation_xyz
  'x, y, z' 

loop_
_atom_site_label
_atom_site_fract_x
_atom_site_fract_y
_atom_site_fract_z
_atom_site_type_symbol
N       0.0376   0.2481   0.3812     N
N       0.0376   0.2519   0.8812     N
H       0.0932   0.0779   0.4068     H
H       0.0932   0.4221   0.9068     H
C       0.1027   0.7492   0.1531     C
C       0.1027   0.7508   0.6531     C
N       0.1093   0.1541   0.8923     N
N       0.1093   0.3459   0.3923     N
C       0.1176   0.1561   0.4074     C
C       0.1176   0.3439   0.9074     C
H       0.1196    0.634   0.7627     H
H       0.1196    0.866   0.2627     H
H       0.1216   0.6271   0.0584     H
H       0.1216   0.8729   0.5584     H
C       0.1653     0.68   0.7326     C
C       0.1653     0.82   0.2326     C
C       0.1678   0.6756   0.1091     C
C       0.1678   0.8244   0.6091     C
N       0.2297   0.1876   0.9238     N
N       0.2297   0.3124   0.4238     N
N       0.2393   0.1974   0.4347     N
N       0.2393   0.3026   0.9347     N
C       0.3005   0.6753    0.141     C
C       0.3005   0.8247    0.641     C
C       0.3007   0.6825   0.7642     C
C       0.3007   0.8175   0.2642     C
O       0.3216   0.5202   0.8644     O
O       0.3216   0.9798   0.3644     O
O       0.3224   0.5163   0.0505     O
O       0.3224   0.9837   0.5505     O
C       0.3683   0.7465   0.2191     C
C       0.3683   0.7535   0.7191     C
C       0.3731   0.6122   0.8509     C
C       0.3731   0.8878   0.3509     C
C       0.3746   0.6083   0.0907     C
C       0.3746   0.8917   0.5907     C
Cu     0.40685  0.08157  0.47658    Cu
Cu     0.40685  0.41843  0.97658    Cu
H       0.4585   0.7466   0.2411     H
H       0.4585   0.7534   0.7411     H
O       0.4825   0.6471   0.0926     O
O       0.4825   0.8529   0.5926     O
O       0.4839   0.6525   0.9024     O
O       0.4839   0.8475   0.4024     O
O       0.5161   0.1525   0.5976     O
O       0.5161   0.3475   0.0976     O
O       0.5175   0.1471   0.4074     O
O       0.5175   0.3529   0.9074     O
H       0.5415   0.2466   0.2589     H
H       0.5415   0.2534   0.7589     H
Cu     0.59315  0.58157  0.02342    Cu
Cu     0.59315  0.91843  0.52342    Cu
C       0.6254   0.1083   0.4093     C
C       0.6254   0.3917   0.9093     C
C       0.6269   0.1122   0.6491     C
C       0.6269   0.3878   0.1491     C
C       0.6317   0.2465   0.2809     C
C       0.6317   0.2535   0.7809     C
O       0.6776   0.0163   0.4495     O
O       0.6776   0.4837   0.9495     O
O       0.6784   0.0202   0.6356     O
O       0.6784   0.4798   0.1356     O
C       0.6993   0.1825   0.7358     C
C       0.6993   0.3175   0.2358     C
C       0.6995   0.1753    0.359     C
C       0.6995   0.3247    0.859     C
N       0.7607   0.6974   0.0653     N
N       0.7607   0.8026   0.5653     N
N       0.7703   0.6876   0.5762     N
N       0.7703   0.8124   0.0762     N
C       0.8322   0.1756   0.3909     C
C       0.8322   0.3244   0.8909     C
C       0.8347     0.18   0.7674     C
C       0.8347     0.32   0.2674     C
H       0.8784   0.1271   0.4416     H
H       0.8784   0.3729   0.9416     H
H       0.8804    0.134   0.7373     H
H       0.8804    0.366   0.2373     H
C       0.8824   0.6561   0.0926     C
C       0.8824   0.8439   0.5926     C
N       0.8907   0.6541   0.6077     N
N       0.8907   0.8459   0.1077     N
C       0.8973   0.2492   0.3469     C
C       0.8973   0.2508   0.8469     C
H       0.9068   0.5779   0.0932     H
H       0.9068   0.9221   0.5932     H
N       0.9624   0.7481   0.1188     N
N       0.9624   0.7519   0.6188     N
