data_I
_chemical_name_common  '/home/zhangsd/repos/MofS-CGCNN/ML/data/TSD/clean_cifs/EWUTEW_clean'
_cell_length_a  9.70970
_cell_length_b 20.90600
_cell_length_c 24.73940
_cell_angle_alpha 104.60300
_cell_angle_beta  90.00000
_cell_angle_gamma 103.42800
_space_group_name_H-M_alt      'P 1'


loop_
_space_group_symop_operation_xyz
  'x, y, z' 

loop_
_atom_site_label
_atom_site_fract_x
_atom_site_fract_y
_atom_site_fract_z
_atom_site_type_symbol
H       0.0042    0.336   0.3929     H
H       0.0088    0.406    0.949     H
C      0.01603  0.64386   0.4471     C
H       0.0211   0.4542   0.5971     H
N      0.02244  0.38908   0.0688     N
Cu     0.02654  0.26128  0.89129    Cu
W      0.02753  0.82018  0.03907     W
H       0.0335   0.5568   0.5858     H
S       0.0346  0.18328  0.40089     S
C      0.03684  0.57888   0.4314     C
Cu     0.03787  0.78468  0.50972    Cu
N      0.05194  0.73848   0.1855     N
C      0.05621  0.43722   0.4212     C
H       0.0565   0.6432   0.1614     H
H       0.0568   0.3468   0.5716     H
Cu     0.06373  0.70924  0.96101    Cu
H        0.067   0.8316    0.227     H
S      0.06959  0.21558  0.04943     S
C      0.07978  0.37276   0.4086     C
C       0.0854   0.6824   0.1906     C
C       0.0872   0.4438   0.0855     C
C      0.09154  0.79148   0.2282     C
N      0.09389  0.69398   0.4876     N
C        0.104   0.4138   0.9412     C
H       0.1202   0.8966   0.4516     H
H       0.1405   0.5146   0.9704     H
C       0.1442   0.5632   0.4582     C
S      0.14599  0.21558  0.54943     S
S      0.14868  0.18328  0.90089     S
N      0.15494  0.36008   0.9176     N
S      0.15956  0.74862  0.05141     S
C       0.1602   0.6778   0.2365     C
C       0.1658   0.4932   0.4441     C
C       0.1684   0.7912   0.2753     C
H       0.1776   0.6364   0.2382     H
S      0.18168  0.52236  0.11019     S
C      0.18256  0.47912   0.9545     C
H       0.1933   0.8304   0.3046     H
C      0.19991  0.67962   0.5118     C
C       0.2047   0.9032   0.4722     C
N      0.20514  0.36008   0.4176     N
W      0.20735  0.17982  0.46093     W
C      0.20755   0.7341   0.2789     C
N      0.21381  0.85902   0.5009     N
H       0.2227   0.6324   0.3237     H
H       0.2236   0.1034   0.0484     H
C      0.22923  0.61546   0.4994     C
N       0.2335   0.7226   0.9083     N
Cu     0.23474  0.26128  0.39129    Cu
H       0.2354   0.1684    0.273     H
H       0.2435    0.627   0.8887     H
Cu     0.25319  0.21532  0.99028    Cu
H       0.2587   0.7144   0.5388     H
H       0.2603     0.82   0.9156     H
C      0.27994  0.66848   0.8806     C
C      0.28917  0.78154   0.8963     C
H         0.29   0.3468   0.0716     H
C      0.29201  0.67122   0.3408     C
C      0.29298  0.37276   0.9086     C
C      0.29656  0.47912   0.4545     C
C      0.29805   0.7315   0.3264     C
H       0.2997    0.989   0.4506     H
C      0.30006  0.20852   0.2718     C
C       0.3015   0.0968   0.0278     C
H       0.3037   0.6078   0.0183     H
H       0.3041   0.6078   0.5183     H
C       0.3098   0.4138   0.4412     C
H       0.3107    0.011   0.0494     H
C       0.3134    0.959    0.471     C
N      0.31346  0.26152   0.3145     N
C       0.3274   0.4932   0.9441     C
H       0.3318    0.336   0.8929     H
C      0.33916  0.86792   0.5246     C
S      0.34068  0.52236  0.61019     S
H       0.3526   0.8356   0.5427     H
C       0.3544    0.041    0.029     C
Cu     0.35449  0.29076  0.53899    Cu
N      0.35479  0.14098   0.9991     N
C       0.3566   0.4438   0.5855     C
H       0.3629   0.1696   0.1954     H
N      0.36664  0.38908   0.5688     N
C      0.37217  0.35614   0.0529     C
H       0.3741   0.5146   0.4704     H
C       0.3772   0.2088   0.2247     C
C      0.37921  0.67122   0.8408     C
C      0.38101  0.43722   0.9212     C
H       0.3835    0.627   0.3887     H
H       0.3852    0.924   0.0431     H
C      0.38623  0.61546   0.9994     C
C      0.38854  0.66848   0.3806     C
C      0.38939  0.78838    0.856     C
H       0.3972    0.406    0.449     H
C      0.39899  0.78838    0.356     C
N      0.39991  0.30602   0.0124     N
C        0.403   0.3176   0.3094     C
H       0.4046   0.8306   0.3492     H
H       0.4097   0.6324   0.8237     H
S      0.41094  0.25138  0.44859     S
H       0.4133   0.3568   0.3386     H
C        0.419   0.5632   0.9582     C
H        0.426   0.8306   0.8492     H
H       0.4331   0.4542   0.0971     H
C      0.43345   0.7315   0.8264     C
H       0.4403     0.18   0.5844     H
C      0.44039  0.96998   0.4996     C
C      0.45263  0.92126   0.5251     C
H       0.4557   0.7144   0.0388     H
C      0.45796  0.42112   0.0686     C
H       0.4588   0.6364   0.7382     H
H       0.4612    0.076   0.4569     H
C      0.46863  0.92126   0.0251     C
C      0.47041  0.03002   0.0004     C
C      0.47124  0.13208   0.9754     C
C      0.47345   0.2659   0.2211     C
H       0.4767   0.4432   0.9142     H
C      0.47971  0.67962   0.0118     C
C       0.4824   0.3222   0.2635     C
H        0.483   0.8356   0.0427     H
N       0.4891   0.7226   0.4083     N
C      0.49237  0.78154   0.3963     C
C      0.50763  0.21846   0.6037     C
N       0.5109   0.2774   0.5917     N
H        0.517   0.1644   0.9573     H
C       0.5176   0.6778   0.7365     C
C      0.52029  0.32038   0.9882     C
H       0.5233   0.5568   0.0858     H
C      0.52655   0.7341   0.7789     C
C      0.52876  0.86792   0.0246     C
C      0.52959  0.96998   0.9996     C
C      0.53137  0.07874   0.9749     C
H       0.5388    0.924   0.5431     H
H       0.5412   0.3636   0.2618     H
C      0.54204  0.57888   0.9314     C
H       0.5443   0.2856   0.9612     H
C      0.54737  0.07874   0.4749     C
C      0.55961  0.03002   0.5004     C
H       0.5597     0.82   0.4156     H
C      0.56655   0.2685   0.1736     C
H       0.5669   0.5458   0.9029     H
H        0.574   0.1694   0.1508     H
C        0.581   0.4368   0.0418     C
H       0.5867   0.6432   0.6614     H
S      0.58906  0.74862  0.55141     S
H       0.5903   0.3676   0.1763     H
H       0.5954   0.1694   0.6508     H
C        0.597   0.6824   0.6906     C
N      0.60009  0.69398   0.9876     N
C      0.60101  0.21162    0.644     C
H       0.6028    0.594    0.551     H
C      0.61061  0.21162    0.144     C
C      0.61146  0.33152   0.6194     C
C      0.61377  0.38454   0.0006     C
H       0.6148    0.076   0.9569     H
H       0.6165    0.373   0.6113     H
C      0.61899  0.56278   0.0788     C
C      0.62079  0.32878   0.1592     C
C       0.6228   0.7912   0.7753     C
H       0.6259   0.4854   0.5296     H
C      0.62783  0.64386   0.9471     C
N      0.63336  0.61092   0.4312     N
H       0.6371   0.8304   0.8046     H
C       0.6434   0.5562   0.4145     C
N      0.64521  0.85902   0.0009     N
Cu     0.64551  0.70924  0.46101    Cu
C       0.6456    0.959    0.971     C
H       0.6474   0.1644   0.4573     H
S      0.65932  0.47764  0.38981     S
C      0.66084  0.13208   0.4754     C
H       0.6682    0.664   0.1071     H
C       0.6726   0.5068   0.0559     C
N      0.68654  0.73848   0.6855     N
C       0.6866    0.041    0.529     C
H       0.6893    0.989   0.9506     H
C       0.6902   0.5862   0.5588     C
H       0.6959   0.3922   0.4817     H
H       0.6963   0.3922   0.9817     H
C       0.6985   0.9032   0.9722     C
C      0.69994  0.79148   0.7282     C
H       0.7003    0.011   0.5494     H
C      0.70195   0.2685   0.6736     C
C      0.70344  0.52088   0.5455     C
C      0.70702  0.62724   0.0914     C
C      0.70799  0.32878   0.6592     C
H         0.71   0.6532   0.9284     H
C      0.71083  0.21846   0.1037     C
C      0.72006  0.33152   0.1194     C
H       0.7397     0.18   0.0844     H
H       0.7413   0.2856   0.4612     H
Cu     0.74681  0.78468  0.00972    Cu
H       0.7565    0.373   0.1113     H
H       0.7646   0.8316    0.727     H
Cu     0.76526  0.73872  0.60871    Cu
N       0.7665   0.2774   0.0917     N
C      0.77077  0.38454   0.5006     C
H       0.7764   0.8966   0.9516     H
H       0.7773   0.3676   0.6763     H
N      0.78619  0.14098   0.4991     N
C      0.79245   0.2659   0.7211     C
W      0.79265  0.82018  0.53907     W
N      0.79486  0.63992   0.5824     N
C       0.7953   0.0968   0.5278     C
C      0.80009  0.32038   0.4882     C
H       0.8067   0.1696   0.6954     H
C      0.81744  0.52088   0.0455     C
S      0.81832  0.47764  0.88981     S
H       0.8224   0.3636   0.7618     H
C       0.8316   0.2088   0.7247     C
C       0.8342   0.5068   0.5559     C
C       0.8398   0.3222   0.7635     C
S      0.84044  0.25138  0.94859     S
N      0.84506  0.63992   0.0824     N
S      0.85132  0.81672  0.09911     S
S      0.85401  0.78442  0.45057     S
C       0.8558   0.4368   0.5418     C
H       0.8595   0.4854   0.0296     H
H       0.8798   0.1034   0.5484     H
C        0.896   0.5862   0.0588     C
N      0.90611  0.30602   0.5124     N
C      0.90846  0.20852   0.7718     C
C       0.9128   0.5562   0.9145     C
C       0.9146   0.3176   0.8094     C
C      0.92022  0.62724   0.5914     C
S      0.93041  0.78442  0.95057     S
H        0.933   0.1684    0.773     H
Cu     0.93627  0.29076  0.03899    Cu
H       0.9432   0.6532   0.4284     H
H       0.9435   0.3568   0.8386     H
C      0.94379  0.56278   0.5788     C
N      0.94806  0.26152   0.8145     N
Cu     0.96213  0.21532  0.49028    Cu
C      0.96316  0.42112   0.5686     C
S       0.9654  0.81672  0.59911     S
H       0.9665   0.4432   0.4142     H
W      0.97247  0.17982  0.96093     W
Cu     0.97346  0.73872  0.10871    Cu
N      0.97756  0.61092   0.9312     N
H       0.9789   0.5458   0.4029     H
C      0.98397  0.35614   0.5529     C
H       0.9912    0.594    0.051     H
H       0.9958    0.664   0.6071     H
