data_I
_chemical_name_common  '/home/zhangsd/repos/MofS-CGCNN/ML/data/TSD/clean_cifs/EXALAR_clean'
_cell_length_a 11.20100
_cell_length_b 14.94300
_cell_length_c 21.48300
_cell_angle_alpha 90.00000
_cell_angle_beta  92.09600
_cell_angle_gamma 90.00000
_space_group_name_H-M_alt      'P 1'


loop_
_space_group_symop_operation_xyz
  'x, y, z' 

loop_
_atom_site_label
_atom_site_fract_x
_atom_site_fract_y
_atom_site_fract_z
_atom_site_type_symbol
H       0.0049   0.6757   0.1651     H
H       0.0109   0.5096      0.9     H
C        0.011   0.8017   0.4279     C
N       0.0125   0.3258   0.7388     N
C        0.013      0.6   0.6679     C
H       0.0168   0.1465   0.4566     H
H        0.017   0.6074   0.9263     H
N        0.018   0.2137   0.6326     N
H       0.0262   0.7275    0.634     H
C        0.027    0.354   0.8013     C
C        0.033    0.445   0.0777     C
C        0.038    0.314   0.3585     C
H       0.0491   0.5674   0.6346     H
H       0.0523   0.4358   0.3172     H
C        0.057    0.014   0.4858     C
C        0.057   0.4802   0.0136     C
H       0.0578     0.99   0.4438     H
H       0.0643   0.6231    0.759     H
C        0.072    0.385   0.7082     C
N       0.0755   0.1549   0.5471     N
C        0.078    0.118   0.4829     C
H       0.0795   0.3262   0.3981     H
H       0.0815   0.7841   0.4485     H
H       0.0818   0.3832   0.6654     H
H       0.0842   0.4318   0.9874     H
N        0.092    0.427   0.8061     N
Ni      0.0983   0.7626  0.30033    Ni
C        0.104   0.6124   0.7204     C
N        0.119   0.4492   0.7471     N
N       0.1194   0.2734   0.3176     N
H       0.1194   0.5255   0.0161     H
H        0.123   0.9867   0.5094     H
H        0.129   0.9672   0.3178     H
C        0.131   0.1738    0.639     C
N        0.131   0.1798   0.3158     N
N        0.143   0.4222   0.1149     N
H        0.149   0.2931   0.1169     H
H       0.1537   0.6641   0.7121     H
H       0.1553   0.1309   0.4653     H
N        0.162   0.1401   0.5879     N
H       0.1764   0.1721   0.6759     H
C        0.185   0.5276   0.7274     C
C        0.187   0.3467   0.1278     C
C        0.195   0.9407   0.3377     C
C       0.2085   0.3048   0.2863     C
N       0.2086   0.8507   0.3418     N
N        0.217   0.4876   0.1358     N
H       0.2199    0.515   0.6877     H
H       0.2245   0.3656   0.2824     H
C        0.225    0.166   0.2804     C
N        0.227   0.7425   0.2388     N
H       0.2464   0.6092   0.2296     H
H       0.2491   0.5397   0.7576     H
H       0.2509   0.0397   0.7424     H
H       0.2536   0.1092   0.2704     H
N        0.273   0.2425   0.2612     N
C        0.275    0.666   0.2196     C
H       0.2755   0.8656   0.2176     H
H       0.2801    0.015   0.8123     H
N        0.283   0.9876   0.3642     N
N       0.2914   0.3507   0.1582     N
C       0.2915   0.8048   0.2137     C
C        0.305   0.4407   0.1623     C
C        0.313   0.8467   0.3722     C
C        0.315   0.0276   0.7726     C
H       0.3236   0.6721   0.8241     H
N        0.338   0.6401   0.9121     N
H       0.3447   0.6309   0.0347     H
H       0.3463   0.1641   0.7879     H
H        0.351   0.7931   0.3831     H
N        0.357   0.9222   0.3851     N
C        0.369   0.6738    0.861     C
N        0.369   0.6798   0.1842     N
H        0.371   0.4672   0.1822     H
H        0.377   0.4867   0.9906     H
H       0.3806   0.0255   0.4839     H
N       0.3806   0.7734   0.1824     N
N        0.381   0.9492   0.7529     N
C        0.396   0.1124   0.7796     C
Ni      0.4017   0.2626  0.19967    Ni
N        0.408    0.927   0.6939     N
H       0.4158   0.9318   0.5126     H
H       0.4182   0.8832   0.8346     H
H       0.4185   0.2841   0.0515     H
H       0.4205   0.8262   0.1019     H
C        0.422    0.618   0.0171     C
N       0.4245   0.6549   0.9529     N
C        0.428    0.885   0.7918     C
H       0.4357   0.1231    0.741     H
H       0.4422     0.49   0.0562     H
C        0.443    0.514   0.0142     C
C        0.443   0.9802   0.4864     C
H       0.4477   0.9358   0.1828     H
H       0.4509   0.0674   0.8654     H
C        0.462    0.814   0.1415     C
C        0.467    0.945   0.4223     C
C        0.473    0.854   0.6987     C
H       0.4738   0.2275    0.866     H
N        0.482   0.7137   0.8674     N
H        0.483   0.1074   0.5737     H
H       0.4832   0.6465   0.0434     H
C        0.487      0.1   0.8321     C
N       0.4875   0.8258   0.7612     N
C        0.489   0.3017   0.0721     C
H       0.4891   0.0096      0.6     H
H       0.4951   0.1757   0.3349     H
H       0.5049   0.8243   0.6651     H
H       0.5109   0.9904      0.4     H
C        0.511   0.6983   0.9279     C
N       0.5125   0.1742   0.2388     N
C        0.513      0.9   0.1679     C
H       0.5168   0.3535   0.9566     H
H        0.517   0.8926   0.4263     H
N        0.518   0.2863   0.1326     N
H       0.5262   0.7725    0.134     H
C        0.527    0.146   0.3013     C
C        0.533    0.055   0.5777     C
C        0.538    0.186   0.8585     C
H       0.5491   0.9326   0.1346     H
H       0.5523   0.0642   0.8172     H
C        0.557   0.0198   0.5136     C
C        0.557    0.486   0.9858     C
H       0.5578     0.51   0.9438     H
H       0.5643   0.8769    0.259     H
C        0.572    0.115   0.2082     C
N       0.5755   0.3451   0.0471     N
C        0.578    0.382   0.9829     C
H       0.5795   0.1738   0.8981     H
H       0.5815   0.7159   0.9485     H
H       0.5818   0.1168   0.1654     H
H       0.5842   0.0682   0.4874     H
N        0.592    0.073   0.3061     N
Ni      0.5983   0.7374  0.80033    Ni
C        0.604   0.8876   0.2204     C
N        0.619   0.0508   0.2471     N
N       0.6194   0.2266   0.8176     N
H       0.6194   0.9745   0.5161     H
H        0.623   0.5133   0.0094     H
H        0.629   0.5328   0.8178     H
N        0.631   0.3202   0.8158     N
C        0.631   0.3262    0.139     C
N        0.643   0.0778   0.6149     N
H        0.649   0.2069   0.6169     H
H       0.6537   0.8359   0.2121     H
H       0.6553   0.3691   0.9653     H
N        0.662   0.3599   0.0879     N
H       0.6764   0.3279   0.1759     H
C        0.685   0.9724   0.2274     C
C        0.687   0.1533   0.6278     C
C        0.695   0.5593   0.8377     C
C       0.7085   0.1952   0.7863     C
N       0.7086   0.6493   0.8418     N
N        0.717   0.0124   0.6358     N
H       0.7199    0.985   0.1877     H
H       0.7245   0.1344   0.7824     H
C        0.725    0.334   0.7804     C
N        0.727   0.7575   0.7388     N
H       0.7464   0.8908   0.7296     H
H       0.7491   0.9603   0.2576     H
H       0.7509   0.4603   0.2424     H
H       0.7536   0.3908   0.7704     H
N        0.773   0.2575   0.7612     N
C        0.775    0.834   0.7196     C
H       0.7755   0.6344   0.7176     H
H       0.7801    0.485   0.3123     H
N        0.783   0.5124   0.8642     N
N       0.7914   0.1493   0.6582     N
C       0.7915   0.6952   0.7137     C
C        0.805   0.0593   0.6623     C
C        0.813   0.6533   0.8722     C
C        0.815   0.4724   0.2726     C
H       0.8236   0.8279   0.3241     H
N        0.838   0.8599   0.4121     N
H       0.8447   0.8691   0.5347     H
H       0.8463   0.3359   0.2879     H
H        0.851   0.7069   0.8831     H
N        0.857   0.5778   0.8851     N
N        0.869   0.8202   0.6842     N
C        0.869   0.8262    0.361     C
H        0.871   0.0328   0.6822     H
H        0.877   0.0133   0.4906     H
H       0.8806   0.4745   0.9839     H
N       0.8806   0.7266   0.6824     N
N        0.881   0.5508   0.2529     N
C        0.896   0.3876   0.2796     C
Ni      0.9017   0.2374  0.69967    Ni
N        0.908    0.573   0.1939     N
H       0.9158   0.5682   0.0126     H
H       0.9182   0.6168   0.3346     H
H       0.9185   0.2159   0.5515     H
H       0.9205   0.6738   0.6019     H
C        0.922    0.882   0.5171     C
N       0.9245   0.8451   0.4529     N
C        0.928    0.615   0.2918     C
H       0.9357   0.3769    0.241     H
H       0.9422     0.01   0.5562     H
C        0.943   0.5198   0.9864     C
C        0.943    0.986   0.5142     C
H       0.9477   0.5642   0.6828     H
H       0.9509   0.4326   0.3654     H
C        0.962    0.686   0.6415     C
C        0.967    0.555   0.9223     C
C        0.973    0.646   0.1987     C
H       0.9738   0.2725    0.366     H
N        0.982   0.7863   0.3674     N
H        0.983   0.3926   0.0737     H
H       0.9832   0.8535   0.5434     H
C        0.987      0.4   0.3321     C
N       0.9875   0.6742   0.2612     N
C        0.989   0.1983   0.5721     C
H       0.9891   0.4904      0.1     H
H       0.9951   0.3243   0.8349     H
