data_I
_chemical_name_common  '/home/zhangsd/repos/MofS-CGCNN/ML/data/TSD/clean_cifs/EXALIZ_clean'
_cell_length_a 13.00240
_cell_length_b 13.47650
_cell_length_c 19.01070
_cell_angle_alpha 76.29400
_cell_angle_beta  85.28400
_cell_angle_gamma 74.76800
_space_group_name_H-M_alt      'P 1'


loop_
_space_group_symop_operation_xyz
  'x, y, z' 

loop_
_atom_site_label
_atom_site_fract_x
_atom_site_fract_y
_atom_site_fract_z
_atom_site_type_symbol
P          0.0      0.0      0.0     P
Ni         0.0      0.0      0.5    Ni
C        0.011   0.6243   0.3673     C
N       0.0119   0.2619   0.3229     N
C       0.0136   0.1727   0.5766     C
H       0.0168   0.4094    0.587     H
Mo     0.01807  0.02419  0.80972    Mo
N       0.0214   0.8755   0.5926     N
H       0.0283   0.2448   0.7032     H
C       0.0302   0.5502   0.3147     C
C       0.0356   0.1962    0.385     C
H        0.036   0.4398   0.7092     H
Mo      0.0444  0.72251  0.01585    Mo
H       0.0497   0.4778   0.3423     H
O         0.05     0.09   0.9908     O
C        0.058   0.2806   0.6592     C
H       0.0598   0.7988   0.4245     H
O       0.0606   0.2201   0.0554     O
N       0.0644   0.4659   0.1778     N
N       0.0645   0.0904   0.5515     N
O       0.0654   0.9814   0.0703     O
O       0.0706   0.2499   0.9144     O
N       0.0711   0.7723   0.6957     N
O       0.0744   0.0623   0.1638     O
H       0.0762   0.7274   0.8044     H
H       0.0787   0.6363   0.3766     H
O        0.079   0.0027   0.9374     O
O       0.0812   0.8952   0.0048     O
N        0.083   0.2089   0.6039     N
H       0.0874    0.633   0.2263     H
C       0.0897   0.8527   0.6462     C
H       0.0901   0.1989   0.4127     H
H       0.0923   0.3641   0.1151     H
O       0.1027   0.1201   0.8221     O
O       0.1041   0.8565   0.1806     O
C       0.1122   0.5659   0.2601     C
C       0.1202   0.3893   0.1489     C
H       0.1244   0.5705    0.764     H
H       0.1245   0.2928   0.6714     H
C       0.1269   0.7201   0.7644     C
O       0.1345    0.917   0.8401     O
O       0.1358   0.7264   0.0901     O
N       0.1399   0.4791   0.2199     N
H       0.1419   0.8877   0.6482     H
O        0.151    0.755   0.9494     O
C       0.1663    0.078   0.5681     C
Mo     0.17106  0.09545  0.08503    Mo
H       0.1753   0.5681   0.2829     H
C        0.178   0.6062   0.7696     C
Mo     0.17818  0.13733  0.89411    Mo
H       0.1811   0.7556    0.769     H
N       0.1819   0.1478   0.6008     N
H       0.1865   0.5793   0.8806     H
H       0.1885   0.4181    0.858     H
H       0.1996   0.1241   0.2699     H
H       0.2037   0.3522   0.9993     H
Mo     0.20377  0.81872  0.11271    Mo
H       0.2215   0.0238   0.5571     H
N       0.2216   0.3495   0.1717     N
O       0.2265   0.1146   0.9935     O
C       0.2279     0.41   0.2152     C
H       0.2304   0.5986   0.7306     H
Mo      0.2312  0.85891  0.92128    Mo
C       0.2323   0.5545   0.8421     C
O       0.2401   0.9535   0.1059     O
O       0.2448   0.1472    0.126     O
C        0.255   0.4384   0.8564     C
O       0.2572   0.9905   0.9046     O
C       0.2675    0.109   0.2883     C
O       0.2738   0.8272   0.0155     O
C       0.2754   0.3492   0.9888     C
H       0.2891   0.4036   0.2398     H
N       0.2944   0.0493   0.3519     N
H       0.2984   0.4142   0.8168     H
H       0.2984   0.5751   0.8419     H
N       0.3106   0.3861   0.9245     N
N       0.3478   0.1473   0.2512     N
Ni     0.34789  0.23395  0.14615    Ni
N       0.3484   0.3078   0.0369     N
H       0.3823   0.0199   0.4908     H
N       0.3941   0.0511   0.3569     N
N       0.4122   0.3655   0.9262     N
C       0.4316   0.1058   0.2946     C
C        0.435    0.311   0.9952     C
H        0.445   0.1056   0.4554     H
C         0.45   0.0304   0.4697     C
H       0.4525   0.0106   0.6059     H
H       0.4727    0.913   0.4247     H
C       0.4762   0.9861   0.4122     C
H        0.496   0.7204   0.9884     H
H       0.4991   0.8872   0.7156     H
H       0.5009   0.1128   0.2844     H
H        0.504   0.2796   0.0116     H
C       0.5238   0.0139   0.5878     C
H       0.5273    0.087   0.5753     H
H       0.5475   0.9894   0.3941     H
C         0.55   0.9696   0.5303     C
H        0.555   0.8944   0.5446     H
C        0.565    0.689   0.0048     C
C       0.5684   0.8942   0.7054     C
N       0.5878   0.6345   0.0738     N
N       0.6059   0.9489   0.6431     N
H       0.6177   0.9801   0.5092     H
N       0.6516   0.6922   0.9631     N
Ni     0.65211  0.76605  0.85385    Ni
N       0.6522   0.8527   0.7488     N
N       0.6894   0.6139   0.0755     N
H       0.7016   0.4249   0.1581     H
H       0.7016   0.5858   0.1832     H
N       0.7056   0.9507   0.6481     N
H       0.7109   0.5964   0.7602     H
C       0.7246   0.6508   0.0112     C
O       0.7262   0.1728   0.9845     O
C       0.7325    0.891   0.7117     C
O       0.7428   0.0095   0.0954     O
C        0.745   0.5616   0.1436     C
O       0.7552   0.8528    0.874     O
O       0.7599   0.0465   0.8941     O
C       0.7677   0.4455   0.1579     C
Mo      0.7688  0.14109  0.07872    Mo
H       0.7696   0.4014   0.2694     H
C       0.7721     0.59   0.7848     C
O       0.7735   0.8854   0.0065     O
N       0.7784   0.6505   0.8283     N
H       0.7785   0.9762   0.4429     H
Mo     0.79623  0.18128  0.88729    Mo
H       0.7963   0.6478   0.0007     H
H       0.8004   0.8759   0.7301     H
H       0.8115   0.5819    0.142     H
H       0.8135   0.4207   0.1194     H
N       0.8181   0.8522   0.3992     N
H       0.8189   0.2444    0.231     H
Mo     0.82182  0.86267  0.10589    Mo
C        0.822   0.3938   0.2304     C
H       0.8247   0.4319   0.7171     H
Mo     0.82894  0.90455  0.91497    Mo
C       0.8337    0.922   0.4319     C
O        0.849    0.245   0.0506     O
H       0.8581   0.1123   0.3518     H
N       0.8601   0.5209   0.7801     N
O       0.8642   0.2736   0.9099     O
O       0.8655    0.083   0.1599     O
C       0.8731   0.2799   0.2356     C
H       0.8755   0.7072   0.3286     H
H       0.8756   0.4295    0.236     H
C       0.8798   0.6107   0.8511     C
C       0.8878   0.4341   0.7399     C
O       0.8959   0.1435   0.8194     O
O       0.8973   0.8799   0.1779     O
H       0.9077   0.6359   0.8849     H
H       0.9099   0.8011   0.5873     H
C       0.9103   0.1473   0.3538     C
H       0.9126    0.367   0.7737     H
N        0.917   0.7911   0.3961     N
O       0.9188   0.1048   0.9952     O
O        0.921   0.9973   0.0626     O
H       0.9213   0.3637   0.6234     H
H       0.9238   0.2726   0.1956     H
O       0.9256   0.9377   0.8362     O
N       0.9289   0.2277   0.3043     N
O       0.9294   0.7501   0.0856     O
O       0.9346   0.0186   0.9297     O
N       0.9355   0.9096   0.4485     N
N       0.9356   0.5341   0.8222     N
O       0.9394   0.7799   0.9446     O
H       0.9402   0.2012   0.5755     H
C        0.942   0.7194   0.3408     C
O         0.95     0.91   0.0092     O
H       0.9503   0.5222   0.6577     H
Mo      0.9556  0.27749  0.98415    Mo
H        0.964   0.5602   0.2908     H
C       0.9644   0.8038    0.615     C
C       0.9698   0.4498   0.6853     C
H       0.9717   0.7552   0.2968     H
N       0.9786   0.1245   0.4074     N
Mo     0.98193  0.97581  0.19028    Mo
H       0.9832   0.5906    0.413     H
C       0.9864   0.8273   0.4234     C
N       0.9881   0.7381   0.6771     N
C        0.989   0.3757   0.6327     C
