data_I
_chemical_name_common  '/home/zhangsd/repos/MofS-CGCNN/ML/data/TSD/clean_cifs/EXIDOF_clean'
_cell_length_a 16.27200
_cell_length_b 16.27200
_cell_length_c 29.93600
_cell_angle_alpha 90.00000
_cell_angle_beta  90.00000
_cell_angle_gamma 90.00000
_space_group_name_H-M_alt      'P 1'


loop_
_space_group_symop_operation_xyz
  'x, y, z' 

loop_
_atom_site_label
_atom_site_fract_x
_atom_site_fract_y
_atom_site_fract_z
_atom_site_type_symbol
C      0.01174  0.00808  0.79072     C
C      0.01174  0.49192  0.29072     C
C      0.01174  0.50808  0.20928     C
C      0.01174  0.99192  0.70928     C
C        0.052      0.0     0.75     C
C        0.052      0.5     0.25     C
O      0.05416  0.08974  0.85176     O
O      0.05416  0.41026  0.35176     O
O      0.05416  0.58974  0.14824     O
O      0.05416  0.91026  0.64824     O
C      0.06441   0.0254  0.83144     C
C      0.06441   0.4746  0.33144     C
C      0.06441   0.5254  0.16856     C
C      0.06441   0.9746  0.66856     C
C      0.07436  0.00637  0.29069     C
C      0.07436  0.49363  0.79069     C
C      0.07436  0.50637  0.70931     C
C      0.07436  0.99363  0.20931     C
O      0.09514  0.00592  0.13075     O
O      0.09514  0.49408  0.63075     O
O      0.09514  0.50592  0.86925     O
O      0.09514  0.99408  0.36925     O
H       0.1092      0.0     0.75     H
H       0.1092      0.5     0.25     H
C       0.1149      0.0     0.25     C
C       0.1149      0.5     0.75     C
O      0.11975  0.02859  0.66116     O
O      0.11975  0.47141  0.16116     O
O      0.11975  0.52859  0.33884     O
O      0.11975  0.97141  0.83884     O
C      0.12576  0.00956  0.33271     C
C      0.12576  0.49044  0.83271     C
C      0.12576  0.50956  0.66729     C
C      0.12576  0.99044  0.16729     C
O      0.16026  0.19584  0.39824     O
O      0.16026  0.30416  0.89824     O
O      0.16026  0.69584  0.60176     O
O      0.16026  0.80416  0.10176     O
H        0.172      0.0     0.25     H
H        0.172      0.5     0.75     H
O      0.20134   0.0261  0.32592     O
O      0.20134   0.4739  0.82592     O
O      0.20134   0.5261  0.67408     O
O      0.20134   0.9739  0.17408     O
Co     0.22069  0.02931    0.625    Co
Co     0.22069  0.47069    0.125    Co
Co     0.22069  0.52931    0.375    Co
Co     0.22069  0.97069    0.875    Co
O      0.22141  0.13025  0.58884     O
O      0.22141  0.36975  0.08884     O
O      0.22141  0.63025  0.41116     O
O      0.22141  0.86975  0.91116     O
O       0.2239  0.04866  0.92408     O
O       0.2239  0.45134  0.42408     O
O       0.2239  0.54866  0.07592     O
O       0.2239  0.95134  0.57592     O
C       0.2246  0.18559  0.41856     C
C       0.2246  0.31441  0.91856     C
C       0.2246  0.68559  0.58144     C
C       0.2246  0.81441  0.08144     C
C      0.24044  0.12424  0.91729     C
C      0.24044  0.37576  0.41729     C
C      0.24044  0.62424  0.08271     C
C      0.24044  0.87576  0.58271     C
C      0.24192  0.23826  0.45928     C
C      0.24192  0.26174  0.95928     C
C      0.24192  0.73826  0.54072     C
C      0.24192  0.76174  0.04072     C
C      0.24363  0.17564  0.95931     C
C      0.24363  0.32436  0.45931     C
C      0.24363  0.67564  0.04069     C
C      0.24363  0.82436  0.54069     C
O      0.24408  0.15486  0.11925     O
O      0.24408  0.34514  0.61925     O
O      0.24408  0.65486  0.88075     O
O      0.24408  0.84514  0.38075     O
H         0.25    0.078      0.0     H
C         0.25   0.1351      0.0     C
H         0.25   0.1408      0.5     H
C         0.25    0.198      0.5     C
C         0.25    0.302      0.0     C
H         0.25   0.3592      0.0     H
C         0.25   0.3649      0.5     C
H         0.25    0.422      0.5     H
H         0.25    0.578      0.0     H
C         0.25   0.6351      0.0     C
H         0.25   0.6408      0.5     H
C         0.25    0.698      0.5     C
C         0.25    0.802      0.0     C
H         0.25   0.8592      0.0     H
C         0.25   0.8649      0.5     C
H         0.25    0.922      0.5     H
O      0.25592  0.15486  0.88075     O
O      0.25592  0.34514  0.38075     O
O      0.25592  0.65486  0.11925     O
O      0.25592  0.84514  0.61925     O
C      0.25637  0.17564  0.04069     C
C      0.25637  0.32436  0.54069     C
C      0.25637  0.67564  0.95931     C
C      0.25637  0.82436  0.45931     C
C      0.25808  0.23826  0.54072     C
C      0.25808  0.26174  0.04072     C
C      0.25808  0.73826  0.45928     C
C      0.25808  0.76174  0.95928     C
C      0.25956  0.12424  0.08271     C
C      0.25956  0.37576  0.58271     C
C      0.25956  0.62424  0.91729     C
C      0.25956  0.87576  0.41729     C
C       0.2754  0.18559  0.58144     C
C       0.2754  0.31441  0.08144     C
C       0.2754  0.68559  0.41856     C
C       0.2754  0.81441  0.91856     C
O       0.2761  0.04866  0.07592     O
O       0.2761  0.45134  0.57592     O
O       0.2761  0.54866  0.92408     O
O       0.2761  0.95134  0.42408     O
O      0.27859  0.13025  0.41116     O
O      0.27859  0.36975  0.91116     O
O      0.27859  0.63025  0.58884     O
O      0.27859  0.86975  0.08884     O
Co     0.27931  0.02931    0.375    Co
Co     0.27931  0.47069    0.875    Co
Co     0.27931  0.52931    0.625    Co
Co     0.27931  0.97069    0.125    Co
O      0.29866   0.0261  0.67408     O
O      0.29866   0.4739  0.17408     O
O      0.29866   0.5261  0.32592     O
O      0.29866   0.9739  0.82592     O
H        0.328      0.0     0.75     H
H        0.328      0.5     0.25     H
O      0.33974  0.19584  0.60176     O
O      0.33974  0.30416  0.10176     O
O      0.33974  0.69584  0.39824     O
O      0.33974  0.80416  0.89824     O
C      0.37424  0.00956  0.66729     C
C      0.37424  0.49044  0.16729     C
C      0.37424  0.50956  0.33271     C
C      0.37424  0.99044  0.83271     C
O      0.38025  0.02859  0.33884     O
O      0.38025  0.47141  0.83884     O
O      0.38025  0.52859  0.66116     O
O      0.38025  0.97141  0.16116     O
C       0.3851      0.0     0.75     C
C       0.3851      0.5     0.25     C
H       0.3908      0.0     0.25     H
H       0.3908      0.5     0.75     H
O      0.40486  0.00592  0.86925     O
O      0.40486  0.49408  0.36925     O
O      0.40486  0.50592  0.13075     O
O      0.40486  0.99408  0.63075     O
C      0.42564  0.00637  0.70931     C
C      0.42564  0.49363  0.20931     C
C      0.42564  0.50637  0.29069     C
C      0.42564  0.99363  0.79069     C
C      0.43559   0.0254  0.16856     C
C      0.43559   0.4746  0.66856     C
C      0.43559   0.5254  0.83144     C
C      0.43559   0.9746  0.33144     C
O      0.44584  0.08974  0.14824     O
O      0.44584  0.41026  0.64824     O
O      0.44584  0.58974  0.85176     O
O      0.44584  0.91026  0.35176     O
C        0.448      0.0     0.25     C
C        0.448      0.5     0.75     C
C      0.48826  0.00808  0.20928     C
C      0.48826  0.49192  0.70928     C
C      0.48826  0.50808  0.79072     C
C      0.48826  0.99192  0.29072     C
C      0.51174  0.00808  0.70928     C
C      0.51174  0.49192  0.20928     C
C      0.51174  0.50808  0.29072     C
C      0.51174  0.99192  0.79072     C
C        0.552      0.0     0.75     C
C        0.552      0.5     0.25     C
O      0.55416  0.08974  0.64824     O
O      0.55416  0.41026  0.14824     O
O      0.55416  0.58974  0.35176     O
O      0.55416  0.91026  0.85176     O
C      0.56441   0.0254  0.66856     C
C      0.56441   0.4746  0.16856     C
C      0.56441   0.5254  0.33144     C
C      0.56441   0.9746  0.83144     C
C      0.57436  0.00637  0.20931     C
C      0.57436  0.49363  0.70931     C
C      0.57436  0.50637  0.79069     C
C      0.57436  0.99363  0.29069     C
O      0.59514  0.00592  0.36925     O
O      0.59514  0.49408  0.86925     O
O      0.59514  0.50592  0.63075     O
O      0.59514  0.99408  0.13075     O
H       0.6092      0.0     0.75     H
H       0.6092      0.5     0.25     H
C       0.6149      0.0     0.25     C
C       0.6149      0.5     0.75     C
O      0.61975  0.02859  0.83884     O
O      0.61975  0.47141  0.33884     O
O      0.61975  0.52859  0.16116     O
O      0.61975  0.97141  0.66116     O
C      0.62576  0.00956  0.16729     C
C      0.62576  0.49044  0.66729     C
C      0.62576  0.50956  0.83271     C
C      0.62576  0.99044  0.33271     C
O      0.66026  0.19584  0.10176     O
O      0.66026  0.30416  0.60176     O
O      0.66026  0.69584  0.89824     O
O      0.66026  0.80416  0.39824     O
H        0.672      0.0     0.25     H
H        0.672      0.5     0.75     H
O      0.70134   0.0261  0.17408     O
O      0.70134   0.4739  0.67408     O
O      0.70134   0.5261  0.82592     O
O      0.70134   0.9739  0.32592     O
Co     0.72069  0.02931    0.875    Co
Co     0.72069  0.47069    0.375    Co
Co     0.72069  0.52931    0.125    Co
Co     0.72069  0.97069    0.625    Co
O      0.72141  0.13025  0.91116     O
O      0.72141  0.36975  0.41116     O
O      0.72141  0.63025  0.08884     O
O      0.72141  0.86975  0.58884     O
O       0.7239  0.04866  0.57592     O
O       0.7239  0.45134  0.07592     O
O       0.7239  0.54866  0.42408     O
O       0.7239  0.95134  0.92408     O
C       0.7246  0.18559  0.08144     C
C       0.7246  0.31441  0.58144     C
C       0.7246  0.68559  0.91856     C
C       0.7246  0.81441  0.41856     C
C      0.74044  0.12424  0.58271     C
C      0.74044  0.37576  0.08271     C
C      0.74044  0.62424  0.41729     C
C      0.74044  0.87576  0.91729     C
C      0.74192  0.23826  0.04072     C
C      0.74192  0.26174  0.54072     C
C      0.74192  0.73826  0.95928     C
C      0.74192  0.76174  0.45928     C
C      0.74363  0.17564  0.54069     C
C      0.74363  0.32436  0.04069     C
C      0.74363  0.67564  0.45931     C
C      0.74363  0.82436  0.95931     C
O      0.74408  0.15486  0.38075     O
O      0.74408  0.34514  0.88075     O
O      0.74408  0.65486  0.61925     O
O      0.74408  0.84514  0.11925     O
H         0.75    0.078      0.5     H
C         0.75   0.1351      0.5     C
H         0.75   0.1408      0.0     H
C         0.75    0.198      0.0     C
C         0.75    0.302      0.5     C
H         0.75   0.3592      0.5     H
C         0.75   0.3649      0.0     C
H         0.75    0.422      0.0     H
H         0.75    0.578      0.5     H
C         0.75   0.6351      0.5     C
H         0.75   0.6408      0.0     H
C         0.75    0.698      0.0     C
C         0.75    0.802      0.5     C
H         0.75   0.8592      0.5     H
C         0.75   0.8649      0.0     C
H         0.75    0.922      0.0     H
O      0.75592  0.15486  0.61925     O
O      0.75592  0.34514  0.11925     O
O      0.75592  0.65486  0.38075     O
O      0.75592  0.84514  0.88075     O
C      0.75637  0.17564  0.45931     C
C      0.75637  0.32436  0.95931     C
C      0.75637  0.67564  0.54069     C
C      0.75637  0.82436  0.04069     C
C      0.75808  0.23826  0.95928     C
C      0.75808  0.26174  0.45928     C
C      0.75808  0.73826  0.04072     C
C      0.75808  0.76174  0.54072     C
C      0.75956  0.12424  0.41729     C
C      0.75956  0.37576  0.91729     C
C      0.75956  0.62424  0.58271     C
C      0.75956  0.87576  0.08271     C
C       0.7754  0.18559  0.91856     C
C       0.7754  0.31441  0.41856     C
C       0.7754  0.68559  0.08144     C
C       0.7754  0.81441  0.58144     C
O       0.7761  0.04866  0.42408     O
O       0.7761  0.45134  0.92408     O
O       0.7761  0.54866  0.57592     O
O       0.7761  0.95134  0.07592     O
O      0.77859  0.13025  0.08884     O
O      0.77859  0.36975  0.58884     O
O      0.77859  0.63025  0.91116     O
O      0.77859  0.86975  0.41116     O
Co     0.77931  0.02931    0.125    Co
Co     0.77931  0.47069    0.625    Co
Co     0.77931  0.52931    0.875    Co
Co     0.77931  0.97069    0.375    Co
O      0.79866   0.0261  0.82592     O
O      0.79866   0.4739  0.32592     O
O      0.79866   0.5261  0.17408     O
O      0.79866   0.9739  0.67408     O
H        0.828      0.0     0.75     H
H        0.828      0.5     0.25     H
O      0.83974  0.19584  0.89824     O
O      0.83974  0.30416  0.39824     O
O      0.83974  0.69584  0.10176     O
O      0.83974  0.80416  0.60176     O
C      0.87424  0.00956  0.83271     C
C      0.87424  0.49044  0.33271     C
C      0.87424  0.50956  0.16729     C
C      0.87424  0.99044  0.66729     C
O      0.88025  0.02859  0.16116     O
O      0.88025  0.47141  0.66116     O
O      0.88025  0.52859  0.83884     O
O      0.88025  0.97141  0.33884     O
C       0.8851      0.0     0.75     C
C       0.8851      0.5     0.25     C
H       0.8908      0.0     0.25     H
H       0.8908      0.5     0.75     H
O      0.90486  0.00592  0.63075     O
O      0.90486  0.49408  0.13075     O
O      0.90486  0.50592  0.36925     O
O      0.90486  0.99408  0.86925     O
C      0.92564  0.00637  0.79069     C
C      0.92564  0.49363  0.29069     C
C      0.92564  0.50637  0.20931     C
C      0.92564  0.99363  0.70931     C
C      0.93559   0.0254  0.33144     C
C      0.93559   0.4746  0.83144     C
C      0.93559   0.5254  0.66856     C
C      0.93559   0.9746  0.16856     C
O      0.94584  0.08974  0.35176     O
O      0.94584  0.41026  0.85176     O
O      0.94584  0.58974  0.64824     O
O      0.94584  0.91026  0.14824     O
C        0.948      0.0     0.25     C
C        0.948      0.5     0.75     C
C      0.98826  0.00808  0.29072     C
C      0.98826  0.49192  0.79072     C
C      0.98826  0.50808  0.70928     C
C      0.98826  0.99192  0.20928     C
