data_I
_chemical_name_common  '/home/zhangsd/repos/MofS-CGCNN/ML/data/TSD/clean_cifs/EZABAJ_clean'
_cell_length_a  7.66300
_cell_length_b 10.10400
_cell_length_c 17.42600
_cell_angle_alpha 90.00000
_cell_angle_beta  90.00000
_cell_angle_gamma 90.00000
_space_group_name_H-M_alt      'P 1'


loop_
_space_group_symop_operation_xyz
  'x, y, z' 

loop_
_atom_site_label
_atom_site_fract_x
_atom_site_fract_y
_atom_site_fract_z
_atom_site_type_symbol
Zn      0.0075     0.75  0.26119    Zn
H       0.0266     0.25   0.9258     H
H       0.0271     0.25   0.5439     H
H       0.0275   0.0364   0.1781     H
H       0.0275   0.4636   0.1781     H
H       0.0321   0.0355    0.364     H
H       0.0321   0.4645    0.364     H
C       0.0894   0.5117  0.82387     C
C       0.0894   0.9883  0.82387     C
C       0.0931     0.75   0.0832     C
C       0.1367     0.25   0.5668     C
C       0.1424   0.0111  0.34677     C
C       0.1424   0.4889  0.34677     C
N         0.15   0.0971  0.79243     N
N         0.15   0.4029  0.79243     N
Zn     0.15692     0.75  0.91555    Zn
N        0.161     0.25  0.64161     N
N       0.1621     0.75  0.15229     N
N       0.1742   0.5983  0.30764     N
N       0.1742   0.9017  0.30764     N
N       0.2123   0.5836  0.85905     N
N       0.2123   0.9164  0.85905     N
N        0.213     0.75  0.02704     N
N        0.287     0.25  0.52704     N
N       0.2877   0.0836  0.35905     N
N       0.2877   0.4164  0.35905     N
N       0.3258   0.0983  0.80764     N
N       0.3258   0.4017  0.80764     N
N       0.3379     0.25  0.65229     N
N        0.339     0.75  0.14161     N
Zn     0.34308     0.25  0.41555    Zn
N         0.35   0.5971  0.29243     N
N         0.35   0.9029  0.29243     N
C       0.3576   0.5111  0.84677     C
C       0.3576   0.9889  0.84677     C
C       0.3633     0.75   0.0668     C
C       0.4069     0.25   0.5832     C
C       0.4106   0.0117  0.32387     C
C       0.4106   0.4883  0.32387     C
H       0.4679   0.5355    0.864     H
H       0.4679   0.9645    0.864     H
H       0.4725   0.5364   0.6781     H
H       0.4725   0.9636   0.6781     H
H       0.4729     0.75   0.0439     H
H       0.4734     0.75   0.4258     H
Zn      0.4925     0.25  0.76119    Zn
Zn      0.5075     0.75  0.23881    Zn
H       0.5266     0.25   0.5742     H
H       0.5271     0.25   0.9561     H
H       0.5275   0.0364   0.3219     H
H       0.5275   0.4636   0.3219     H
H       0.5321   0.0355    0.136     H
H       0.5321   0.4645    0.136     H
C       0.5894   0.5117  0.67613     C
C       0.5894   0.9883  0.67613     C
C       0.5931     0.75   0.4168     C
C       0.6367     0.25   0.9332     C
C       0.6424   0.0111  0.15323     C
C       0.6424   0.4889  0.15323     C
N         0.65   0.0971  0.70757     N
N         0.65   0.4029  0.70757     N
Zn     0.65692     0.75  0.58445    Zn
N        0.661     0.25  0.85839     N
N       0.6621     0.75  0.34771     N
N       0.6742   0.5983  0.19236     N
N       0.6742   0.9017  0.19236     N
N       0.7123   0.5836  0.64095     N
N       0.7123   0.9164  0.64095     N
N        0.713     0.75  0.47296     N
N        0.787     0.25  0.97296     N
N       0.7877   0.0836  0.14095     N
N       0.7877   0.4164  0.14095     N
N       0.8258   0.0983  0.69236     N
N       0.8258   0.4017  0.69236     N
N       0.8379     0.25  0.84771     N
N        0.839     0.75  0.35839     N
Zn     0.84308     0.25  0.08445    Zn
N         0.85   0.5971  0.20757     N
N         0.85   0.9029  0.20757     N
C       0.8576   0.5111  0.65323     C
C       0.8576   0.9889  0.65323     C
C       0.8633     0.75   0.4332     C
C       0.9069     0.25   0.9168     C
C       0.9106   0.0117  0.17613     C
C       0.9106   0.4883  0.17613     C
H       0.9679   0.5355    0.636     H
H       0.9679   0.9645    0.636     H
H       0.9725   0.5364   0.8219     H
H       0.9725   0.9636   0.8219     H
H       0.9729     0.75   0.4561     H
H       0.9734     0.75   0.0742     H
Zn      0.9925     0.25  0.73881    Zn
