data_I
_chemical_name_common  '/home/zhangsd/repos/MofS-CGCNN/ML/data/TSD/clean_cifs/EZEQEH_clean'
_cell_length_a 16.75130
_cell_length_b 18.19230
_cell_length_c 12.02580
_cell_angle_alpha 90.00000
_cell_angle_beta  123.87000
_cell_angle_gamma 90.00000
_space_group_name_H-M_alt      'P 1'


loop_
_space_group_symop_operation_xyz
  'x, y, z' 

loop_
_atom_site_label
_atom_site_fract_x
_atom_site_fract_y
_atom_site_fract_z
_atom_site_type_symbol
Mg         0.0  0.30208     0.25    Mg
Mg         0.0  0.69792     0.75    Mg
C       0.0055  0.10312   0.9893     C
C       0.0055  0.89688   0.4893     C
H        0.009    0.218    0.494     H
H        0.009    0.782    0.994     H
C       0.0152  0.03412   0.4834     C
C       0.0152  0.96588   0.9834     C
C       0.0233  0.16578   0.4801     C
C       0.0233  0.83422   0.9801     C
H        0.037    0.108    0.941     H
H        0.037    0.892    0.441     H
H        0.042    0.496    0.886     H
H        0.042    0.504    0.386     H
H         0.05    0.381    0.991     H
H         0.05    0.619    0.491     H
C       0.0661  0.03208   0.4237     C
C       0.0661  0.96792   0.9237     C
N      0.07141  0.16102   0.4213     N
N      0.07141  0.83898   0.9213     N
O      0.08245  0.29668   0.1733     O
O      0.08245  0.70332   0.6733     O
O      0.08488  0.38069   0.3801     O
O      0.08488  0.61931   0.8801     O
H        0.085   0.0133    0.905     H
H        0.085   0.9867    0.405     H
C       0.0941   0.0961   0.3944     C
C       0.0941   0.9039   0.8944     C
C       0.0953  0.48121   0.9801     C
C       0.0953  0.51879   0.4801     C
C       0.0964  0.41426   0.0356     C
C       0.0964  0.58574   0.5356     C
O      0.09866  0.22254  0.39026     O
O      0.09866  0.77746  0.89026     O
H        0.129   0.0984    0.355     H
H        0.129   0.9016    0.855     H
C       0.1569   0.3916   0.4962     C
C       0.1569   0.6084   0.9962     C
C       0.1619  0.32974    0.233     C
C       0.1619  0.67026    0.733     C
C       0.1636  0.46572   0.5557     C
C       0.1636  0.53428   0.0557     C
C       0.1667  0.39864   0.1674     C
C       0.1667  0.60136   0.6674     C
H        0.215    0.059     0.66     H
H        0.215    0.941     0.16     H
H        0.221    0.055    0.257     H
H        0.221    0.945    0.757     H
O      0.22311  0.34549  0.56649     O
O      0.22311  0.65451  0.06649     O
C       0.2345  0.48217   0.6873     C
C       0.2345  0.51783   0.1873     C
O      0.23549  0.31127  0.34432     O
O      0.23549  0.68873  0.84432     O
C       0.2365  0.45059    0.242     C
C       0.2365  0.54941    0.742     C
Mg        0.25     0.25      0.5    Mg
Mg        0.25     0.75      0.0    Mg
C       0.2635  0.04941    0.758     C
C       0.2635  0.95059    0.258     C
O      0.26451  0.18873  0.65568     O
O      0.26451  0.81127  0.15568     O
C       0.2655  0.01783   0.3127     C
C       0.2655  0.98217   0.8127     C
O      0.27689  0.15451  0.43351     O
O      0.27689  0.84549  0.93351     O
H        0.279    0.445    0.743     H
H        0.279    0.555    0.243     H
H        0.285    0.441     0.34     H
H        0.285    0.559     0.84     H
C       0.3333  0.10136   0.8326     C
C       0.3333  0.89864   0.3326     C
C       0.3364  0.03428   0.4443     C
C       0.3364  0.96572   0.9443     C
C       0.3381  0.17026    0.767     C
C       0.3381  0.82974    0.267     C
C       0.3431   0.1084   0.5038     C
C       0.3431   0.8916   0.0038     C
H        0.371   0.4016    0.645     H
H        0.371   0.5984    0.145     H
O      0.40134  0.27746  0.60974     O
O      0.40134  0.72254  0.10974     O
C       0.4036  0.08574   0.9644     C
C       0.4036  0.91426   0.4644     C
C       0.4047  0.01879   0.0199     C
C       0.4047  0.98121   0.5199     C
C       0.4059   0.4039   0.6056     C
C       0.4059   0.5961   0.1056     C
H        0.415   0.4867    0.095     H
H        0.415   0.5133    0.595     H
O      0.41512  0.11931   0.6199     O
O      0.41512  0.88069   0.1199     O
O      0.41755  0.20332   0.8267     O
O      0.41755  0.79668   0.3267     O
N      0.42859  0.33898   0.5787     N
N      0.42859  0.66102   0.0787     N
C       0.4339  0.46792   0.5763     C
C       0.4339  0.53208   0.0763     C
H         0.45    0.119    0.009     H
H         0.45    0.881    0.509     H
H        0.458    0.004    0.114     H
H        0.458    0.996    0.614     H
H        0.463    0.392    0.059     H
H        0.463    0.608    0.559     H
C       0.4767  0.33422   0.5199     C
C       0.4767  0.66578   0.0199     C
C       0.4848  0.46588   0.5166     C
C       0.4848  0.53412   0.0166     C
H        0.491    0.282    0.506     H
H        0.491    0.718    0.006     H
C       0.4945  0.39688   0.0107     C
C       0.4945  0.60312   0.5107     C
Mg         0.5  0.19792     0.75    Mg
Mg         0.5  0.80208     0.25    Mg
C       0.5055  0.39688   0.4893     C
C       0.5055  0.60312   0.9893     C
H        0.509    0.282    0.994     H
H        0.509    0.718    0.494     H
C       0.5152  0.46588   0.9834     C
C       0.5152  0.53412   0.4834     C
C       0.5233  0.33422   0.9801     C
C       0.5233  0.66578   0.4801     C
H        0.537    0.392    0.441     H
H        0.537    0.608    0.941     H
H        0.542    0.004    0.386     H
H        0.542    0.996    0.886     H
H         0.55    0.119    0.491     H
H         0.55    0.881    0.991     H
C       0.5661  0.46792   0.9237     C
C       0.5661  0.53208   0.4237     C
N      0.57141  0.33898   0.9213     N
N      0.57141  0.66102   0.4213     N
O      0.58245  0.20332   0.6733     O
O      0.58245  0.79668   0.1733     O
O      0.58488  0.11931   0.8801     O
O      0.58488  0.88069   0.3801     O
H        0.585   0.4867    0.405     H
H        0.585   0.5133    0.905     H
C       0.5941   0.4039   0.8944     C
C       0.5941   0.5961   0.3944     C
C       0.5953  0.01879   0.4801     C
C       0.5953  0.98121   0.9801     C
C       0.5964  0.08574   0.5356     C
C       0.5964  0.91426   0.0356     C
O      0.59866  0.27746  0.89026     O
O      0.59866  0.72254  0.39026     O
H        0.629   0.4016    0.855     H
H        0.629   0.5984    0.355     H
C       0.6569   0.1084   0.9962     C
C       0.6569   0.8916   0.4962     C
C       0.6619  0.17026    0.733     C
C       0.6619  0.82974    0.233     C
C       0.6636  0.03428   0.0557     C
C       0.6636  0.96572   0.5557     C
C       0.6667  0.10136   0.6674     C
C       0.6667  0.89864   0.1674     C
H        0.715    0.441     0.16     H
H        0.715    0.559     0.66     H
H        0.721    0.445    0.757     H
H        0.721    0.555    0.257     H
O      0.72311  0.15451  0.06649     O
O      0.72311  0.84549  0.56649     O
C       0.7345  0.01783   0.1873     C
C       0.7345  0.98217   0.6873     C
O      0.73549  0.18873  0.84432     O
O      0.73549  0.81127  0.34432     O
C       0.7365  0.04941    0.742     C
C       0.7365  0.95059    0.242     C
Mg        0.75     0.25      0.0    Mg
Mg        0.75     0.75      0.5    Mg
C       0.7635  0.45059    0.258     C
C       0.7635  0.54941    0.758     C
O      0.76451  0.31127  0.15568     O
O      0.76451  0.68873  0.65568     O
C       0.7655  0.48217   0.8127     C
C       0.7655  0.51783   0.3127     C
O      0.77689  0.34549  0.93351     O
O      0.77689  0.65451  0.43351     O
H        0.779    0.055    0.243     H
H        0.779    0.945    0.743     H
H        0.785    0.059     0.84     H
H        0.785    0.941     0.34     H
C       0.8333  0.39864   0.3326     C
C       0.8333  0.60136   0.8326     C
C       0.8364  0.46572   0.9443     C
C       0.8364  0.53428   0.4443     C
C       0.8381  0.32974    0.267     C
C       0.8381  0.67026    0.767     C
C       0.8431   0.3916   0.0038     C
C       0.8431   0.6084   0.5038     C
H        0.871   0.0984    0.145     H
H        0.871   0.9016    0.645     H
O      0.90134  0.22254  0.10974     O
O      0.90134  0.77746  0.60974     O
C       0.9036  0.41426   0.4644     C
C       0.9036  0.58574   0.9644     C
C       0.9047  0.48121   0.5199     C
C       0.9047  0.51879   0.0199     C
C       0.9059   0.0961   0.1056     C
C       0.9059   0.9039   0.6056     C
H        0.915   0.0133    0.595     H
H        0.915   0.9867    0.095     H
O      0.91512  0.38069   0.1199     O
O      0.91512  0.61931   0.6199     O
O      0.91755  0.29668   0.3267     O
O      0.91755  0.70332   0.8267     O
N      0.92859  0.16102   0.0787     N
N      0.92859  0.83898   0.5787     N
C       0.9339  0.03208   0.0763     C
C       0.9339  0.96792   0.5763     C
H         0.95    0.381    0.509     H
H         0.95    0.619    0.009     H
H        0.958    0.496    0.614     H
H        0.958    0.504    0.114     H
H        0.963    0.108    0.559     H
H        0.963    0.892    0.059     H
C       0.9767  0.16578   0.0199     C
C       0.9767  0.83422   0.5199     C
C       0.9848  0.03412   0.0166     C
C       0.9848  0.96588   0.5166     C
H        0.991    0.218    0.006     H
H        0.991    0.782    0.506     H
C       0.9945  0.10312   0.5107     C
C       0.9945  0.89688   0.0107     C
