data_I
_chemical_name_common  '/home/zhangsd/repos/MofS-CGCNN/ML/data/TSD/clean_cifs/EZIPEK_clean'
_cell_length_a 21.71300
_cell_length_b 21.71300
_cell_length_c 21.71300
_cell_angle_alpha 90.00000
_cell_angle_beta  90.00000
_cell_angle_gamma 90.00000
_space_group_name_H-M_alt      'P 1'


loop_
_space_group_symop_operation_xyz
  'x, y, z' 

loop_
_atom_site_label
_atom_site_fract_x
_atom_site_fract_y
_atom_site_fract_z
_atom_site_type_symbol
Eu         0.0      0.0  0.12945    Eu
Eu         0.0      0.0  0.87055    Eu
O          0.0  0.09919  0.17422     O
O          0.0  0.09919  0.82578     O
N          0.0   0.1274   0.2625     N
N          0.0   0.1274   0.7375     N
Eu         0.0  0.12945      0.0    Eu
C          0.0   0.1551   0.1551     C
C          0.0   0.1551   0.8449     C
O          0.0  0.17422  0.09919     O
O          0.0  0.17422  0.90081     O
C          0.0   0.1898   0.2653     C
C          0.0   0.1898   0.7347     C
C          0.0   0.2042   0.2042     C
C          0.0   0.2042   0.7958     C
C          0.0   0.2347   0.3102     C
C          0.0   0.2347   0.6898     C
N          0.0   0.2375   0.3726     N
N          0.0   0.2375   0.6274     N
N          0.0   0.2625   0.1274     N
N          0.0   0.2625   0.8726     N
C          0.0   0.2653   0.1898     C
C          0.0   0.2653   0.8102     C
C          0.0   0.2958   0.2958     C
C          0.0   0.2958   0.7042     C
C          0.0   0.3102   0.2347     C
C          0.0   0.3102   0.7653     C
O          0.0  0.32578  0.40081     O
O          0.0  0.32578  0.59919     O
C          0.0   0.3449   0.3449     C
C          0.0   0.3449   0.6551     C
Eu         0.0  0.37055      0.5    Eu
N          0.0   0.3726   0.2375     N
N          0.0   0.3726   0.7625     N
O          0.0  0.40081  0.32578     O
O          0.0  0.40081  0.67422     O
Eu         0.0      0.5  0.37055    Eu
Eu         0.0      0.5  0.62945    Eu
O          0.0  0.59919  0.32578     O
O          0.0  0.59919  0.67422     O
N          0.0   0.6274   0.2375     N
N          0.0   0.6274   0.7625     N
Eu         0.0  0.62945      0.5    Eu
C          0.0   0.6551   0.3449     C
C          0.0   0.6551   0.6551     C
O          0.0  0.67422  0.40081     O
O          0.0  0.67422  0.59919     O
C          0.0   0.6898   0.2347     C
C          0.0   0.6898   0.7653     C
C          0.0   0.7042   0.2958     C
C          0.0   0.7042   0.7042     C
C          0.0   0.7347   0.1898     C
C          0.0   0.7347   0.8102     C
N          0.0   0.7375   0.1274     N
N          0.0   0.7375   0.8726     N
N          0.0   0.7625   0.3726     N
N          0.0   0.7625   0.6274     N
C          0.0   0.7653   0.3102     C
C          0.0   0.7653   0.6898     C
C          0.0   0.7958   0.2042     C
C          0.0   0.7958   0.7958     C
C          0.0   0.8102   0.2653     C
C          0.0   0.8102   0.7347     C
O          0.0  0.82578  0.09919     O
O          0.0  0.82578  0.90081     O
C          0.0   0.8449   0.1551     C
C          0.0   0.8449   0.8449     C
Eu         0.0  0.87055      0.0    Eu
N          0.0   0.8726   0.2625     N
N          0.0   0.8726   0.7375     N
O          0.0  0.90081  0.17422     O
O          0.0  0.90081  0.82578     O
O      0.05889  0.05889  0.05889     O
O      0.05889  0.05889  0.94111     O
O      0.05889  0.44111  0.44111     O
O      0.05889  0.44111  0.55889     O
O      0.05889  0.55889  0.44111     O
O      0.05889  0.55889  0.55889     O
O      0.05889  0.94111  0.05889     O
O      0.05889  0.94111  0.94111     O
O      0.09919      0.0  0.17422     O
O      0.09919      0.0  0.82578     O
O      0.09919  0.17422      0.0     O
O      0.09919  0.32578      0.5     O
O      0.09919      0.5  0.32578     O
O      0.09919      0.5  0.67422     O
O      0.09919  0.67422      0.5     O
O      0.09919  0.82578      0.0     O
N       0.1274      0.0   0.2625     N
N       0.1274      0.0   0.7375     N
N       0.1274   0.2375      0.5     N
N       0.1274   0.2625      0.0     N
N       0.1274      0.5   0.2375     N
N       0.1274      0.5   0.7625     N
N       0.1274   0.7375      0.0     N
N       0.1274   0.7625      0.5     N
Eu     0.12945      0.0      0.0    Eu
Eu     0.12945      0.5      0.5    Eu
C       0.1551      0.0   0.1551     C
C       0.1551      0.0   0.8449     C
C       0.1551   0.1551      0.0     C
C       0.1551   0.3449      0.5     C
C       0.1551      0.5   0.3449     C
C       0.1551      0.5   0.6551     C
C       0.1551   0.6551      0.5     C
C       0.1551   0.8449      0.0     C
O      0.17422      0.0  0.09919     O
O      0.17422      0.0  0.90081     O
O      0.17422  0.09919      0.0     O
O      0.17422  0.40081      0.5     O
O      0.17422      0.5  0.40081     O
O      0.17422      0.5  0.59919     O
O      0.17422  0.59919      0.5     O
O      0.17422  0.90081      0.0     O
C       0.1898      0.0   0.2653     C
C       0.1898      0.0   0.7347     C
C       0.1898   0.2347      0.5     C
C       0.1898   0.2653      0.0     C
C       0.1898      0.5   0.2347     C
C       0.1898      0.5   0.7653     C
C       0.1898   0.7347      0.0     C
C       0.1898   0.7653      0.5     C
C       0.2042      0.0   0.2042     C
C       0.2042      0.0   0.7958     C
C       0.2042   0.2042      0.0     C
C       0.2042   0.2958      0.5     C
C       0.2042      0.5   0.2958     C
C       0.2042      0.5   0.7042     C
C       0.2042   0.7042      0.5     C
C       0.2042   0.7958      0.0     C
C       0.2347      0.0   0.3102     C
C       0.2347      0.0   0.6898     C
C       0.2347   0.1898      0.5     C
C       0.2347   0.3102      0.0     C
C       0.2347      0.5   0.1898     C
C       0.2347      0.5   0.8102     C
C       0.2347   0.6898      0.0     C
C       0.2347   0.8102      0.5     C
N       0.2375      0.0   0.3726     N
N       0.2375      0.0   0.6274     N
N       0.2375   0.1274      0.5     N
N       0.2375   0.3726      0.0     N
N       0.2375      0.5   0.1274     N
N       0.2375      0.5   0.8726     N
N       0.2375   0.6274      0.0     N
N       0.2375   0.8726      0.5     N
N       0.2625      0.0   0.1274     N
N       0.2625      0.0   0.8726     N
N       0.2625   0.1274      0.0     N
N       0.2625   0.3726      0.5     N
N       0.2625      0.5   0.3726     N
N       0.2625      0.5   0.6274     N
N       0.2625   0.6274      0.5     N
N       0.2625   0.8726      0.0     N
C       0.2653      0.0   0.1898     C
C       0.2653      0.0   0.8102     C
C       0.2653   0.1898      0.0     C
C       0.2653   0.3102      0.5     C
C       0.2653      0.5   0.3102     C
C       0.2653      0.5   0.6898     C
C       0.2653   0.6898      0.5     C
C       0.2653   0.8102      0.0     C
C       0.2958      0.0   0.2958     C
C       0.2958      0.0   0.7042     C
C       0.2958   0.2042      0.5     C
C       0.2958   0.2958      0.0     C
C       0.2958      0.5   0.2042     C
C       0.2958      0.5   0.7958     C
C       0.2958   0.7042      0.0     C
C       0.2958   0.7958      0.5     C
C       0.3102      0.0   0.2347     C
C       0.3102      0.0   0.7653     C
C       0.3102   0.2347      0.0     C
C       0.3102   0.2653      0.5     C
C       0.3102      0.5   0.2653     C
C       0.3102      0.5   0.7347     C
C       0.3102   0.7347      0.5     C
C       0.3102   0.7653      0.0     C
O      0.32578      0.0  0.40081     O
O      0.32578      0.0  0.59919     O
O      0.32578  0.09919      0.5     O
O      0.32578  0.40081      0.0     O
O      0.32578      0.5  0.09919     O
O      0.32578      0.5  0.90081     O
O      0.32578  0.59919      0.0     O
O      0.32578  0.90081      0.5     O
C       0.3449      0.0   0.3449     C
C       0.3449      0.0   0.6551     C
C       0.3449   0.1551      0.5     C
C       0.3449   0.3449      0.0     C
C       0.3449      0.5   0.1551     C
C       0.3449      0.5   0.8449     C
C       0.3449   0.6551      0.0     C
C       0.3449   0.8449      0.5     C
Eu     0.37055      0.0      0.5    Eu
Eu     0.37055      0.5      0.0    Eu
N       0.3726      0.0   0.2375     N
N       0.3726      0.0   0.7625     N
N       0.3726   0.2375      0.0     N
N       0.3726   0.2625      0.5     N
N       0.3726      0.5   0.2625     N
N       0.3726      0.5   0.7375     N
N       0.3726   0.7375      0.5     N
N       0.3726   0.7625      0.0     N
O      0.40081      0.0  0.32578     O
O      0.40081      0.0  0.67422     O
O      0.40081  0.17422      0.5     O
O      0.40081  0.32578      0.0     O
O      0.40081      0.5  0.17422     O
O      0.40081      0.5  0.82578     O
O      0.40081  0.67422      0.0     O
O      0.40081  0.82578      0.5     O
O      0.44111  0.05889  0.44111     O
O      0.44111  0.05889  0.55889     O
O      0.44111  0.44111  0.05889     O
O      0.44111  0.44111  0.94111     O
O      0.44111  0.55889  0.05889     O
O      0.44111  0.55889  0.94111     O
O      0.44111  0.94111  0.44111     O
O      0.44111  0.94111  0.55889     O
Eu         0.5      0.0  0.37055    Eu
Eu         0.5      0.0  0.62945    Eu
O          0.5  0.09919  0.32578     O
O          0.5  0.09919  0.67422     O
N          0.5   0.1274   0.2375     N
N          0.5   0.1274   0.7625     N
Eu         0.5  0.12945      0.5    Eu
C          0.5   0.1551   0.3449     C
C          0.5   0.1551   0.6551     C
O          0.5  0.17422  0.40081     O
O          0.5  0.17422  0.59919     O
C          0.5   0.1898   0.2347     C
C          0.5   0.1898   0.7653     C
C          0.5   0.2042   0.2958     C
C          0.5   0.2042   0.7042     C
C          0.5   0.2347   0.1898     C
C          0.5   0.2347   0.8102     C
N          0.5   0.2375   0.1274     N
N          0.5   0.2375   0.8726     N
N          0.5   0.2625   0.3726     N
N          0.5   0.2625   0.6274     N
C          0.5   0.2653   0.3102     C
C          0.5   0.2653   0.6898     C
C          0.5   0.2958   0.2042     C
C          0.5   0.2958   0.7958     C
C          0.5   0.3102   0.2653     C
C          0.5   0.3102   0.7347     C
O          0.5  0.32578  0.09919     O
O          0.5  0.32578  0.90081     O
C          0.5   0.3449   0.1551     C
C          0.5   0.3449   0.8449     C
Eu         0.5  0.37055      0.0    Eu
N          0.5   0.3726   0.2625     N
N          0.5   0.3726   0.7375     N
O          0.5  0.40081  0.17422     O
O          0.5  0.40081  0.82578     O
Eu         0.5      0.5  0.12945    Eu
Eu         0.5      0.5  0.87055    Eu
O          0.5  0.59919  0.17422     O
O          0.5  0.59919  0.82578     O
N          0.5   0.6274   0.2625     N
N          0.5   0.6274   0.7375     N
Eu         0.5  0.62945      0.0    Eu
C          0.5   0.6551   0.1551     C
C          0.5   0.6551   0.8449     C
O          0.5  0.67422  0.09919     O
O          0.5  0.67422  0.90081     O
C          0.5   0.6898   0.2653     C
C          0.5   0.6898   0.7347     C
C          0.5   0.7042   0.2042     C
C          0.5   0.7042   0.7958     C
C          0.5   0.7347   0.3102     C
C          0.5   0.7347   0.6898     C
N          0.5   0.7375   0.3726     N
N          0.5   0.7375   0.6274     N
N          0.5   0.7625   0.1274     N
N          0.5   0.7625   0.8726     N
C          0.5   0.7653   0.1898     C
C          0.5   0.7653   0.8102     C
C          0.5   0.7958   0.2958     C
C          0.5   0.7958   0.7042     C
C          0.5   0.8102   0.2347     C
C          0.5   0.8102   0.7653     C
O          0.5  0.82578  0.40081     O
O          0.5  0.82578  0.59919     O
C          0.5   0.8449   0.3449     C
C          0.5   0.8449   0.6551     C
Eu         0.5  0.87055      0.5    Eu
N          0.5   0.8726   0.2375     N
N          0.5   0.8726   0.7625     N
O          0.5  0.90081  0.32578     O
O          0.5  0.90081  0.67422     O
O      0.55889  0.05889  0.44111     O
O      0.55889  0.05889  0.55889     O
O      0.55889  0.44111  0.05889     O
O      0.55889  0.44111  0.94111     O
O      0.55889  0.55889  0.05889     O
O      0.55889  0.55889  0.94111     O
O      0.55889  0.94111  0.44111     O
O      0.55889  0.94111  0.55889     O
O      0.59919      0.0  0.32578     O
O      0.59919      0.0  0.67422     O
O      0.59919  0.17422      0.5     O
O      0.59919  0.32578      0.0     O
O      0.59919      0.5  0.17422     O
O      0.59919      0.5  0.82578     O
O      0.59919  0.67422      0.0     O
O      0.59919  0.82578      0.5     O
N       0.6274      0.0   0.2375     N
N       0.6274      0.0   0.7625     N
N       0.6274   0.2375      0.0     N
N       0.6274   0.2625      0.5     N
N       0.6274      0.5   0.2625     N
N       0.6274      0.5   0.7375     N
N       0.6274   0.7375      0.5     N
N       0.6274   0.7625      0.0     N
Eu     0.62945      0.0      0.5    Eu
Eu     0.62945      0.5      0.0    Eu
C       0.6551      0.0   0.3449     C
C       0.6551      0.0   0.6551     C
C       0.6551   0.1551      0.5     C
C       0.6551   0.3449      0.0     C
C       0.6551      0.5   0.1551     C
C       0.6551      0.5   0.8449     C
C       0.6551   0.6551      0.0     C
C       0.6551   0.8449      0.5     C
O      0.67422      0.0  0.40081     O
O      0.67422      0.0  0.59919     O
O      0.67422  0.09919      0.5     O
O      0.67422  0.40081      0.0     O
O      0.67422      0.5  0.09919     O
O      0.67422      0.5  0.90081     O
O      0.67422  0.59919      0.0     O
O      0.67422  0.90081      0.5     O
C       0.6898      0.0   0.2347     C
C       0.6898      0.0   0.7653     C
C       0.6898   0.2347      0.0     C
C       0.6898   0.2653      0.5     C
C       0.6898      0.5   0.2653     C
C       0.6898      0.5   0.7347     C
C       0.6898   0.7347      0.5     C
C       0.6898   0.7653      0.0     C
C       0.7042      0.0   0.2958     C
C       0.7042      0.0   0.7042     C
C       0.7042   0.2042      0.5     C
C       0.7042   0.2958      0.0     C
C       0.7042      0.5   0.2042     C
C       0.7042      0.5   0.7958     C
C       0.7042   0.7042      0.0     C
C       0.7042   0.7958      0.5     C
C       0.7347      0.0   0.1898     C
C       0.7347      0.0   0.8102     C
C       0.7347   0.1898      0.0     C
C       0.7347   0.3102      0.5     C
C       0.7347      0.5   0.3102     C
C       0.7347      0.5   0.6898     C
C       0.7347   0.6898      0.5     C
C       0.7347   0.8102      0.0     C
N       0.7375      0.0   0.1274     N
N       0.7375      0.0   0.8726     N
N       0.7375   0.1274      0.0     N
N       0.7375   0.3726      0.5     N
N       0.7375      0.5   0.3726     N
N       0.7375      0.5   0.6274     N
N       0.7375   0.6274      0.5     N
N       0.7375   0.8726      0.0     N
N       0.7625      0.0   0.3726     N
N       0.7625      0.0   0.6274     N
N       0.7625   0.1274      0.5     N
N       0.7625   0.3726      0.0     N
N       0.7625      0.5   0.1274     N
N       0.7625      0.5   0.8726     N
N       0.7625   0.6274      0.0     N
N       0.7625   0.8726      0.5     N
C       0.7653      0.0   0.3102     C
C       0.7653      0.0   0.6898     C
C       0.7653   0.1898      0.5     C
C       0.7653   0.3102      0.0     C
C       0.7653      0.5   0.1898     C
C       0.7653      0.5   0.8102     C
C       0.7653   0.6898      0.0     C
C       0.7653   0.8102      0.5     C
C       0.7958      0.0   0.2042     C
C       0.7958      0.0   0.7958     C
C       0.7958   0.2042      0.0     C
C       0.7958   0.2958      0.5     C
C       0.7958      0.5   0.2958     C
C       0.7958      0.5   0.7042     C
C       0.7958   0.7042      0.5     C
C       0.7958   0.7958      0.0     C
C       0.8102      0.0   0.2653     C
C       0.8102      0.0   0.7347     C
C       0.8102   0.2347      0.5     C
C       0.8102   0.2653      0.0     C
C       0.8102      0.5   0.2347     C
C       0.8102      0.5   0.7653     C
C       0.8102   0.7347      0.0     C
C       0.8102   0.7653      0.5     C
O      0.82578      0.0  0.09919     O
O      0.82578      0.0  0.90081     O
O      0.82578  0.09919      0.0     O
O      0.82578  0.40081      0.5     O
O      0.82578      0.5  0.40081     O
O      0.82578      0.5  0.59919     O
O      0.82578  0.59919      0.5     O
O      0.82578  0.90081      0.0     O
C       0.8449      0.0   0.1551     C
C       0.8449      0.0   0.8449     C
C       0.8449   0.1551      0.0     C
C       0.8449   0.3449      0.5     C
C       0.8449      0.5   0.3449     C
C       0.8449      0.5   0.6551     C
C       0.8449   0.6551      0.5     C
C       0.8449   0.8449      0.0     C
Eu     0.87055      0.0      0.0    Eu
Eu     0.87055      0.5      0.5    Eu
N       0.8726      0.0   0.2625     N
N       0.8726      0.0   0.7375     N
N       0.8726   0.2375      0.5     N
N       0.8726   0.2625      0.0     N
N       0.8726      0.5   0.2375     N
N       0.8726      0.5   0.7625     N
N       0.8726   0.7375      0.0     N
N       0.8726   0.7625      0.5     N
O      0.90081      0.0  0.17422     O
O      0.90081      0.0  0.82578     O
O      0.90081  0.17422      0.0     O
O      0.90081  0.32578      0.5     O
O      0.90081      0.5  0.32578     O
O      0.90081      0.5  0.67422     O
O      0.90081  0.67422      0.5     O
O      0.90081  0.82578      0.0     O
O      0.94111  0.05889  0.05889     O
O      0.94111  0.05889  0.94111     O
O      0.94111  0.44111  0.44111     O
O      0.94111  0.44111  0.55889     O
O      0.94111  0.55889  0.44111     O
O      0.94111  0.55889  0.55889     O
O      0.94111  0.94111  0.05889     O
O      0.94111  0.94111  0.94111     O
