data_I
_chemical_name_common  '/home/zhangsd/repos/MofS-CGCNN/ML/data/TSD/clean_cifs/EZOFEF_clean'
_cell_length_a 18.80490
_cell_length_b 18.80490
_cell_length_c 18.80490
_cell_angle_alpha 60.00000
_cell_angle_beta  60.00000
_cell_angle_gamma 60.00000
_space_group_name_H-M_alt      'P 1'


loop_
_space_group_symop_operation_xyz
  'x, y, z' 

loop_
_atom_site_label
_atom_site_fract_x
_atom_site_fract_y
_atom_site_fract_z
_atom_site_type_symbol
O      0.00599  0.47855  0.62795     O
O      0.00599  0.47855  0.88751     O
O      0.00599  0.62795  0.47855     O
O      0.00599  0.62795  0.88751     O
O      0.00599  0.88751  0.47855     O
O      0.00599  0.88751  0.62795     O
H       0.0142   0.2268   0.2268     H
H       0.0142   0.2268   0.5322     H
H       0.0142   0.5322   0.2268     H
C       0.0694   0.0694  0.33476     C
C       0.0694   0.0694  0.52644     C
C       0.0694  0.33476   0.0694     C
C       0.0694  0.33476  0.52644     C
C       0.0694  0.52644   0.0694     C
C       0.0694  0.52644  0.33476     C
C      0.07154   0.1985   0.1985     C
C      0.07154   0.1985  0.53146     C
C      0.07154  0.53146   0.1985     C
Ni     0.07214      0.5      0.5    Ni
Ni     0.07214      0.5  0.92786    Ni
Ni     0.07214  0.92786      0.5    Ni
O      0.11249  0.37205  0.52145     O
O      0.11249  0.37205  0.99401     O
O      0.11249  0.52145  0.37205     O
O      0.11249  0.52145  0.99401     O
O      0.11249  0.99401  0.37205     O
O      0.11249  0.99401  0.52145     O
C       0.1136   0.1136  0.24194     C
C       0.1136   0.1136  0.53086     C
C       0.1136  0.24194   0.1136     C
C       0.1136  0.24194  0.53086     C
C       0.1136  0.53086   0.1136     C
C       0.1136  0.53086  0.24194     C
H       0.1298   0.5242   0.6072     H
H       0.1298   0.5242   0.7388     H
H       0.1298   0.6072   0.5242     H
H       0.1298   0.6072   0.7388     H
H       0.1298   0.7388   0.5242     H
H       0.1298   0.7388   0.6072     H
C        0.163    0.547    0.547     C
C        0.163    0.547    0.743     C
C        0.163    0.743    0.547     C
N        0.177      0.5      0.5     N
N        0.177      0.5    0.823     N
N        0.177    0.823      0.5     N
C       0.1985  0.07154   0.1985     C
C       0.1985  0.07154  0.53146     C
C       0.1985   0.1985  0.07154     C
C       0.1985   0.1985  0.53146     C
C       0.1985  0.53146  0.07154     C
C       0.1985  0.53146   0.1985     C
H       0.2177    0.543    0.543     H
H       0.2177    0.543   0.6963     H
H       0.2177   0.6963    0.543     H
H        0.224      0.5      0.5     H
H        0.224      0.5    0.776     H
H        0.224    0.776      0.5     H
H       0.2268   0.0142   0.2268     H
H       0.2268   0.0142   0.5322     H
H       0.2268   0.2268   0.0142     H
H       0.2268   0.2268   0.5322     H
H       0.2268   0.5322   0.0142     H
H       0.2268   0.5322   0.2268     H
C      0.24194   0.1136   0.1136     C
C      0.24194   0.1136  0.53086     C
C      0.24194  0.53086   0.1136     C
C        0.257    0.453    0.453     C
C        0.257    0.453    0.837     C
C        0.257    0.837    0.453     C
H       0.2612   0.3928   0.4758     H
H       0.2612   0.3928   0.8702     H
H       0.2612   0.4758   0.3928     H
H       0.2612   0.4758   0.8702     H
H       0.2612   0.8702   0.3928     H
H       0.2612   0.8702   0.4758     H
H       0.3037    0.457    0.457     H
H       0.3037    0.457   0.7823     H
H       0.3037   0.7823    0.457     H
C      0.33476   0.0694   0.0694     C
C      0.33476   0.0694  0.52644     C
C      0.33476  0.52644   0.0694     C
O      0.37205  0.11249  0.52145     O
O      0.37205  0.11249  0.99401     O
O      0.37205  0.52145  0.11249     O
O      0.37205  0.52145  0.99401     O
O      0.37205  0.99401  0.11249     O
O      0.37205  0.99401  0.52145     O
H       0.3928   0.2612   0.4758     H
H       0.3928   0.2612   0.8702     H
H       0.3928   0.4758   0.2612     H
H       0.3928   0.4758   0.8702     H
H       0.3928   0.8702   0.2612     H
H       0.3928   0.8702   0.4758     H
C        0.453    0.257    0.453     C
C        0.453    0.257    0.837     C
C        0.453    0.453    0.257     C
C        0.453    0.453    0.837     C
C        0.453    0.837    0.257     C
C        0.453    0.837    0.453     C
H        0.457   0.3037    0.457     H
H        0.457   0.3037   0.7823     H
H        0.457    0.457   0.3037     H
H        0.457    0.457   0.7823     H
H        0.457   0.7823   0.3037     H
H        0.457   0.7823    0.457     H
H       0.4678   0.7732   0.7732     H
H       0.4678   0.7732   0.9858     H
H       0.4678   0.9858   0.7732     H
C      0.46854   0.8015   0.8015     C
C      0.46854   0.8015  0.92846     C
C      0.46854  0.92846   0.8015     C
C      0.46914  0.75806   0.8864     C
C      0.46914   0.8864  0.75806     C
C      0.46914   0.8864   0.8864     C
C      0.47356  0.66524   0.9306     C
C      0.47356   0.9306  0.66524     C
C      0.47356   0.9306   0.9306     C
H       0.4758   0.2612   0.3928     H
H       0.4758   0.2612   0.8702     H
H       0.4758   0.3928   0.2612     H
H       0.4758   0.3928   0.8702     H
H       0.4758   0.8702   0.2612     H
H       0.4758   0.8702   0.3928     H
O      0.47855  0.00599  0.62795     O
O      0.47855  0.00599  0.88751     O
O      0.47855  0.62795  0.00599     O
O      0.47855  0.62795  0.88751     O
O      0.47855  0.88751  0.00599     O
O      0.47855  0.88751  0.62795     O
Ni         0.5  0.07214      0.5    Ni
Ni         0.5  0.07214  0.92786    Ni
N          0.5    0.177      0.5     N
N          0.5    0.177    0.823     N
H          0.5    0.224      0.5     H
H          0.5    0.224    0.776     H
Ni         0.5      0.5  0.07214    Ni
N          0.5      0.5    0.177     N
H          0.5      0.5    0.224     H
H          0.5      0.5    0.776     H
N          0.5      0.5    0.823     N
Ni         0.5      0.5  0.92786    Ni
H          0.5    0.776    0.224     H
H          0.5    0.776      0.5     H
N          0.5    0.823    0.177     N
N          0.5    0.823      0.5     N
Ni         0.5  0.92786  0.07214    Ni
Ni         0.5  0.92786      0.5    Ni
O      0.52145  0.11249  0.37205     O
O      0.52145  0.11249  0.99401     O
O      0.52145  0.37205  0.11249     O
O      0.52145  0.37205  0.99401     O
O      0.52145  0.99401  0.11249     O
O      0.52145  0.99401  0.37205     O
H       0.5242   0.1298   0.6072     H
H       0.5242   0.1298   0.7388     H
H       0.5242   0.6072   0.1298     H
H       0.5242   0.6072   0.7388     H
H       0.5242   0.7388   0.1298     H
H       0.5242   0.7388   0.6072     H
C      0.52644   0.0694   0.0694     C
C      0.52644   0.0694  0.33476     C
C      0.52644  0.33476   0.0694     C
C      0.53086   0.1136   0.1136     C
C      0.53086   0.1136  0.24194     C
C      0.53086  0.24194   0.1136     C
C      0.53146  0.07154   0.1985     C
C      0.53146   0.1985  0.07154     C
C      0.53146   0.1985   0.1985     C
H       0.5322   0.0142   0.2268     H
H       0.5322   0.2268   0.0142     H
H       0.5322   0.2268   0.2268     H
H        0.543   0.2177    0.543     H
H        0.543   0.2177   0.6963     H
H        0.543    0.543   0.2177     H
H        0.543    0.543   0.6963     H
H        0.543   0.6963   0.2177     H
H        0.543   0.6963    0.543     H
C        0.547    0.163    0.547     C
C        0.547    0.163    0.743     C
C        0.547    0.547    0.163     C
C        0.547    0.547    0.743     C
C        0.547    0.743    0.163     C
C        0.547    0.743    0.547     C
H       0.6072   0.1298   0.5242     H
H       0.6072   0.1298   0.7388     H
H       0.6072   0.5242   0.1298     H
H       0.6072   0.5242   0.7388     H
H       0.6072   0.7388   0.1298     H
H       0.6072   0.7388   0.5242     H
O      0.62795  0.00599  0.47855     O
O      0.62795  0.00599  0.88751     O
O      0.62795  0.47855  0.00599     O
O      0.62795  0.47855  0.88751     O
O      0.62795  0.88751  0.00599     O
O      0.62795  0.88751  0.47855     O
C      0.66524  0.47356   0.9306     C
C      0.66524   0.9306  0.47356     C
C      0.66524   0.9306   0.9306     C
H       0.6963   0.2177    0.543     H
H       0.6963    0.543   0.2177     H
H       0.6963    0.543    0.543     H
H       0.7388   0.1298   0.5242     H
H       0.7388   0.1298   0.6072     H
H       0.7388   0.5242   0.1298     H
H       0.7388   0.5242   0.6072     H
H       0.7388   0.6072   0.1298     H
H       0.7388   0.6072   0.5242     H
C        0.743    0.163    0.547     C
C        0.743    0.547    0.163     C
C        0.743    0.547    0.547     C
C      0.75806  0.46914   0.8864     C
C      0.75806   0.8864  0.46914     C
C      0.75806   0.8864   0.8864     C
H       0.7732   0.4678   0.7732     H
H       0.7732   0.4678   0.9858     H
H       0.7732   0.7732   0.4678     H
H       0.7732   0.7732   0.9858     H
H       0.7732   0.9858   0.4678     H
H       0.7732   0.9858   0.7732     H
H        0.776    0.224      0.5     H
H        0.776      0.5    0.224     H
H        0.776      0.5      0.5     H
H       0.7823   0.3037    0.457     H
H       0.7823    0.457   0.3037     H
H       0.7823    0.457    0.457     H
C       0.8015  0.46854   0.8015     C
C       0.8015  0.46854  0.92846     C
C       0.8015   0.8015  0.46854     C
C       0.8015   0.8015  0.92846     C
C       0.8015  0.92846  0.46854     C
C       0.8015  0.92846   0.8015     C
N        0.823    0.177      0.5     N
N        0.823      0.5    0.177     N
N        0.823      0.5      0.5     N
C        0.837    0.257    0.453     C
C        0.837    0.453    0.257     C
C        0.837    0.453    0.453     C
H       0.8702   0.2612   0.3928     H
H       0.8702   0.2612   0.4758     H
H       0.8702   0.3928   0.2612     H
H       0.8702   0.3928   0.4758     H
H       0.8702   0.4758   0.2612     H
H       0.8702   0.4758   0.3928     H
C       0.8864  0.46914  0.75806     C
C       0.8864  0.46914   0.8864     C
C       0.8864  0.75806  0.46914     C
C       0.8864  0.75806   0.8864     C
C       0.8864   0.8864  0.46914     C
C       0.8864   0.8864  0.75806     C
O      0.88751  0.00599  0.47855     O
O      0.88751  0.00599  0.62795     O
O      0.88751  0.47855  0.00599     O
O      0.88751  0.47855  0.62795     O
O      0.88751  0.62795  0.00599     O
O      0.88751  0.62795  0.47855     O
Ni     0.92786  0.07214      0.5    Ni
Ni     0.92786      0.5  0.07214    Ni
Ni     0.92786      0.5      0.5    Ni
C      0.92846  0.46854   0.8015     C
C      0.92846   0.8015  0.46854     C
C      0.92846   0.8015   0.8015     C
C       0.9306  0.47356  0.66524     C
C       0.9306  0.47356   0.9306     C
C       0.9306  0.66524  0.47356     C
C       0.9306  0.66524   0.9306     C
C       0.9306   0.9306  0.47356     C
C       0.9306   0.9306  0.66524     C
H       0.9858   0.4678   0.7732     H
H       0.9858   0.7732   0.4678     H
H       0.9858   0.7732   0.7732     H
O      0.99401  0.11249  0.37205     O
O      0.99401  0.11249  0.52145     O
O      0.99401  0.37205  0.11249     O
O      0.99401  0.37205  0.52145     O
O      0.99401  0.52145  0.11249     O
O      0.99401  0.52145  0.37205     O
