data_I
_chemical_name_common  '/home/zhangsd/repos/MofS-CGCNN/ML/data/TSD/clean_cifs/FAGVUH_clean'
_cell_length_a 18.46500
_cell_length_b  9.36700
_cell_length_c 10.05900
_cell_angle_alpha 90.00000
_cell_angle_beta  90.00000
_cell_angle_gamma 90.00000
_space_group_name_H-M_alt      'P 1'


loop_
_space_group_symop_operation_xyz
  'x, y, z' 

loop_
_atom_site_label
_atom_site_fract_x
_atom_site_fract_y
_atom_site_fract_z
_atom_site_type_symbol
O       0.0051   0.1193   0.7965     O
O       0.0051   0.3807   0.2965     O
Ru     0.01524  0.05878  0.09411    Ru
Ru     0.01524  0.44122  0.59411    Ru
C       0.0289   0.2329   0.8568     C
C       0.0289   0.2671   0.3568     C
O       0.0359   0.2354   0.9843     O
O       0.0359   0.2646   0.4843     O
O       0.0463   0.1577   0.2915     O
O       0.0463   0.3423   0.7915     O
K       0.0708   0.5025   0.0548     K
K       0.0708   0.9975   0.5548     K
O       0.0884   0.6184   0.3829     O
O       0.0884   0.8816   0.8829     O
O       0.1192    0.502   0.5699     O
O       0.1192    0.998   0.0699     O
C       0.1372   0.5819   0.4714     C
C       0.1372   0.9181   0.9714     C
O       0.2022   0.6214   0.4572     O
O       0.2022   0.8786   0.9572     O
Mg        0.25     0.75   0.3148    Mg
Mg        0.25     0.75   0.8148    Mg
O       0.2978   0.6214   0.9572     O
O       0.2978   0.8786   0.4572     O
C       0.3628   0.5819   0.9714     C
C       0.3628   0.9181   0.4714     C
O       0.3808    0.502   0.0699     O
O       0.3808    0.998   0.5699     O
O       0.4116   0.6184   0.8829     O
O       0.4116   0.8816   0.3829     O
K       0.4292   0.5025   0.5548     K
K       0.4292   0.9975   0.0548     K
O       0.4537   0.1577   0.7915     O
O       0.4537   0.3423   0.2915     O
O       0.4641   0.2354   0.4843     O
O       0.4641   0.2646   0.9843     O
C       0.4711   0.2329   0.3568     C
C       0.4711   0.2671   0.8568     C
Ru     0.48476  0.05878  0.59411    Ru
Ru     0.48476  0.44122  0.09411    Ru
O       0.4949   0.1193   0.2965     O
O       0.4949   0.3807   0.7965     O
O       0.5051   0.6193   0.2035     O
O       0.5051   0.8807   0.7035     O
Ru     0.51524  0.55878  0.90589    Ru
Ru     0.51524  0.94122  0.40589    Ru
C       0.5289   0.7329   0.1432     C
C       0.5289   0.7671   0.6432     C
O       0.5359   0.7354   0.0157     O
O       0.5359   0.7646   0.5157     O
O       0.5463   0.6577   0.7085     O
O       0.5463   0.8423   0.2085     O
K       0.5708   0.0025   0.9452     K
K       0.5708   0.4975   0.4452     K
O       0.5884   0.1184   0.6171     O
O       0.5884   0.3816   0.1171     O
O       0.6192    0.002   0.4301     O
O       0.6192    0.498   0.9301     O
C       0.6372   0.0819   0.5286     C
C       0.6372   0.4181   0.0286     C
O       0.7022   0.1214   0.5428     O
O       0.7022   0.3786   0.0428     O
Mg        0.75     0.25   0.1852    Mg
Mg        0.75     0.25   0.6852    Mg
O       0.7978   0.1214   0.0428     O
O       0.7978   0.3786   0.5428     O
C       0.8628   0.0819   0.0286     C
C       0.8628   0.4181   0.5286     C
O       0.8808    0.002   0.9301     O
O       0.8808    0.498   0.4301     O
O       0.9116   0.1184   0.1171     O
O       0.9116   0.3816   0.6171     O
K       0.9292   0.0025   0.4452     K
K       0.9292   0.4975   0.9452     K
O       0.9537   0.6577   0.2085     O
O       0.9537   0.8423   0.7085     O
O       0.9641   0.7354   0.5157     O
O       0.9641   0.7646   0.0157     O
C       0.9711   0.7329   0.6432     C
C       0.9711   0.7671   0.1432     C
Ru     0.98476  0.55878  0.40589    Ru
Ru     0.98476  0.94122  0.90589    Ru
O       0.9949   0.6193   0.7035     O
O       0.9949   0.8807   0.2035     O
