data_I
_chemical_name_common  '/home/zhangsd/repos/MofS-CGCNN/ML/data/TSD/clean_cifs/FAGXOD_clean'
_cell_length_a 16.71530
_cell_length_b  8.45580
_cell_length_c 35.49430
_cell_angle_alpha 90.00000
_cell_angle_beta  90.00000
_cell_angle_gamma 90.00000
_space_group_name_H-M_alt      'P 1'


loop_
_space_group_symop_operation_xyz
  'x, y, z' 

loop_
_atom_site_label
_atom_site_fract_x
_atom_site_fract_y
_atom_site_fract_z
_atom_site_type_symbol
O      0.01691   0.1024  0.03527     O
O      0.01691   0.8976  0.53527     O
Zn     0.02197  0.11268  0.94979    Zn
Zn     0.02197  0.88732  0.44979    Zn
H       0.0684   0.1244   0.2211     H
H       0.0684   0.8756   0.7211     H
O      0.07012   0.2314   0.5687     O
O      0.07012   0.7686   0.0687     O
O      0.07822   0.0313  0.90544     O
O      0.07822   0.9687  0.40544     O
C       0.0832   0.1494  0.02282     C
C       0.0832   0.8506  0.52282     C
H       0.0845   0.1767    0.157     H
H       0.0845   0.8233    0.657     H
H       0.0905    0.125   0.3452     H
H       0.0905    0.875   0.8452     H
H       0.0911   0.0993   0.0952     H
H       0.0911   0.9007   0.5952     H
O      0.09506   0.1867  0.98882     O
O      0.09506   0.8133  0.48882     O
H       0.1119   0.1801   0.2831     H
H       0.1119   0.8199   0.7831     H
C      0.11323   0.0508  0.33148     C
C      0.11323   0.9492  0.83148     C
C      0.11372   0.1393  0.88617     C
C      0.11372   0.8607  0.38617     C
C      0.11651   0.0917  0.20961     C
C      0.11651   0.9083  0.70961     C
O      0.12499    0.183  0.51297     O
O      0.12499    0.817  0.01297     O
C      0.12594   0.1284  0.17185     C
C      0.12594   0.8716  0.67185     C
O      0.12617   0.2725  0.89761     O
O      0.12617   0.7275  0.39761     O
C      0.12724   0.0836  0.29362     C
C      0.12724   0.9164  0.79362     C
C      0.12951     0.23  0.54569     C
C      0.12951     0.77  0.04569     C
C      0.13667   0.0927  0.84656     C
C      0.13667   0.9073  0.34656     C
C      0.14159   0.1268  0.08757     C
C      0.14159   0.8732  0.58757     C
C      0.15145   0.1655  0.04964     C
C      0.15145   0.8345  0.54964     C
C      0.16476   0.0259  0.77011     C
C      0.16476   0.9741  0.27011     C
H       0.1742   0.3119   0.6144     H
H       0.1742   0.6881   0.1144     H
C      0.17584    0.011  0.22954     C
C      0.17584    0.989  0.72954     C
C       0.1761   0.2013  0.82366     C
C       0.1761   0.7987  0.32366     C
C       0.1899   0.1677  0.78587     C
C       0.1899   0.8323  0.28587     C
H       0.1903   0.3017   0.8332     H
H       0.1903   0.6983   0.3332     H
C      0.19555   0.0855  0.15255     C
C      0.19555   0.9145  0.65255     C
H       0.1958   0.4618   0.1596     H
H       0.1958   0.5382   0.6596     H
C      0.20611   0.1293  0.11218     C
C      0.20611   0.8707  0.61218     C
C      0.20866   0.2839  0.56079     C
C      0.20866   0.7161  0.06079     C
H        0.212   0.4166   0.2235     H
H        0.212   0.5834   0.7235     H
H        0.215   0.2482   0.7712     H
H        0.215   0.7518   0.2712     H
C        0.219   0.3264  0.59843     C
C        0.219   0.6736  0.09843     C
C      0.22626   0.2119  0.03648     C
C      0.22626   0.7881  0.53648     C
H        0.233    0.237   0.0111     H
H        0.233    0.763   0.5111     H
C      0.24445   0.0351  0.70997     C
C      0.24445   0.9649  0.20997     C
C      0.24588   0.4971  0.67212     C
C      0.24588   0.5029  0.17212     C
C      0.25412   0.0029  0.17212     C
C      0.25412   0.9971  0.67212     C
C      0.25555   0.4649  0.20997     C
C      0.25555   0.5351  0.70997     C
H        0.267    0.263   0.5111     H
H        0.267    0.737   0.0111     H
C      0.27374   0.2881  0.53648     C
C      0.27374   0.7119  0.03648     C
C        0.281   0.1736  0.09843     C
C        0.281   0.8264  0.59843     C
H        0.285   0.2518   0.2712     H
H        0.285   0.7482   0.7712     H
H        0.288   0.0834   0.7235     H
H        0.288   0.9166   0.2235     H
C      0.29134   0.2161  0.06079     C
C      0.29134   0.7839  0.56079     C
C      0.29389   0.3707  0.61218     C
C      0.29389   0.6293  0.11218     C
H       0.3042   0.0382   0.6596     H
H       0.3042   0.9618   0.1596     H
C      0.30445   0.4145  0.65255     C
C      0.30445   0.5855  0.15255     C
H       0.3097   0.1983   0.3332     H
H       0.3097   0.8017   0.8332     H
C       0.3101   0.3323  0.28587     C
C       0.3101   0.6677  0.78587     C
C       0.3239   0.2987  0.32366     C
C       0.3239   0.7013  0.82366     C
C      0.32416    0.489  0.72954     C
C      0.32416    0.511  0.22954     C
H       0.3258   0.1881   0.1144     H
H       0.3258   0.8119   0.6144     H
C      0.33524   0.4741  0.27011     C
C      0.33524   0.5259  0.77011     C
C      0.34855   0.3345  0.54964     C
C      0.34855   0.6655  0.04964     C
C      0.35841   0.3732  0.58757     C
C      0.35841   0.6268  0.08757     C
C      0.36333   0.4073  0.34656     C
C      0.36333   0.5927  0.84656     C
C      0.37049     0.27  0.04569     C
C      0.37049     0.73  0.54569     C
C      0.37276   0.4164  0.79362     C
C      0.37276   0.5836  0.29362     C
O      0.37383   0.2275  0.39761     O
O      0.37383   0.7725  0.89761     O
C      0.37406   0.3716  0.67185     C
C      0.37406   0.6284  0.17185     C
O      0.37501    0.317  0.01297     O
O      0.37501    0.683  0.51297     O
C      0.38349   0.4083  0.70961     C
C      0.38349   0.5917  0.20961     C
C      0.38628   0.3607  0.38617     C
C      0.38628   0.6393  0.88617     C
C      0.38677   0.4492  0.83148     C
C      0.38677   0.5508  0.33148     C
H       0.3881   0.3199   0.7831     H
H       0.3881   0.6801   0.2831     H
O      0.40494   0.3133  0.48882     O
O      0.40494   0.6867  0.98882     O
H       0.4089   0.4007   0.5952     H
H       0.4089   0.5993   0.0952     H
H       0.4095    0.375   0.8452     H
H       0.4095    0.625   0.3452     H
H       0.4155   0.3233    0.657     H
H       0.4155   0.6767    0.157     H
C       0.4168   0.3506  0.52282     C
C       0.4168   0.6494  0.02282     C
O      0.42178   0.4687  0.40544     O
O      0.42178   0.5313  0.90544     O
O      0.42988   0.2686   0.0687     O
O      0.42988   0.7314   0.5687     O
H       0.4316   0.3756   0.7211     H
H       0.4316   0.6244   0.2211     H
Zn     0.47803  0.38732  0.44979    Zn
Zn     0.47803  0.61268  0.94979    Zn
O      0.48309   0.3976  0.53527     O
O      0.48309   0.6024  0.03527     O
O      0.51691   0.3976  0.96473     O
O      0.51691   0.6024  0.46473     O
Zn     0.52197  0.38732  0.05022    Zn
Zn     0.52197  0.61268  0.55021    Zn
H       0.5684   0.3756   0.7789     H
H       0.5684   0.6244   0.2789     H
O      0.57012   0.2686   0.4313     O
O      0.57012   0.7314   0.9313     O
O      0.57822   0.4687  0.09456     O
O      0.57822   0.5313  0.59456     O
C       0.5832   0.3506  0.97718     C
C       0.5832   0.6494  0.47718     C
H       0.5845   0.3233    0.843     H
H       0.5845   0.6767    0.343     H
H       0.5905    0.375   0.6548     H
H       0.5905    0.625   0.1548     H
H       0.5911   0.4007   0.9048     H
H       0.5911   0.5993   0.4048     H
O      0.59506   0.3133  0.01118     O
O      0.59506   0.6867  0.51118     O
H       0.6119   0.3199   0.7169     H
H       0.6119   0.6801   0.2169     H
C      0.61323   0.4492  0.66852     C
C      0.61323   0.5508  0.16852     C
C      0.61372   0.3607  0.11383     C
C      0.61372   0.6393  0.61383     C
C      0.61651   0.4083  0.79039     C
C      0.61651   0.5917  0.29039     C
O      0.62499    0.317  0.48703     O
O      0.62499    0.683  0.98703     O
C      0.62594   0.3716  0.82815     C
C      0.62594   0.6284  0.32815     C
O      0.62617   0.2275  0.10239     O
O      0.62617   0.7725  0.60239     O
C      0.62724   0.4164  0.70638     C
C      0.62724   0.5836  0.20638     C
C      0.62951     0.27  0.45431     C
C      0.62951     0.73  0.95431     C
C      0.63667   0.4073  0.15344     C
C      0.63667   0.5927  0.65344     C
C      0.64159   0.3732  0.91243     C
C      0.64159   0.6268  0.41243     C
C      0.65145   0.3345  0.95036     C
C      0.65145   0.6655  0.45036     C
C      0.66476   0.4741  0.22989     C
C      0.66476   0.5259  0.72989     C
H       0.6742   0.1881   0.3856     H
H       0.6742   0.8119   0.8856     H
C      0.67584    0.489  0.77046     C
C      0.67584    0.511  0.27046     C
C       0.6761   0.2987  0.17634     C
C       0.6761   0.7013  0.67634     C
C       0.6899   0.3323  0.21413     C
C       0.6899   0.6677  0.71413     C
H       0.6903   0.1983   0.1668     H
H       0.6903   0.8017   0.6668     H
C      0.69555   0.4145  0.84745     C
C      0.69555   0.5855  0.34745     C
H       0.6958   0.0382   0.8404     H
H       0.6958   0.9618   0.3404     H
C      0.70611   0.3707  0.88782     C
C      0.70611   0.6293  0.38782     C
C      0.70866   0.2161  0.43921     C
C      0.70866   0.7839  0.93921     C
H        0.712   0.0834   0.7765     H
H        0.712   0.9166   0.2765     H
H        0.715   0.2518   0.2288     H
H        0.715   0.7482   0.7288     H
C        0.719   0.1736  0.40157     C
C        0.719   0.8264  0.90157     C
C      0.72626   0.2881  0.96352     C
C      0.72626   0.7119  0.46352     C
H        0.733    0.263   0.9889     H
H        0.733    0.737   0.4889     H
C      0.74445   0.4649  0.29003     C
C      0.74445   0.5351  0.79003     C
C      0.74588   0.0029  0.32788     C
C      0.74588   0.9971  0.82788     C
C      0.75412   0.4971  0.82788     C
C      0.75412   0.5029  0.32788     C
C      0.75555   0.0351  0.79003     C
C      0.75555   0.9649  0.29003     C
H        0.767    0.237   0.4889     H
H        0.767    0.763   0.9889     H
C      0.77374   0.2119  0.46352     C
C      0.77374   0.7881  0.96352     C
C        0.781   0.3264  0.90157     C
C        0.781   0.6736  0.40157     C
H        0.785   0.2482   0.7288     H
H        0.785   0.7518   0.2288     H
H        0.788   0.4166   0.2765     H
H        0.788   0.5834   0.7765     H
C      0.79134   0.2839  0.93921     C
C      0.79134   0.7161  0.43921     C
C      0.79389   0.1293  0.38782     C
C      0.79389   0.8707  0.88782     C
H       0.8042   0.4618   0.3404     H
H       0.8042   0.5382   0.8404     H
C      0.80445   0.0855  0.34745     C
C      0.80445   0.9145  0.84745     C
H       0.8097   0.3017   0.6668     H
H       0.8097   0.6983   0.1668     H
C       0.8101   0.1677  0.71413     C
C       0.8101   0.8323  0.21413     C
C       0.8239   0.2013  0.67634     C
C       0.8239   0.7987  0.17634     C
C      0.82416    0.011  0.27046     C
C      0.82416    0.989  0.77046     C
H       0.8258   0.3119   0.8856     H
H       0.8258   0.6881   0.3856     H
C      0.83524   0.0259  0.72989     C
C      0.83524   0.9741  0.22989     C
C      0.84855   0.1655  0.45036     C
C      0.84855   0.8345  0.95036     C
C      0.85841   0.1268  0.41243     C
C      0.85841   0.8732  0.91243     C
C      0.86333   0.0927  0.65344     C
C      0.86333   0.9073  0.15344     C
C      0.87049     0.23  0.95431     C
C      0.87049     0.77  0.45431     C
C      0.87276   0.0836  0.20638     C
C      0.87276   0.9164  0.70638     C
O      0.87383   0.2725  0.60239     O
O      0.87383   0.7275  0.10239     O
C      0.87406   0.1284  0.32815     C
C      0.87406   0.8716  0.82815     C
O      0.87501    0.183  0.98703     O
O      0.87501    0.817  0.48703     O
C      0.88349   0.0917  0.29039     C
C      0.88349   0.9083  0.79039     C
C      0.88628   0.1393  0.61383     C
C      0.88628   0.8607  0.11383     C
C      0.88677   0.0508  0.16852     C
C      0.88677   0.9492  0.66852     C
H       0.8881   0.1801   0.2169     H
H       0.8881   0.8199   0.7169     H
O      0.90494   0.1867  0.51118     O
O      0.90494   0.8133  0.01118     O
H       0.9089   0.0993   0.4048     H
H       0.9089   0.9007   0.9048     H
H       0.9095    0.125   0.1548     H
H       0.9095    0.875   0.6548     H
H       0.9155   0.1767    0.343     H
H       0.9155   0.8233    0.843     H
C       0.9168   0.1494  0.47718     C
C       0.9168   0.8506  0.97718     C
O      0.92178   0.0313  0.59456     O
O      0.92178   0.9687  0.09456     O
O      0.92988   0.2314   0.9313     O
O      0.92988   0.7686   0.4313     O
H       0.9316   0.1244   0.2789     H
H       0.9316   0.8756   0.7789     H
Zn     0.97803  0.11268  0.55021    Zn
Zn     0.97803  0.88732  0.05022    Zn
O      0.98309   0.1024  0.46473     O
O      0.98309   0.8976  0.96473     O
