data_I
_chemical_name_common  '/home/zhangsd/repos/MofS-CGCNN/ML/data/TSD/clean_cifs/FAKGOP_clean'
_cell_length_a 13.34640
_cell_length_b 13.89450
_cell_length_c 14.56500
_cell_angle_alpha 90.00000
_cell_angle_beta  114.55300
_cell_angle_gamma 90.00000
_space_group_name_H-M_alt      'P 1'


loop_
_space_group_symop_operation_xyz
  'x, y, z' 

loop_
_atom_site_label
_atom_site_fract_x
_atom_site_fract_y
_atom_site_fract_z
_atom_site_type_symbol
O      0.00069  0.17322   0.1321     O
C       0.0076   0.2423   0.6845     C
Ni      0.0233  0.09877  0.26308    Ni
H       0.0259    0.816    0.352     H
O      0.02617  0.80635  0.66446     O
C        0.031   0.2317   0.7938     C
H       0.0355   0.7661   0.5016     H
H       0.0372   0.7663   0.1974     H
H       0.0423   0.2121   0.9742     H
O      0.06609  0.67792  0.35431     O
H        0.067   0.1706   0.8194     H
H       0.0754   0.2539   0.6769     H
C       0.0843   0.7146   0.5241     C
C       0.0968   0.2577   0.0061     C
C       0.0974  0.21073    0.172     C
O      0.10117  0.30962   0.8472     O
C       0.1048  0.74647   0.7005     C
C       0.1094   0.6607  0.45679     C
O      0.11359  0.98206  0.78784     O
O      0.11408  0.01922   0.3955     O
O      0.12226  0.98406  0.25405     O
C       0.1335   0.6907  0.62693     C
C        0.137   0.3146   0.9502     C
C       0.1391  0.26998  0.11051     C
C       0.1547   0.9697  0.34715     C
O      0.15567  0.19417  0.26324     O
O      0.15734  0.72904   0.7921     O
Ni     0.15827  0.76583  0.92509    Ni
C        0.181   0.5838   0.4899     C
C       0.1944  0.97432   0.8726     C
H       0.1971    0.548   0.4439     H
C       0.2065   0.6147   0.6608     C
C       0.2173   0.3832   0.9972     C
O      0.21731  0.90234   0.9294     O
C       0.2205   0.3382  0.15797     C
C       0.2291   0.5596   0.5917     C
H       0.2404   0.6004   0.7293     H
C       0.2408  0.89502  0.39846     C
H       0.2432   0.4215   0.9593     H
H        0.249   0.3457   0.2277     H
H        0.251   0.8457   0.2723     H
H       0.2568   0.9215   0.5407     H
C       0.2592  0.39502  0.10154     C
H       0.2596   0.1004   0.7707     H
C       0.2709   0.0596   0.9083     C
C       0.2795   0.8382  0.34203     C
O      0.28269  0.40234   0.5706     O
C       0.2827   0.8832   0.5028     C
C       0.2935   0.1147   0.8392     C
H       0.3029    0.048   0.0561     H
C       0.3056  0.47432   0.6274     C
C        0.319   0.0838   0.0101     C
Ni     0.34173  0.26583  0.57491    Ni
O      0.34266  0.22904   0.7079     O
O      0.34433  0.69417  0.23676     O
C       0.3453   0.4697  0.15285     C
C       0.3609  0.76998  0.38949     C
C        0.363   0.8146   0.5498     C
C       0.3665   0.1907  0.87307     C
O      0.37774  0.48406  0.24595     O
O      0.38592  0.51922   0.1045     O
O      0.38641  0.48206  0.71216     O
C       0.3906   0.1607  0.04321     C
C       0.3952  0.24647   0.7995     C
O      0.39883  0.80962   0.6528     O
C       0.4026  0.71073    0.328     C
C       0.4032   0.7577   0.4939     C
C       0.4157   0.2146   0.9759     C
H       0.4246   0.7539   0.8231     H
H        0.433   0.6706   0.6806     H
O      0.43391  0.17792  0.14569     O
H       0.4577   0.7121   0.5258     H
H       0.4628   0.2663   0.3026     H
H       0.4645   0.2661   0.9984     H
C        0.469   0.7317   0.7062     C
O      0.47383  0.30635  0.83554     O
H       0.4741    0.316    0.148     H
Ni      0.4767  0.59877  0.23692    Ni
C       0.4924   0.7423   0.8155     C
O      0.49931  0.67322   0.3679     O
O      0.50069  0.32678   0.6321     O
C       0.5076   0.2577   0.1845     C
Ni      0.5233  0.40123  0.76308    Ni
H       0.5259    0.684    0.852     H
O      0.52617  0.69365  0.16446     O
C        0.531   0.2683   0.2938     C
H       0.5355   0.7339   0.0016     H
H       0.5372   0.7337   0.6974     H
H       0.5423   0.2879   0.4742     H
O      0.56609  0.82208  0.85431     O
H        0.567   0.3294   0.3194     H
H       0.5754   0.2461   0.1769     H
C       0.5843   0.7854   0.0241     C
C       0.5968   0.2423   0.5061     C
C       0.5974  0.28927    0.672     C
O      0.60117  0.19038   0.3472     O
C       0.6048  0.75353   0.2005     C
C       0.6094   0.8393  0.95679     C
O      0.61359  0.51794  0.28784     O
O      0.61408  0.48078   0.8955     O
O      0.62226  0.51594  0.75405     O
C       0.6335   0.8093  0.12693     C
C        0.637   0.1854   0.4502     C
C       0.6391  0.23002  0.61051     C
C       0.6547   0.5303  0.84715     C
O      0.65567  0.30583  0.76324     O
O      0.65734  0.77096   0.2921     O
Ni     0.65827  0.73417  0.42509    Ni
C        0.681   0.9162   0.9899     C
C       0.6944  0.52568   0.3726     C
H       0.6971    0.952   0.9439     H
C       0.7065   0.8853   0.1608     C
C       0.7173   0.1168   0.4972     C
O      0.71731  0.59766   0.4294     O
C       0.7205   0.1618  0.65797     C
C       0.7291   0.9404   0.0917     C
H       0.7404   0.8996   0.2293     H
C       0.7408  0.60498  0.89846     C
H       0.7432   0.0785   0.4593     H
H        0.749   0.1543   0.7277     H
H        0.751   0.6543   0.7723     H
H       0.7568   0.5785   0.0407     H
C       0.7592  0.10498  0.60154     C
H       0.7596   0.3996   0.2707     H
C       0.7709   0.4404   0.4083     C
C       0.7795   0.6618  0.84203     C
O      0.78269  0.09766   0.0706     O
C       0.7827   0.6168   0.0028     C
C       0.7935   0.3853   0.3392     C
H       0.8029    0.452   0.5561     H
C       0.8056  0.02568   0.1274     C
C        0.819   0.4162   0.5101     C
Ni     0.84173  0.23417  0.07491    Ni
O      0.84266  0.27096   0.2079     O
O      0.84433  0.80583  0.73676     O
C       0.8453   0.0303  0.65285     C
C       0.8609  0.73002  0.88949     C
C        0.863   0.6854   0.0498     C
C       0.8665   0.3093  0.37307     C
O      0.87774  0.01594  0.74595     O
O      0.88592  0.98078   0.6045     O
O      0.88641  0.01794  0.21216     O
C       0.8906   0.3393  0.54321     C
C       0.8952  0.25353   0.2995     C
O      0.89883  0.69038   0.1528     O
C       0.9026  0.78927    0.828     C
C       0.9032   0.7423   0.9939     C
C       0.9157   0.2854   0.4759     C
H       0.9246   0.7461   0.3231     H
H        0.933   0.8294   0.1806     H
O      0.93391  0.32208  0.64569     O
H       0.9577   0.7879   0.0258     H
H       0.9628   0.2337   0.8026     H
H       0.9645   0.2339   0.4984     H
C        0.969   0.7683   0.2062     C
O      0.97383  0.19365  0.33554     O
H       0.9741    0.184    0.648     H
Ni      0.9767  0.90123  0.73692    Ni
C       0.9924   0.7577   0.3155     C
O      0.99931  0.82678   0.8679     O
