data_I
_chemical_name_common  '/home/zhangsd/repos/MofS-CGCNN/ML/data/TSD/clean_cifs/FALZOI_clean'
_cell_length_a 16.74440
_cell_length_b 16.74440
_cell_length_c 16.74440
_cell_angle_alpha 90.00000
_cell_angle_beta  90.00000
_cell_angle_gamma 90.00000
_space_group_name_H-M_alt      'P 1'


loop_
_space_group_symop_operation_xyz
  'x, y, z' 

loop_
_atom_site_label
_atom_site_fract_x
_atom_site_fract_y
_atom_site_fract_z
_atom_site_type_symbol
Al         0.0      0.0      0.5    Al
Na         0.0     0.25      0.5    Na
Al         0.0      0.5      0.0    Al
Na         0.0      0.5     0.25    Na
Al         0.0      0.5      0.5    Al
Na         0.0      0.5     0.75    Na
Na         0.0     0.75      0.5    Na
O      0.02261  0.30557   0.5918     O
O      0.02261   0.4082  0.69443     O
O      0.02261   0.5918  0.30557     O
O      0.02261  0.69443   0.4082     O
O      0.05728  0.05728   0.4367     O
O      0.05728   0.4367  0.05728     O
O      0.05728   0.5633  0.94272     O
O      0.05728  0.94272   0.5633     O
O       0.0633  0.44272  0.55728     O
O       0.0633  0.55728  0.44272     O
P      0.06872  0.37831  0.62169     P
P      0.06872  0.62169  0.37831     P
O       0.0918  0.19443  0.47739     O
O       0.0918  0.47739  0.19443     O
O       0.0918  0.52261  0.80557     O
O       0.0918  0.80557  0.52261     O
P      0.12169  0.12169  0.43128     P
P      0.12169  0.43128  0.12169     P
P      0.12169  0.56872  0.87831     P
P      0.12169  0.87831  0.56872     P
O      0.13925  0.13925   0.3448     O
O      0.13925   0.3448  0.13925     O
O      0.13925   0.6552  0.86075     O
O      0.13925  0.86075   0.6552     O
O       0.1552  0.36075  0.63925     O
O       0.1552  0.63925  0.36075     O
O      0.19443   0.0918  0.47739     O
O      0.19443  0.47739   0.0918     O
O      0.19443  0.52261   0.9082     O
O      0.19443   0.9082  0.52261     O
Na        0.25      0.0      0.5    Na
Na        0.25      0.5      0.0    Na
O      0.30557  0.02261   0.5918     O
O      0.30557   0.4082  0.97739     O
O      0.30557   0.5918  0.02261     O
O      0.30557  0.97739   0.4082     O
O       0.3448  0.13925  0.13925     O
O       0.3448  0.86075  0.86075     O
O      0.36075   0.1552  0.63925     O
O      0.36075  0.36075   0.8448     O
O      0.36075  0.63925   0.1552     O
O      0.36075   0.8448  0.36075     O
P      0.37831  0.06872  0.62169     P
P      0.37831  0.37831  0.93128     P
P      0.37831  0.62169  0.06872     P
P      0.37831  0.93128  0.37831     P
O       0.4082  0.02261  0.69443     O
O       0.4082  0.30557  0.97739     O
O       0.4082  0.69443  0.02261     O
O       0.4082  0.97739  0.30557     O
P      0.43128  0.12169  0.12169     P
P      0.43128  0.87831  0.87831     P
O       0.4367  0.05728  0.05728     O
O       0.4367  0.94272  0.94272     O
O      0.44272   0.0633  0.55728     O
O      0.44272  0.44272   0.9367     O
O      0.44272  0.55728   0.0633     O
O      0.44272   0.9367  0.44272     O
O      0.47739   0.0918  0.19443     O
O      0.47739  0.19443   0.0918     O
O      0.47739  0.80557   0.9082     O
O      0.47739   0.9082  0.80557     O
Al         0.5      0.0      0.0    Al
Na         0.5      0.0     0.25    Na
Al         0.5      0.0      0.5    Al
Na         0.5      0.0     0.75    Na
Na         0.5     0.25      0.0    Na
Al         0.5      0.5      0.0    Al
Na         0.5     0.75      0.0    Na
O      0.52261   0.0918  0.80557     O
O      0.52261  0.19443   0.9082     O
O      0.52261  0.80557   0.0918     O
O      0.52261   0.9082  0.19443     O
O      0.55728   0.0633  0.44272     O
O      0.55728  0.44272   0.0633     O
O      0.55728  0.55728   0.9367     O
O      0.55728   0.9367  0.55728     O
O       0.5633  0.05728  0.94272     O
O       0.5633  0.94272  0.05728     O
P      0.56872  0.12169  0.87831     P
P      0.56872  0.87831  0.12169     P
O       0.5918  0.02261  0.30557     O
O       0.5918  0.30557  0.02261     O
O       0.5918  0.69443  0.97739     O
O       0.5918  0.97739  0.69443     O
P      0.62169  0.06872  0.37831     P
P      0.62169  0.37831  0.06872     P
P      0.62169  0.62169  0.93128     P
P      0.62169  0.93128  0.62169     P
O      0.63925   0.1552  0.36075     O
O      0.63925  0.36075   0.1552     O
O      0.63925  0.63925   0.8448     O
O      0.63925   0.8448  0.63925     O
O       0.6552  0.13925  0.86075     O
O       0.6552  0.86075  0.13925     O
O      0.69443  0.02261   0.4082     O
O      0.69443   0.4082  0.02261     O
O      0.69443   0.5918  0.97739     O
O      0.69443  0.97739   0.5918     O
Na        0.75      0.0      0.5    Na
Na        0.75      0.5      0.0    Na
O      0.80557   0.0918  0.52261     O
O      0.80557  0.47739   0.9082     O
O      0.80557  0.52261   0.0918     O
O      0.80557   0.9082  0.47739     O
O       0.8448  0.36075  0.36075     O
O       0.8448  0.63925  0.63925     O
O      0.86075  0.13925   0.6552     O
O      0.86075   0.3448  0.86075     O
O      0.86075   0.6552  0.13925     O
O      0.86075  0.86075   0.3448     O
P      0.87831  0.12169  0.56872     P
P      0.87831  0.43128  0.87831     P
P      0.87831  0.56872  0.12169     P
P      0.87831  0.87831  0.43128     P
O       0.9082  0.19443  0.52261     O
O       0.9082  0.47739  0.80557     O
O       0.9082  0.52261  0.19443     O
O       0.9082  0.80557  0.47739     O
P      0.93128  0.37831  0.37831     P
P      0.93128  0.62169  0.62169     P
O       0.9367  0.44272  0.44272     O
O       0.9367  0.55728  0.55728     O
O      0.94272  0.05728   0.5633     O
O      0.94272   0.4367  0.94272     O
O      0.94272   0.5633  0.05728     O
O      0.94272  0.94272   0.4367     O
O      0.97739  0.30557   0.4082     O
O      0.97739   0.4082  0.30557     O
O      0.97739   0.5918  0.69443     O
O      0.97739  0.69443   0.5918     O
