data_I
_chemical_name_common  '/home/zhangsd/repos/MofS-CGCNN/ML/data/TSD/clean_cifs/FAMHAE01_clean'
_cell_length_a 12.26400
_cell_length_b 12.26400
_cell_length_c  5.25350
_cell_angle_alpha 90.00000
_cell_angle_beta  90.00000
_cell_angle_gamma 90.00000
_space_group_name_H-M_alt      'P 1'


loop_
_space_group_symop_operation_xyz
  'x, y, z' 

loop_
_atom_site_label
_atom_site_fract_x
_atom_site_fract_y
_atom_site_fract_z
_atom_site_type_symbol
C        0.003   0.3962   0.0164     C
C       0.0244   0.3302   0.2529     C
H       0.0415   0.6721   0.8585     H
S      0.06093  0.19272   0.1529     S
O       0.0698   0.4677    0.946     O
O       0.0818   0.6279   0.3974     O
H       0.0909   0.3957   0.5267     H
N       0.1159   0.3736   0.4019     N
H       0.1166   0.1617   0.5711     H
H        0.127   0.7898   0.1311     H
C       0.1545   0.1812   0.4156     C
H       0.1617   0.8834   0.3211     H
Co     0.17871   0.5153  0.21753    Co
C       0.1812   0.8455   0.1656     C
S      0.19272  0.93907   0.9029     S
C       0.2035   0.2936    0.435     C
H       0.2102    0.127   0.3811     H
H       0.2341   0.3024   0.6061     H
O       0.2434   0.6326   0.9708     O
O       0.2927   0.3988    0.114     O
C       0.2931   0.3139   0.2428     C
C       0.2936   0.7965    0.185     C
H       0.3024   0.7659   0.3561     H
C       0.3139   0.7069   0.9928     C
H       0.3279   0.0415   0.1085     H
C       0.3302   0.9756   0.0029     C
O       0.3674   0.2434   0.2208     O
O       0.3721   0.0818   0.6474     O
N       0.3736   0.8841   0.1519     N
H       0.3957   0.9091   0.2767     H
C       0.3962    0.997   0.7664     C
O       0.3988   0.7073    0.864     O
O       0.4677   0.9302    0.696     O
Co      0.4847  0.17871  0.46753    Co
Co      0.5153  0.82129  0.96753    Co
O       0.5323   0.0698    0.196     O
O       0.6012   0.2927    0.364     O
C       0.6038    0.003   0.2664     C
H       0.6043   0.0909   0.7767     H
N       0.6264   0.1159   0.6519     N
O       0.6279   0.9182   0.1474     O
O       0.6326   0.7566   0.7208     O
C       0.6698   0.0244   0.5029     C
H       0.6721   0.9585   0.6085     H
C       0.6861   0.2931   0.4928     C
H       0.6976   0.2341   0.8561     H
C       0.7064   0.2035    0.685     C
C       0.7069   0.6861   0.7428     C
O       0.7073   0.6012    0.614     O
O       0.7566   0.3674   0.4708     O
H       0.7659   0.6976   0.1061     H
H       0.7898    0.873   0.8811     H
C       0.7965   0.7064    0.935     C
S      0.80728  0.06093   0.4029     S
C       0.8188   0.1545   0.6656     C
Co     0.82129   0.4847  0.71753    Co
H       0.8383   0.1166   0.8211     H
C       0.8455   0.8188   0.9156     C
H        0.873   0.2102   0.6311     H
H       0.8834   0.8383   0.0711     H
N       0.8841   0.6264   0.9019     N
H       0.9091   0.6043   0.0267     H
O       0.9182   0.3721   0.8974     O
O       0.9302   0.5323    0.446     O
S      0.93907  0.80728   0.6529     S
H       0.9585   0.3279   0.3585     H
C       0.9756   0.6698   0.7529     C
C        0.997   0.6038   0.5164     C
