data_I
_chemical_name_common  '/home/zhangsd/repos/MofS-CGCNN/ML/data/TSD/clean_cifs/FAMQES_clean'
_cell_length_a 18.68410
_cell_length_b 18.68410
_cell_length_c 34.67960
_cell_angle_alpha 90.00000
_cell_angle_beta  90.00000
_cell_angle_gamma 90.00000
_space_group_name_H-M_alt      'P 1'


loop_
_space_group_symop_operation_xyz
  'x, y, z' 

loop_
_atom_site_label
_atom_site_fract_x
_atom_site_fract_y
_atom_site_fract_z
_atom_site_type_symbol
H       0.0117   0.6383   0.0935     H
H       0.0117   0.6383   0.9065     H
C       0.0128   0.4619      0.0     C
H       0.0198    0.448   0.0577     H
H       0.0198    0.448   0.9423     H
H       0.0214   0.2473   0.2396     H
H       0.0214   0.2473   0.7604     H
C        0.023   0.2641  0.21442     C
C        0.023   0.2641  0.78558     C
N        0.024   0.3351  0.09972     N
N        0.024   0.3351  0.90028     N
C       0.0262   0.3118   0.1384     C
C       0.0262   0.3118   0.8616     C
C       0.0284   0.4253  0.03432     C
C       0.0284   0.4253  0.96568     C
C        0.038   0.6906  0.15841     C
C        0.038   0.6906  0.84159     C
C       0.0381   0.4872      0.5     C
C       0.0399   0.7131  0.19583     C
C       0.0399   0.7131  0.80417     C
H        0.052   0.4802   0.4423     H
H        0.052   0.4802   0.5577     H
C       0.0557   0.3575  0.03445     C
C       0.0557   0.3575  0.96555     C
C       0.0704   0.3209  0.07152     C
C       0.0704   0.3209  0.92848     C
C       0.0726   0.3246      0.0     C
C       0.0747   0.4716  0.46568     C
C       0.0747   0.4716  0.53432     C
H       0.0802   0.6768   0.1462     H
H       0.0802   0.6768   0.8538     H
C       0.0876   0.2671  0.19459     C
C       0.0876   0.2671  0.80541     C
C       0.0891   0.2912   0.1565     C
C       0.0891   0.2912   0.8435     C
H       0.0954   0.2804      0.0     H
O      0.10937   0.7507    0.249     O
O      0.10937   0.7507    0.751     O
C       0.1106   0.7173  0.21685     C
C       0.1106   0.7173  0.78315     C
O       0.1221   0.2808  0.07506     O
O       0.1221   0.2808  0.92494     O
H       0.1324   0.2934   0.1433     H
H       0.1324   0.2934   0.8567     H
H       0.1383   0.5117   0.4065     H
H       0.1383   0.5117   0.5935     H
C       0.1425   0.4443  0.46555     C
C       0.1425   0.4443  0.53445     C
O       0.1538   0.2225  0.24758     O
O       0.1538   0.2225  0.75242     O
C       0.1556   0.2507  0.21443     C
C       0.1556   0.2507  0.78557     C
O        0.163   0.6872  0.20199     O
O        0.163   0.6872  0.79801     O
N       0.1649    0.476  0.40028     N
N       0.1649    0.476  0.59972     N
C       0.1754   0.4274      0.5     C
H       0.1768   0.5802   0.3538     H
H       0.1768   0.5802   0.6462     H
C       0.1791   0.4296  0.42848     C
C       0.1791   0.4296  0.57152     C
O       0.1872    0.663  0.29801     O
O       0.1872    0.663  0.70199     O
C       0.1882   0.4738   0.3616     C
C       0.1882   0.4738   0.6384     C
C       0.1906    0.538  0.34159     C
C       0.1906    0.538  0.65841     C
Cu     0.19531  0.76199  0.27884    Cu
Cu     0.19531  0.76199  0.72116    Cu
H       0.2066   0.3676   0.3567     H
H       0.2066   0.3676   0.6433     H
C       0.2088   0.4109   0.3435     C
C       0.2088   0.4109   0.6565     C
O       0.2124   0.2672  0.19641     O
O       0.2124   0.2672  0.80359     O
C       0.2131   0.5399  0.30417     C
C       0.2131   0.5399  0.69583     C
C       0.2173   0.6106  0.28315     C
C       0.2173   0.6106  0.71685     C
O       0.2192   0.3779  0.42494     O
O       0.2192   0.3779  0.57506     O
H       0.2196   0.4046      0.5     H
O       0.2225   0.8462  0.24758     O
O       0.2225   0.8462  0.75242     O
O       0.2328   0.2876  0.30359     O
O       0.2328   0.2876  0.69641     O
C       0.2329   0.4124  0.30541     C
C       0.2329   0.4124  0.69459     C
C       0.2359    0.477  0.28558     C
C       0.2359    0.477  0.71442     C
Cu     0.23801  0.19531  0.27884    Cu
Cu     0.23801  0.19531  0.72116    Cu
H       0.2473   0.9786   0.2396     H
H       0.2473   0.9786   0.7604     H
O       0.2493  0.10937    0.249     O
O       0.2493  0.10937    0.751     O
C       0.2493   0.3444  0.28557     C
C       0.2493   0.3444  0.71443     C
O       0.2507  0.60937    0.251     O
O       0.2507  0.60937    0.749     O
C       0.2507   0.8444  0.21443     C
C       0.2507   0.8444  0.78557     C
H       0.2527   0.4786   0.2604     H
H       0.2527   0.4786   0.7396     H
Cu     0.26199  0.69531  0.22116    Cu
Cu     0.26199  0.69531  0.77884    Cu
C       0.2641    0.977  0.21442     C
C       0.2641    0.977  0.78558     C
C       0.2671   0.9124  0.19459     C
C       0.2671   0.9124  0.80541     C
O       0.2672   0.7876  0.19641     O
O       0.2672   0.7876  0.80359     O
O       0.2775   0.3462  0.25242     O
O       0.2775   0.3462  0.74758     O
H       0.2804   0.9046      0.0     H
O       0.2808   0.8779  0.07506     O
O       0.2808   0.8779  0.92494     O
C       0.2827   0.1106  0.21685     C
C       0.2827   0.1106  0.78315     C
C       0.2869   0.0399  0.19583     C
C       0.2869   0.0399  0.80417     C
O       0.2876   0.7672  0.30359     O
O       0.2876   0.7672  0.69641     O
C       0.2912   0.9109   0.1565     C
C       0.2912   0.9109   0.8435     C
H       0.2934   0.8676   0.1433     H
H       0.2934   0.8676   0.8567     H
Cu     0.30469  0.26199  0.22116    Cu
Cu     0.30469  0.26199  0.77884    Cu
C       0.3094    0.038  0.15841     C
C       0.3094    0.038  0.84159     C
C       0.3118   0.9738   0.1384     C
C       0.3118   0.9738   0.8616     C
O       0.3128    0.163  0.20199     O
O       0.3128    0.163  0.79801     O
C       0.3209   0.9296  0.07152     C
C       0.3209   0.9296  0.92848     C
H       0.3232   0.0802   0.1462     H
H       0.3232   0.0802   0.8538     H
C       0.3246   0.9274      0.0     C
N       0.3351    0.976  0.09972     N
N       0.3351    0.976  0.90028     N
O        0.337   0.1872  0.29801     O
O        0.337   0.1872  0.70199     O
C       0.3444   0.7507  0.28557     C
C       0.3444   0.7507  0.71443     C
O       0.3462   0.7225  0.25242     O
O       0.3462   0.7225  0.74758     O
C       0.3575   0.9443  0.03445     C
C       0.3575   0.9443  0.96555     C
H       0.3617   0.0117   0.0935     H
H       0.3617   0.0117   0.9065     H
H       0.3676   0.7934   0.3567     H
H       0.3676   0.7934   0.6433     H
O       0.3779   0.7808  0.42494     O
O       0.3779   0.7808  0.57506     O
C       0.3894   0.2173  0.28315     C
C       0.3894   0.2173  0.71685     C
O      0.39063   0.2507    0.251     O
O      0.39063   0.2507    0.749     O
H       0.4046   0.7804      0.5     H
C       0.4109   0.7912   0.3435     C
C       0.4109   0.7912   0.6565     C
C       0.4124   0.7671  0.30541     C
C       0.4124   0.7671  0.69459     C
H       0.4198   0.1768   0.3538     H
H       0.4198   0.1768   0.6462     H
C       0.4253   0.9716  0.03432     C
C       0.4253   0.9716  0.96568     C
C       0.4274   0.8246      0.5     C
C       0.4296   0.8209  0.42848     C
C       0.4296   0.8209  0.57152     C
C       0.4443   0.8575  0.46555     C
C       0.4443   0.8575  0.53445     C
H        0.448   0.9802   0.0577     H
H        0.448   0.9802   0.9423     H
C       0.4601   0.2131  0.30417     C
C       0.4601   0.2131  0.69583     C
C       0.4619   0.9872      0.0     C
C        0.462   0.1906  0.34159     C
C        0.462   0.1906  0.65841     C
C       0.4716   0.9253  0.46568     C
C       0.4716   0.9253  0.53432     C
C       0.4738   0.8118   0.3616     C
C       0.4738   0.8118   0.6384     C
N        0.476   0.8351  0.40028     N
N        0.476   0.8351  0.59972     N
C        0.477   0.7641  0.28558     C
C        0.477   0.7641  0.71442     C
H       0.4786   0.7473   0.2604     H
H       0.4786   0.7473   0.7396     H
H       0.4802    0.948   0.4423     H
H       0.4802    0.948   0.5577     H
C       0.4872   0.9619      0.5     C
H       0.4883   0.1383   0.4065     H
H       0.4883   0.1383   0.5935     H
H       0.5117   0.8617   0.4065     H
H       0.5117   0.8617   0.5935     H
C       0.5128   0.0381      0.5     C
H       0.5198    0.052   0.4423     H
H       0.5198    0.052   0.5577     H
H       0.5214   0.2527   0.2604     H
H       0.5214   0.2527   0.7396     H
C        0.523   0.2359  0.28558     C
C        0.523   0.2359  0.71442     C
N        0.524   0.1649  0.40028     N
N        0.524   0.1649  0.59972     N
C       0.5262   0.1882   0.3616     C
C       0.5262   0.1882   0.6384     C
C       0.5284   0.0747  0.46568     C
C       0.5284   0.0747  0.53432     C
C        0.538   0.8094  0.34159     C
C        0.538   0.8094  0.65841     C
C       0.5381   0.0128      0.0     C
C       0.5399   0.7869  0.30417     C
C       0.5399   0.7869  0.69583     C
H        0.552   0.0198   0.0577     H
H        0.552   0.0198   0.9423     H
C       0.5557   0.1425  0.46555     C
C       0.5557   0.1425  0.53445     C
C       0.5704   0.1791  0.42848     C
C       0.5704   0.1791  0.57152     C
C       0.5726   0.1754      0.5     C
C       0.5747   0.0284  0.03432     C
C       0.5747   0.0284  0.96568     C
H       0.5802   0.8232   0.3538     H
H       0.5802   0.8232   0.6462     H
C       0.5876   0.2329  0.30541     C
C       0.5876   0.2329  0.69459     C
C       0.5891   0.2088   0.3435     C
C       0.5891   0.2088   0.6565     C
H       0.5954   0.2196      0.5     H
O      0.60937   0.7493    0.251     O
O      0.60937   0.7493    0.749     O
C       0.6106   0.7827  0.28315     C
C       0.6106   0.7827  0.71685     C
O       0.6221   0.2192  0.42494     O
O       0.6221   0.2192  0.57506     O
H       0.6324   0.2066   0.3567     H
H       0.6324   0.2066   0.6433     H
H       0.6383   0.9883   0.0935     H
H       0.6383   0.9883   0.9065     H
C       0.6425   0.0557  0.03445     C
C       0.6425   0.0557  0.96555     C
O       0.6538   0.2775  0.25242     O
O       0.6538   0.2775  0.74758     O
C       0.6556   0.2493  0.28557     C
C       0.6556   0.2493  0.71443     C
O        0.663   0.8128  0.29801     O
O        0.663   0.8128  0.70199     O
N       0.6649    0.024  0.09972     N
N       0.6649    0.024  0.90028     N
C       0.6754   0.0726      0.0     C
H       0.6768   0.9198   0.1462     H
H       0.6768   0.9198   0.8538     H
C       0.6791   0.0704  0.07152     C
C       0.6791   0.0704  0.92848     C
O       0.6872    0.837  0.20199     O
O       0.6872    0.837  0.79801     O
C       0.6882   0.0262   0.1384     C
C       0.6882   0.0262   0.8616     C
C       0.6906    0.962  0.15841     C
C       0.6906    0.962  0.84159     C
Cu     0.69531  0.73801  0.22116    Cu
Cu     0.69531  0.73801  0.77884    Cu
H       0.7066   0.1324   0.1433     H
H       0.7066   0.1324   0.8567     H
C       0.7088   0.0891   0.1565     C
C       0.7088   0.0891   0.8435     C
O       0.7124   0.2328  0.30359     O
O       0.7124   0.2328  0.69641     O
C       0.7131   0.9601  0.19583     C
C       0.7131   0.9601  0.80417     C
C       0.7173   0.8894  0.21685     C
C       0.7173   0.8894  0.78315     C
O       0.7192   0.1221  0.07506     O
O       0.7192   0.1221  0.92494     O
H       0.7196   0.0954      0.0     H
O       0.7225   0.6538  0.25242     O
O       0.7225   0.6538  0.74758     O
O       0.7328   0.2124  0.19641     O
O       0.7328   0.2124  0.80359     O
C       0.7329   0.0876  0.19459     C
C       0.7329   0.0876  0.80541     C
C       0.7359    0.023  0.21442     C
C       0.7359    0.023  0.78558     C
Cu     0.73801  0.30469  0.22116    Cu
Cu     0.73801  0.30469  0.77884    Cu
H       0.7473   0.5214   0.2604     H
H       0.7473   0.5214   0.7396     H
C       0.7493   0.1556  0.21443     C
C       0.7493   0.1556  0.78557     C
O       0.7493  0.39063    0.251     O
O       0.7493  0.39063    0.749     O
C       0.7507   0.6556  0.28557     C
C       0.7507   0.6556  0.71443     C
O       0.7507  0.89063    0.249     O
O       0.7507  0.89063    0.751     O
H       0.7527   0.0214   0.2396     H
H       0.7527   0.0214   0.7604     H
Cu     0.76199  0.80469  0.27884    Cu
Cu     0.76199  0.80469  0.72116    Cu
C       0.7641    0.523  0.28558     C
C       0.7641    0.523  0.71442     C
C       0.7671   0.5876  0.30541     C
C       0.7671   0.5876  0.69459     C
O       0.7672   0.7124  0.30359     O
O       0.7672   0.7124  0.69641     O
O       0.7775   0.1538  0.24758     O
O       0.7775   0.1538  0.75242     O
H       0.7804   0.5954      0.5     H
O       0.7808   0.6221  0.42494     O
O       0.7808   0.6221  0.57506     O
C       0.7827   0.3894  0.28315     C
C       0.7827   0.3894  0.71685     C
C       0.7869   0.4601  0.30417     C
C       0.7869   0.4601  0.69583     C
O       0.7876   0.7328  0.19641     O
O       0.7876   0.7328  0.80359     O
C       0.7912   0.5891   0.3435     C
C       0.7912   0.5891   0.6565     C
H       0.7934   0.6324   0.3567     H
H       0.7934   0.6324   0.6433     H
Cu     0.80469  0.23801  0.27884    Cu
Cu     0.80469  0.23801  0.72116    Cu
C       0.8094    0.462  0.34159     C
C       0.8094    0.462  0.65841     C
C       0.8118   0.5262   0.3616     C
C       0.8118   0.5262   0.6384     C
O       0.8128    0.337  0.29801     O
O       0.8128    0.337  0.70199     O
C       0.8209   0.5704  0.42848     C
C       0.8209   0.5704  0.57152     C
H       0.8232   0.4198   0.3538     H
H       0.8232   0.4198   0.6462     H
C       0.8246   0.5726      0.5     C
N       0.8351    0.524  0.40028     N
N       0.8351    0.524  0.59972     N
O        0.837   0.3128  0.20199     O
O        0.837   0.3128  0.79801     O
C       0.8444   0.7493  0.21443     C
C       0.8444   0.7493  0.78557     C
O       0.8462   0.7775  0.24758     O
O       0.8462   0.7775  0.75242     O
C       0.8575   0.5557  0.46555     C
C       0.8575   0.5557  0.53445     C
H       0.8617   0.4883   0.4065     H
H       0.8617   0.4883   0.5935     H
H       0.8676   0.7066   0.1433     H
H       0.8676   0.7066   0.8567     H
O       0.8779   0.7192  0.07506     O
O       0.8779   0.7192  0.92494     O
C       0.8894   0.2827  0.21685     C
C       0.8894   0.2827  0.78315     C
O      0.89063   0.2493    0.249     O
O      0.89063   0.2493    0.751     O
H       0.9046   0.7196      0.0     H
C       0.9109   0.7088   0.1565     C
C       0.9109   0.7088   0.8435     C
C       0.9124   0.7329  0.19459     C
C       0.9124   0.7329  0.80541     C
H       0.9198   0.3232   0.1462     H
H       0.9198   0.3232   0.8538     H
C       0.9253   0.5284  0.46568     C
C       0.9253   0.5284  0.53432     C
C       0.9274   0.6754      0.0     C
C       0.9296   0.6791  0.07152     C
C       0.9296   0.6791  0.92848     C
C       0.9443   0.6425  0.03445     C
C       0.9443   0.6425  0.96555     C
H        0.948   0.5198   0.4423     H
H        0.948   0.5198   0.5577     H
C       0.9601   0.2869  0.19583     C
C       0.9601   0.2869  0.80417     C
C       0.9619   0.5128      0.5     C
C        0.962   0.3094  0.15841     C
C        0.962   0.3094  0.84159     C
C       0.9716   0.5747  0.03432     C
C       0.9716   0.5747  0.96568     C
C       0.9738   0.6882   0.1384     C
C       0.9738   0.6882   0.8616     C
N        0.976   0.6649  0.09972     N
N        0.976   0.6649  0.90028     N
C        0.977   0.7359  0.21442     C
C        0.977   0.7359  0.78558     C
H       0.9786   0.7527   0.2396     H
H       0.9786   0.7527   0.7604     H
H       0.9802    0.552   0.0577     H
H       0.9802    0.552   0.9423     H
C       0.9872   0.5381      0.0     C
H       0.9883   0.3617   0.0935     H
H       0.9883   0.3617   0.9065     H
