data_I
_chemical_name_common  '/home/zhangsd/repos/MofS-CGCNN/ML/data/TSD/clean_cifs/FAPXEC_clean'
_cell_length_a 15.16060
_cell_length_b 15.16060
_cell_length_c 12.04740
_cell_angle_alpha 90.00000
_cell_angle_beta  90.00000
_cell_angle_gamma 90.00000
_space_group_name_H-M_alt      'P 1'


loop_
_space_group_symop_operation_xyz
  'x, y, z' 

loop_
_atom_site_label
_atom_site_fract_x
_atom_site_fract_y
_atom_site_fract_z
_atom_site_type_symbol
H          0.0      0.0   0.1181     H
C          0.0      0.0   0.2044     C
C          0.0      0.0   0.4369     C
C          0.0      0.0   0.5631     C
C          0.0      0.0   0.7956     C
H          0.0      0.0   0.8819     H
C          0.0      0.5   0.0456     C
H          0.0      0.5   0.1319     H
H          0.0      0.5   0.3681     H
C          0.0      0.5   0.4544     C
C          0.0      0.5   0.6869     C
C          0.0      0.5   0.8131     C
C      0.04092  0.56876   0.8712     C
C      0.04092  0.56876   0.9875     C
C      0.04092  0.93124   0.2625     C
C      0.04092  0.93124   0.3788     C
C      0.06876  0.54092   0.5125     C
C      0.06876  0.54092   0.6288     C
C      0.06876  0.95908   0.6212     C
C      0.06876  0.95908   0.7375     C
H       0.0713   0.6198   0.8281     H
H       0.0713   0.8802   0.4219     H
C       0.0882   0.6368   0.0476     C
C       0.0882   0.8632   0.2024     C
O       0.0968   0.7117    0.003     O
O       0.0968   0.7883    0.247     O
O       0.1187    0.619   0.3578     O
O       0.1187    0.881   0.8922     O
O        0.119   0.6187   0.1422     O
O        0.119   0.8813   0.1078     O
H       0.1198   0.5713   0.6719     H
H       0.1198   0.9287   0.5781     H
C       0.1368   0.5882   0.4524     C
C       0.1368   0.9118   0.7976     C
H       0.1774     0.75    0.625     H
V      0.18671  0.68671     0.25     V
V      0.18671  0.81329      0.0     V
O       0.2117   0.5968    0.497     O
O       0.2117   0.9032    0.753     O
O       0.2486     0.75    0.625     O
H         0.25   0.6774    0.875     H
O         0.25   0.7486    0.875     O
O         0.25   0.7514    0.375     O
H         0.25   0.8226    0.375     H
O       0.2514     0.75    0.125     O
O       0.2883   0.5968    0.253     O
O       0.2883   0.9032    0.997     O
V      0.31329  0.68671      0.5     V
V      0.31329  0.81329     0.75     V
H       0.3226     0.75    0.125     H
C       0.3632   0.5882   0.2976     C
C       0.3632   0.9118   0.9524     C
H       0.3802   0.5713   0.0781     H
H       0.3802   0.9287   0.1719     H
O        0.381   0.6187   0.6078     O
O        0.381   0.8813   0.6422     O
O       0.3813    0.619   0.3922     O
O       0.3813    0.881   0.8578     O
O       0.4032   0.7117    0.747     O
O       0.4032   0.7883    0.503     O
C       0.4118   0.6368   0.7024     C
C       0.4118   0.8632   0.5476     C
H       0.4287   0.6198   0.9219     H
H       0.4287   0.8802   0.3281     H
C      0.43124  0.54092   0.1212     C
C      0.43124  0.54092   0.2375     C
C      0.43124  0.95908   0.0125     C
C      0.43124  0.95908   0.1288     C
C      0.45908  0.56876   0.7625     C
C      0.45908  0.56876   0.8788     C
C      0.45908  0.93124   0.3712     C
C      0.45908  0.93124   0.4875     C
C          0.5      0.0   0.1869     C
C          0.5      0.0   0.3131     C
C          0.5      0.0   0.5456     C
H          0.5      0.0   0.6319     H
H          0.5      0.0   0.8681     H
C          0.5      0.0   0.9544     C
C          0.5      0.5   0.0631     C
C          0.5      0.5   0.2956     C
H          0.5      0.5   0.3819     H
H          0.5      0.5   0.6181     H
C          0.5      0.5   0.7044     C
C          0.5      0.5   0.9369     C
C      0.54092  0.06876   0.3712     C
C      0.54092  0.06876   0.4875     C
C      0.54092  0.43124   0.7625     C
C      0.54092  0.43124   0.8788     C
C      0.56876  0.04092   0.0125     C
C      0.56876  0.04092   0.1288     C
C      0.56876  0.45908   0.1212     C
C      0.56876  0.45908   0.2375     C
H       0.5713   0.1198   0.3281     H
H       0.5713   0.3802   0.9219     H
C       0.5882   0.1368   0.5476     C
C       0.5882   0.3632   0.7024     C
O       0.5968   0.2117    0.503     O
O       0.5968   0.2883    0.747     O
O       0.6187    0.119   0.8578     O
O       0.6187    0.381   0.3922     O
O        0.619   0.1187   0.6422     O
O        0.619   0.3813   0.6078     O
H       0.6198   0.0713   0.1719     H
H       0.6198   0.4287   0.0781     H
C       0.6368   0.0882   0.9524     C
C       0.6368   0.4118   0.2976     C
H       0.6774     0.25    0.125     H
V      0.68671  0.18671     0.75     V
V      0.68671  0.31329      0.5     V
O       0.7117   0.0968    0.997     O
O       0.7117   0.4032    0.253     O
O       0.7486     0.25    0.125     O
H         0.75   0.1774    0.375     H
O         0.75   0.2486    0.375     O
O         0.75   0.2514    0.875     O
H         0.75   0.3226    0.875     H
O       0.7514     0.25    0.625     O
O       0.7883   0.0968    0.753     O
O       0.7883   0.4032    0.497     O
V      0.81329  0.18671      0.0     V
V      0.81329  0.31329     0.25     V
H       0.8226     0.25    0.625     H
C       0.8632   0.0882   0.7976     C
C       0.8632   0.4118   0.4524     C
H       0.8802   0.0713   0.5781     H
H       0.8802   0.4287   0.6719     H
O        0.881   0.1187   0.1078     O
O        0.881   0.3813   0.1422     O
O       0.8813    0.119   0.8922     O
O       0.8813    0.381   0.3578     O
O       0.9032   0.2117    0.247     O
O       0.9032   0.2883    0.003     O
C       0.9118   0.1368   0.2024     C
C       0.9118   0.3632   0.0476     C
H       0.9287   0.1198   0.4219     H
H       0.9287   0.3802   0.8281     H
C      0.93124  0.04092   0.6212     C
C      0.93124  0.04092   0.7375     C
C      0.93124  0.45908   0.5125     C
C      0.93124  0.45908   0.6288     C
C      0.95908  0.06876   0.2625     C
C      0.95908  0.06876   0.3788     C
C      0.95908  0.43124   0.8712     C
C      0.95908  0.43124   0.9875     C
