data_I
_chemical_name_common  '/home/zhangsd/repos/MofS-CGCNN/ML/data/TSD/clean_cifs/FAQLUH_clean'
_cell_length_a 15.16580
_cell_length_b 15.16580
_cell_length_c 12.05680
_cell_angle_alpha 90.00000
_cell_angle_beta  90.00000
_cell_angle_gamma 90.00000
_space_group_name_H-M_alt      'P 1'


loop_
_space_group_symop_operation_xyz
  'x, y, z' 

loop_
_atom_site_label
_atom_site_fract_x
_atom_site_fract_y
_atom_site_fract_z
_atom_site_type_symbol
H          0.0      0.0   0.1177     H
C          0.0      0.0   0.2048     C
C          0.0      0.0   0.4369     C
C          0.0      0.0   0.5631     C
C          0.0      0.0   0.7952     C
H          0.0      0.0   0.8823     H
C          0.0      0.5   0.0452     C
H          0.0      0.5   0.1323     H
H          0.0      0.5   0.3677     H
C          0.0      0.5   0.4548     C
C          0.0      0.5   0.6869     C
C          0.0      0.5   0.8131     C
C      0.04138  0.56835   0.8711     C
C      0.04138  0.56835   0.9872     C
C      0.04138  0.93165   0.2628     C
C      0.04138  0.93165   0.3789     C
C      0.06835  0.54138   0.5128     C
C      0.06835  0.54138   0.6289     C
C      0.06835  0.95862   0.6211     C
C      0.06835  0.95862   0.7372     C
H       0.0724   0.6196   0.8276     H
H       0.0724   0.8804   0.4224     H
C       0.0887   0.6369   0.0476     C
C       0.0887   0.8631   0.2024     C
O       0.0969   0.7115   0.0031     O
O       0.0969   0.7885   0.2469     O
O       0.1186   0.6195   0.3582     O
O       0.1186   0.8805   0.8918     O
O       0.1195   0.6186   0.1418     O
O       0.1195   0.8814   0.1082     O
H       0.1196   0.5724   0.6724     H
H       0.1196   0.9276   0.5776     H
C       0.1369   0.5887   0.4524     C
C       0.1369   0.9113   0.7976     C
H       0.1782     0.75    0.625     H
V        0.198    0.698     0.25     V
V        0.198    0.802      0.0     V
O       0.2115   0.5969   0.4969     O
O       0.2115   0.9031   0.7531     O
O       0.2491     0.75    0.625     O
H         0.25   0.6782    0.875     H
O         0.25   0.7491    0.875     O
O         0.25   0.7509    0.375     O
H         0.25   0.8218    0.375     H
O       0.2509     0.75    0.125     O
O       0.2885   0.5969   0.2531     O
O       0.2885   0.9031   0.9969     O
V        0.302    0.698      0.5     V
V        0.302    0.802     0.75     V
H       0.3218     0.75    0.125     H
C       0.3631   0.5887   0.2976     C
C       0.3631   0.9113   0.9524     C
H       0.3804   0.5724   0.0776     H
H       0.3804   0.9276   0.1724     H
O       0.3805   0.6186   0.6082     O
O       0.3805   0.8814   0.6418     O
O       0.3814   0.6195   0.3918     O
O       0.3814   0.8805   0.8582     O
O       0.4031   0.7115   0.7469     O
O       0.4031   0.7885   0.5031     O
C       0.4113   0.6369   0.7024     C
C       0.4113   0.8631   0.5476     C
H       0.4276   0.6196   0.9224     H
H       0.4276   0.8804   0.3276     H
C      0.43165  0.54138   0.1211     C
C      0.43165  0.54138   0.2372     C
C      0.43165  0.95862   0.0128     C
C      0.43165  0.95862   0.1289     C
C      0.45862  0.56835   0.7628     C
C      0.45862  0.56835   0.8789     C
C      0.45862  0.93165   0.3711     C
C      0.45862  0.93165   0.4872     C
C          0.5      0.0   0.1869     C
C          0.5      0.0   0.3131     C
C          0.5      0.0   0.5452     C
H          0.5      0.0   0.6323     H
H          0.5      0.0   0.8677     H
C          0.5      0.0   0.9548     C
C          0.5      0.5   0.0631     C
C          0.5      0.5   0.2952     C
H          0.5      0.5   0.3823     H
H          0.5      0.5   0.6177     H
C          0.5      0.5   0.7048     C
C          0.5      0.5   0.9369     C
C      0.54138  0.06835   0.3711     C
C      0.54138  0.06835   0.4872     C
C      0.54138  0.43165   0.7628     C
C      0.54138  0.43165   0.8789     C
C      0.56835  0.04138   0.0128     C
C      0.56835  0.04138   0.1289     C
C      0.56835  0.45862   0.1211     C
C      0.56835  0.45862   0.2372     C
H       0.5724   0.1196   0.3276     H
H       0.5724   0.3804   0.9224     H
C       0.5887   0.1369   0.5476     C
C       0.5887   0.3631   0.7024     C
O       0.5969   0.2115   0.5031     O
O       0.5969   0.2885   0.7469     O
O       0.6186   0.1195   0.8582     O
O       0.6186   0.3805   0.3918     O
O       0.6195   0.1186   0.6418     O
O       0.6195   0.3814   0.6082     O
H       0.6196   0.0724   0.1724     H
H       0.6196   0.4276   0.0776     H
C       0.6369   0.0887   0.9524     C
C       0.6369   0.4113   0.2976     C
H       0.6782     0.25    0.125     H
V        0.698    0.198     0.75     V
V        0.698    0.302      0.5     V
O       0.7115   0.0969   0.9969     O
O       0.7115   0.4031   0.2531     O
O       0.7491     0.25    0.125     O
H         0.75   0.1782    0.375     H
O         0.75   0.2491    0.375     O
O         0.75   0.2509    0.875     O
H         0.75   0.3218    0.875     H
O       0.7509     0.25    0.625     O
O       0.7885   0.0969   0.7531     O
O       0.7885   0.4031   0.4969     O
V        0.802    0.198      0.0     V
V        0.802    0.302     0.25     V
H       0.8218     0.25    0.625     H
C       0.8631   0.0887   0.7976     C
C       0.8631   0.4113   0.4524     C
H       0.8804   0.0724   0.5776     H
H       0.8804   0.4276   0.6724     H
O       0.8805   0.1186   0.1082     O
O       0.8805   0.3814   0.1418     O
O       0.8814   0.1195   0.8918     O
O       0.8814   0.3805   0.3582     O
O       0.9031   0.2115   0.2469     O
O       0.9031   0.2885   0.0031     O
C       0.9113   0.1369   0.2024     C
C       0.9113   0.3631   0.0476     C
H       0.9276   0.1196   0.4224     H
H       0.9276   0.3804   0.8276     H
C      0.93165  0.04138   0.6211     C
C      0.93165  0.04138   0.7372     C
C      0.93165  0.45862   0.5128     C
C      0.93165  0.45862   0.6289     C
C      0.95862  0.06835   0.2628     C
C      0.95862  0.06835   0.3789     C
C      0.95862  0.43165   0.8711     C
C      0.95862  0.43165   0.9872     C
