data_I
_chemical_name_common  '/home/zhangsd/repos/MofS-CGCNN/ML/data/TSD/clean_cifs/FARHIR_ion_b'
_cell_length_a 13.51070
_cell_length_b 23.38000
_cell_length_c  5.87270
_cell_angle_alpha 90.00000
_cell_angle_beta  90.00000
_cell_angle_gamma 90.00000
_space_group_name_H-M_alt      'P 1'


loop_
_space_group_symop_operation_xyz
  'x, y, z' 

loop_
_atom_site_label
_atom_site_fract_x
_atom_site_fract_y
_atom_site_fract_z
_atom_site_type_symbol
H       0.0096   0.0721   0.1677     H
H       0.0096   0.4279   0.1677     H
C       0.0106   0.1111   0.4722     C
C       0.0106   0.3889   0.4722     C
H       0.0111   0.6347   0.1998     H
H       0.0111   0.8653   0.1998     H
C       0.0219   0.5734   0.6916     C
C       0.0219   0.9266   0.6916     C
C        0.035   0.6108   0.3138     C
C        0.035   0.8892   0.3138     C
C       0.0935   0.1526   0.4234     C
C       0.0935   0.3474   0.4234     C
C       0.1014   0.5372   0.6488     C
C       0.1014   0.9628   0.6488     C
C       0.1151   0.5756   0.2691     C
C       0.1151   0.9244   0.2691     C
O       0.1189   0.1592   0.2252     O
O       0.1189   0.3408   0.2252     O
H       0.1235   0.5123    0.761     H
H       0.1235   0.9877    0.761     H
O        0.128   0.1791    0.591     O
O        0.128   0.3209    0.591     O
C       0.1465   0.5385    0.442     C
C       0.1465   0.9615    0.442     C
H        0.147   0.5765   0.1288     H
H        0.147   0.9235   0.1288     H
S         0.25  0.00589   0.3873     S
O         0.25   0.0193   0.1464     O
O         0.25   0.0509   0.5537     O
K         0.25  0.12688   0.9082     K
Pb        0.25     0.25  0.33013    Pb
O         0.25     0.25   0.9093     O
K         0.25  0.37312   0.9082     K
O         0.25   0.4491   0.5537     O
O         0.25   0.4807   0.1464     O
S         0.25  0.49411   0.3873     S
H        0.353   0.5765   0.1288     H
H        0.353   0.9235   0.1288     H
C       0.3535   0.5385    0.442     C
C       0.3535   0.9615    0.442     C
O        0.372   0.1791    0.591     O
O        0.372   0.3209    0.591     O
H       0.3765   0.5123    0.761     H
H       0.3765   0.9877    0.761     H
O       0.3811   0.1592   0.2252     O
O       0.3811   0.3408   0.2252     O
C       0.3849   0.5756   0.2691     C
C       0.3849   0.9244   0.2691     C
C       0.3986   0.5372   0.6488     C
C       0.3986   0.9628   0.6488     C
C       0.4065   0.1526   0.4234     C
C       0.4065   0.3474   0.4234     C
C        0.465   0.6108   0.3138     C
C        0.465   0.8892   0.3138     C
C       0.4781   0.5734   0.6916     C
C       0.4781   0.9266   0.6916     C
H       0.4889   0.6347   0.1998     H
H       0.4889   0.8653   0.1998     H
C       0.4894   0.1111   0.4722     C
C       0.4894   0.3889   0.4722     C
H       0.4904   0.0721   0.1677     H
H       0.4904   0.4279   0.1677     H
H       0.5096   0.5721   0.8323     H
H       0.5096   0.9279   0.8323     H
C       0.5106   0.6111   0.5278     C
C       0.5106   0.8889   0.5278     C
H       0.5111   0.1347   0.8002     H
H       0.5111   0.3653   0.8002     H
C       0.5219   0.0734   0.3084     C
C       0.5219   0.4266   0.3084     C
C        0.535   0.1108   0.6862     C
C        0.535   0.3892   0.6862     C
C       0.5935   0.6526   0.5766     C
C       0.5935   0.8474   0.5766     C
C       0.6014   0.0372   0.3512     C
C       0.6014   0.4628   0.3512     C
C       0.6151   0.0756   0.7309     C
C       0.6151   0.4244   0.7309     C
O       0.6189   0.6592   0.7748     O
O       0.6189   0.8408   0.7748     O
H       0.6235   0.0123    0.239     H
H       0.6235   0.4877    0.239     H
O        0.628   0.6791    0.409     O
O        0.628   0.8209    0.409     O
C       0.6465   0.0385    0.558     C
C       0.6465   0.4615    0.558     C
H        0.647   0.0765   0.8712     H
H        0.647   0.4235   0.8712     H
S         0.75  0.50589   0.6127     S
O         0.75   0.5193   0.8536     O
O         0.75   0.5509   0.4463     O
K         0.75  0.62688   0.0918     K
O         0.75     0.75   0.0907     O
Pb        0.75     0.75  0.66987    Pb
K         0.75  0.87312   0.0918     K
O         0.75   0.9491   0.4463     O
O         0.75   0.9807   0.8536     O
S         0.75  0.99411   0.6127     S
H        0.853   0.0765   0.8712     H
H        0.853   0.4235   0.8712     H
C       0.8535   0.0385    0.558     C
C       0.8535   0.4615    0.558     C
O        0.872   0.6791    0.409     O
O        0.872   0.8209    0.409     O
H       0.8765   0.0123    0.239     H
H       0.8765   0.4877    0.239     H
O       0.8811   0.6592   0.7748     O
O       0.8811   0.8408   0.7748     O
C       0.8849   0.0756   0.7309     C
C       0.8849   0.4244   0.7309     C
C       0.8986   0.0372   0.3512     C
C       0.8986   0.4628   0.3512     C
C       0.9065   0.6526   0.5766     C
C       0.9065   0.8474   0.5766     C
C        0.965   0.1108   0.6862     C
C        0.965   0.3892   0.6862     C
C       0.9781   0.0734   0.3084     C
C       0.9781   0.4266   0.3084     C
H       0.9889   0.1347   0.8002     H
H       0.9889   0.3653   0.8002     H
C       0.9894   0.6111   0.5278     C
C       0.9894   0.8889   0.5278     C
H       0.9904   0.5721   0.8323     H
H       0.9904   0.9279   0.8323     H
