data_I
_chemical_name_common  '/home/zhangsd/repos/MofS-CGCNN/ML/data/TSD/clean_cifs/FATQID_clean'
_cell_length_a 31.23600
_cell_length_b 31.23600
_cell_length_c 28.19400
_cell_angle_alpha 90.00000
_cell_angle_beta  90.00000
_cell_angle_gamma 90.00000
_space_group_name_H-M_alt      'P 1'


loop_
_space_group_symop_operation_xyz
  'x, y, z' 

loop_
_atom_site_label
_atom_site_fract_x
_atom_site_fract_y
_atom_site_fract_z
_atom_site_type_symbol
Cu         0.0      0.5  0.20036    Cu
Cu         0.0      0.5  0.29964    Cu
Cu         0.0      0.5  0.70036    Cu
Cu         0.0      0.5  0.79964    Cu
C       0.0037   0.6758   0.2779     C
C       0.0037   0.6758   0.7221     C
H       0.0073   0.2082   0.3262     H
H       0.0073   0.2082   0.6738     H
C       0.0073  0.72031   0.2804     C
C       0.0073  0.72031   0.7196     C
H       0.0107   0.2259   0.2455     H
H       0.0107   0.2259   0.7545     H
C       0.0122   0.2556   0.2446     C
C       0.0122   0.2556   0.7554     C
H       0.0159   0.2032   0.1692     H
H       0.0159   0.2032   0.8308     H
H       0.0164   0.6593   0.3016     H
H       0.0164   0.6593   0.6984     H
C       0.0166   0.7783   0.3389     C
C       0.0166   0.7783   0.6611     C
N      0.01703  0.34408  0.24286     N
N      0.01703  0.34408  0.75714     N
Cu     0.02158  0.40859  0.24561    Cu
Cu     0.02158  0.40859  0.75439    Cu
O      0.02586  0.46813  0.35192     O
O      0.02586  0.46813  0.64808     O
H       0.0289   0.8232   0.3891     H
H       0.0289   0.8232   0.6109     H
C       0.0298   0.7407   0.3207     C
C       0.0298   0.7407   0.6793     C
O      0.02991  0.47009     0.25     O
O      0.02991  0.47009     0.75     O
O      0.03187  0.47414  0.14808     O
O      0.03187  0.47414  0.85192     O
C       0.0342    0.276   0.2074     C
C       0.0342    0.276   0.7926     C
O      0.03438  0.40016  0.31434     O
O      0.03438  0.40016  0.68566     O
C        0.035  0.32044   0.2083     C
C        0.035  0.32044   0.7917     C
C       0.0387   0.7974   0.3769     C
C       0.0387   0.7974   0.6231     C
C       0.0407   0.2138   0.1553     C
C       0.0407   0.2138   0.8447     C
O      0.04106    0.581   0.2208     O
O      0.04106    0.581   0.7792     O
H       0.0487   0.3347   0.1837     H
H       0.0487   0.3347   0.8163     H
H       0.0492   0.1642   0.1084     H
H       0.0492   0.1642   0.8916     H
O       0.0524   0.4065  0.18069     O
O       0.0524   0.4065  0.81931     O
S        0.056  0.43211  0.34416     S
S        0.056  0.43211  0.65584     S
C       0.0567  0.25171   0.1702     C
C       0.0567  0.25171   0.8298     C
C        0.061   0.1898   0.1189     C
C        0.061   0.1898   0.8811     C
C       0.0657   0.7206   0.3409     C
C       0.0657   0.7206   0.6591     C
O      0.06743  0.41386  0.38886     O
O      0.06743  0.41386  0.61114     O
S      0.06789    0.444  0.15584     S
S      0.06789    0.444  0.84416     S
C       0.0739  0.77918    0.396     C
C       0.0739  0.77918    0.604     C
H        0.075   0.6943   0.3293     H
H        0.075   0.6943   0.6707     H
S      0.08055  0.58055     0.25     S
S      0.08055  0.58055     0.75     S
O        0.081  0.54106   0.2792     O
O        0.081  0.54106   0.7208     O
O       0.0814  0.61747   0.2818     O
O       0.0814  0.61747   0.7182     O
O      0.08267  0.83461  0.45027     O
O      0.08267  0.83461  0.54973     O
O      0.08614  0.43257  0.11114     O
O      0.08614  0.43257  0.88886     O
C       0.0871   0.7401   0.3781     C
C       0.0871   0.7401   0.6219     C
Cu     0.09141  0.47842  0.25439    Cu
Cu     0.09141  0.47842  0.74561    Cu
C       0.0933   0.2659   0.1505     C
C       0.0933   0.2659   0.8495     C
O       0.0935   0.4476  0.31931     O
O       0.0935   0.4476  0.68069     O
C       0.0977   0.7997   0.4356     C
C       0.0977   0.7997   0.5644     C
C        0.099   0.2052   0.0993     C
C        0.099   0.2052   0.9007     C
O      0.09984  0.46562  0.18566     O
O      0.09984  0.46562  0.81434     O
O      0.10478  0.14601  0.04909     O
O      0.10478  0.14601  0.95091     O
H        0.105   0.2915   0.1611     H
H        0.105   0.2915   0.8389     H
Cu     0.10974   0.8694      0.5    Cu
H       0.1108   0.7267   0.3913     H
H       0.1108   0.7267   0.6087     H
C        0.114   0.2432    0.115     C
C        0.114   0.2432    0.885     C
O      0.11747   0.5814   0.2182     O
O      0.11747   0.5814   0.7818     O
C       0.1218   0.1802   0.0632     C
C       0.1218   0.1802   0.9368     C
Cu      0.1306  0.10974      0.0    Cu
O      0.13082  0.78204  0.45075     O
O      0.13082  0.78204  0.54925     O
H       0.1389   0.2544   0.1017     H
H       0.1389   0.2544   0.8983     H
O      0.14601  0.89522  0.45091     O
O      0.14601  0.89522  0.54909     O
N      0.15592  0.48297  0.25714     N
N      0.15592  0.48297  0.74286     N
O      0.15695   0.1951  0.04884     O
O      0.15695   0.1951  0.95116     O
H       0.1593   0.5164   0.1984     H
H       0.1593   0.5164   0.8016     H
H       0.1642   0.9508   0.3916     H
H       0.1642   0.9508   0.6084     H
H       0.1653   0.4513   0.3163     H
H       0.1653   0.4513   0.6837     H
O      0.16539  0.08267  0.04973     O
O      0.16539  0.08267  0.95027     O
Cu     0.16698  0.80753      0.5    Cu
C       0.1758   0.5037   0.2221     C
C       0.1758   0.5037   0.7779     C
H       0.1768   0.0289   0.1109     H
H       0.1768   0.0289   0.8891     H
C      0.17956    0.465   0.2917     C
C      0.17956    0.465   0.7083     C
C       0.1802   0.8782   0.4368     C
C       0.1802   0.8782   0.5632     C
C       0.1898    0.939   0.3811     C
C       0.1898    0.939   0.6189     C
Cu     0.19247  0.16698      0.0    Cu
H       0.1943    0.575   0.1707     H
H       0.1943    0.575   0.8293     H
O       0.1951  0.84305  0.45116     O
O       0.1951  0.84305  0.54884     O
C       0.2003   0.0977   0.0644     C
C       0.2003   0.0977   0.9356     C
C       0.2026   0.0387   0.1231     C
C       0.2026   0.0387   0.8769     C
H       0.2032   0.9841   0.3308     H
H       0.2032   0.9841   0.6692     H
C       0.2052    0.901   0.4007     C
C       0.2052    0.901   0.5993     C
H       0.2082   0.9927   0.1738     H
H       0.2082   0.9927   0.8262     H
H       0.2085    0.395   0.3389     H
H       0.2085    0.395   0.6611     H
C       0.2138   0.9593   0.3447     C
C       0.2138   0.9593   0.6553     C
O      0.21796  0.13082  0.04925     O
O      0.21796  0.13082  0.95075     O
C      0.22031   0.5073   0.2196     C
C      0.22031   0.5073   0.7804     C
C       0.2206   0.5657   0.1591     C
C       0.2206   0.5657   0.8409     C
C      0.22082   0.0739    0.104     C
C      0.22082   0.0739    0.896     C
C       0.2217   0.0166   0.1611     C
C       0.2217   0.0166   0.8389     C
C        0.224   0.4658   0.2926     C
C        0.224   0.4658   0.7074     C
H       0.2259   0.9893   0.2545     H
H       0.2259   0.9893   0.7455     H
H       0.2267   0.6108   0.1087     H
H       0.2267   0.6108   0.8913     H
C       0.2341   0.4067   0.3495     C
C       0.2341   0.4067   0.6505     C
C       0.2401   0.5871   0.1219     C
C       0.2401   0.5871   0.8781     C
C       0.2407   0.5298   0.1793     C
C       0.2407   0.5298   0.8207     C
C       0.2432    0.886    0.385     C
C       0.2432    0.886    0.615     C
C       0.2444   0.4878   0.2554     C
C       0.2444   0.4878   0.7446     C
H       0.2456   0.3611   0.3983     H
H       0.2456   0.3611   0.6017     H
C      0.24829   0.4433   0.3298     C
C      0.24829   0.4433   0.6702     C
C      0.25171   0.9433   0.3298     C
C      0.25171   0.9433   0.6702     C
H       0.2544   0.8611   0.3983     H
H       0.2544   0.8611   0.6017     H
C       0.2556   0.9878   0.2554     C
C       0.2556   0.9878   0.7446     C
C       0.2568    0.386    0.385     C
C       0.2568    0.386    0.615     C
C       0.2593   0.0298   0.1793     C
C       0.2593   0.0298   0.8207     C
C       0.2599   0.0871   0.1219     C
C       0.2599   0.0871   0.8781     C
C       0.2659   0.9067   0.3495     C
C       0.2659   0.9067   0.6505     C
H       0.2733   0.1108   0.1087     H
H       0.2733   0.1108   0.8913     H
H       0.2741   0.4893   0.2545     H
H       0.2741   0.4893   0.7455     H
C        0.276   0.9658   0.2926     C
C        0.276   0.9658   0.7074     C
C       0.2783   0.5166   0.1611     C
C       0.2783   0.5166   0.8389     C
C      0.27918   0.5739    0.104     C
C      0.27918   0.5739    0.896     C
C       0.2794   0.0657   0.1591     C
C       0.2794   0.0657   0.8409     C
C      0.27969   0.0073   0.2196     C
C      0.27969   0.0073   0.7804     C
O      0.28204  0.63082  0.04925     O
O      0.28204  0.63082  0.95075     O
C       0.2862   0.4593   0.3447     C
C       0.2862   0.4593   0.6553     C
H       0.2915    0.895   0.3389     H
H       0.2915    0.895   0.6611     H
H       0.2918   0.4927   0.1738     H
H       0.2918   0.4927   0.8262     H
C       0.2948    0.401   0.4007     C
C       0.2948    0.401   0.5993     C
H       0.2968   0.4841   0.3308     H
H       0.2968   0.4841   0.6692     H
C       0.2974   0.5387   0.1231     C
C       0.2974   0.5387   0.8769     C
C       0.2997   0.5977   0.0644     C
C       0.2997   0.5977   0.9356     C
O       0.3049  0.34305  0.45116     O
O       0.3049  0.34305  0.54884     O
H       0.3057    0.075   0.1707     H
H       0.3057    0.075   0.8293     H
Cu     0.30753  0.66698      0.0    Cu
C       0.3102    0.439   0.3811     C
C       0.3102    0.439   0.6189     C
C       0.3198   0.3782   0.4368     C
C       0.3198   0.3782   0.5632     C
C      0.32044    0.965   0.2917     C
C      0.32044    0.965   0.7083     C
H       0.3232   0.5289   0.1109     H
H       0.3232   0.5289   0.8891     H
C       0.3242   0.0037   0.2221     C
C       0.3242   0.0037   0.7779     C
Cu     0.33302  0.30753      0.5    Cu
O      0.33461  0.58267  0.04973     O
O      0.33461  0.58267  0.95027     O
H       0.3347   0.9513   0.3163     H
H       0.3347   0.9513   0.6837     H
H       0.3358   0.4508   0.3916     H
H       0.3358   0.4508   0.6084     H
H       0.3407   0.0164   0.1984     H
H       0.3407   0.0164   0.8016     H
O      0.34305   0.6951  0.04884     O
O      0.34305   0.6951  0.95116     O
N      0.34408  0.98297  0.25714     N
N      0.34408  0.98297  0.74286     N
O      0.35399  0.39522  0.45091     O
O      0.35399  0.39522  0.54909     O
H       0.3611   0.7544   0.1017     H
H       0.3611   0.7544   0.8983     H
O      0.36918  0.28204  0.45075     O
O      0.36918  0.28204  0.54925     O
Cu      0.3694  0.60974      0.0    Cu
C       0.3782   0.6802   0.0632     C
C       0.3782   0.6802   0.9368     C
O      0.38253   0.0814   0.2182     O
O      0.38253   0.0814   0.7818     O
C        0.386   0.7432    0.115     C
C        0.386   0.7432    0.885     C
H       0.3892   0.2267   0.3913     H
H       0.3892   0.2267   0.6087     H
Cu     0.39026   0.3694      0.5    Cu
H        0.395   0.7915   0.1611     H
H        0.395   0.7915   0.8389     H
O      0.39522  0.64601  0.04909     O
O      0.39522  0.64601  0.95091     O
O      0.40016  0.96562  0.18566     O
O      0.40016  0.96562  0.81434     O
C        0.401   0.7052   0.0993     C
C        0.401   0.7052   0.9007     C
C       0.4023   0.2997   0.4356     C
C       0.4023   0.2997   0.5644     C
O       0.4065   0.9476  0.31931     O
O       0.4065   0.9476  0.68069     O
C       0.4067   0.7659   0.1505     C
C       0.4067   0.7659   0.8495     C
Cu     0.40859  0.97842  0.25439    Cu
Cu     0.40859  0.97842  0.74561    Cu
C       0.4129   0.2401   0.3781     C
C       0.4129   0.2401   0.6219     C
O      0.41386  0.93257  0.11114     O
O      0.41386  0.93257  0.88886     O
O      0.41733  0.33461  0.45027     O
O      0.41733  0.33461  0.54973     O
O       0.4186  0.11747   0.2818     O
O       0.4186  0.11747   0.7182     O
O        0.419  0.04106   0.2792     O
O        0.419  0.04106   0.7208     O
S      0.41945  0.08055     0.25     S
S      0.41945  0.08055     0.75     S
H        0.425   0.1943   0.3293     H
H        0.425   0.1943   0.6707     H
C       0.4261  0.27918    0.396     C
C       0.4261  0.27918    0.604     C
S      0.43211    0.944  0.15584     S
S      0.43211    0.944  0.84416     S
O      0.43257  0.91386  0.38886     O
O      0.43257  0.91386  0.61114     O
C       0.4343   0.2206   0.3409     C
C       0.4343   0.2206   0.6591     C
C        0.439   0.6898   0.1189     C
C        0.439   0.6898   0.8811     C
C       0.4433  0.75171   0.1702     C
C       0.4433  0.75171   0.8298     C
S        0.444  0.93211  0.34416     S
S        0.444  0.93211  0.65584     S
O       0.4476   0.9065  0.18069     O
O       0.4476   0.9065  0.81931     O
H       0.4508   0.6642   0.1084     H
H       0.4508   0.6642   0.8916     H
H       0.4513   0.8347   0.1837     H
H       0.4513   0.8347   0.8163     H
O      0.45894    0.081   0.2208     O
O      0.45894    0.081   0.7792     O
C       0.4593   0.7138   0.1553     C
C       0.4593   0.7138   0.8447     C
C       0.4613   0.2974   0.3769     C
C       0.4613   0.2974   0.6231     C
C        0.465  0.82044   0.2083     C
C        0.465  0.82044   0.7917     C
O      0.46562  0.90016  0.31434     O
O      0.46562  0.90016  0.68566     O
C       0.4658    0.776   0.2074     C
C       0.4658    0.776   0.7926     C
O      0.46813  0.97414  0.14808     O
O      0.46813  0.97414  0.85192     O
O      0.47009  0.97009     0.25     O
O      0.47009  0.97009     0.75     O
C       0.4702   0.2407   0.3207     C
C       0.4702   0.2407   0.6793     C
H       0.4711   0.3232   0.3891     H
H       0.4711   0.3232   0.6109     H
O      0.47414  0.96813  0.35192     O
O      0.47414  0.96813  0.64808     O
Cu     0.47842  0.90859  0.24561    Cu
Cu     0.47842  0.90859  0.75439    Cu
N      0.48297  0.84408  0.24286     N
N      0.48297  0.84408  0.75714     N
C       0.4834   0.2783   0.3389     C
C       0.4834   0.2783   0.6611     C
H       0.4836   0.1593   0.3016     H
H       0.4836   0.1593   0.6984     H
H       0.4841   0.7032   0.1692     H
H       0.4841   0.7032   0.8308     H
C       0.4878   0.7556   0.2446     C
C       0.4878   0.7556   0.7554     C
H       0.4893   0.7259   0.2455     H
H       0.4893   0.7259   0.7545     H
C       0.4927  0.22031   0.2804     C
C       0.4927  0.22031   0.7196     C
H       0.4927   0.7082   0.3262     H
H       0.4927   0.7082   0.6738     H
C       0.4963   0.1758   0.2779     C
C       0.4963   0.1758   0.7221     C
Cu         0.5      0.0  0.20036    Cu
Cu         0.5      0.0  0.29964    Cu
Cu         0.5      0.0  0.70036    Cu
Cu         0.5      0.0  0.79964    Cu
C       0.5037   0.8242   0.2779     C
C       0.5037   0.8242   0.7221     C
H       0.5073   0.2918   0.3262     H
H       0.5073   0.2918   0.6738     H
C       0.5073  0.77969   0.2804     C
C       0.5073  0.77969   0.7196     C
H       0.5107   0.2741   0.2455     H
H       0.5107   0.2741   0.7545     H
C       0.5122   0.2444   0.2446     C
C       0.5122   0.2444   0.7554     C
H       0.5159   0.2968   0.1692     H
H       0.5159   0.2968   0.8308     H
H       0.5164   0.8407   0.3016     H
H       0.5164   0.8407   0.6984     H
C       0.5166   0.7217   0.3389     C
C       0.5166   0.7217   0.6611     C
N      0.51703  0.15592  0.24286     N
N      0.51703  0.15592  0.75714     N
Cu     0.52158  0.09141  0.24561    Cu
Cu     0.52158  0.09141  0.75439    Cu
O      0.52586  0.03187  0.35192     O
O      0.52586  0.03187  0.64808     O
H       0.5289   0.6768   0.3891     H
H       0.5289   0.6768   0.6109     H
C       0.5298   0.7593   0.3207     C
C       0.5298   0.7593   0.6793     C
O      0.52991  0.02991     0.25     O
O      0.52991  0.02991     0.75     O
O      0.53187  0.02586  0.14808     O
O      0.53187  0.02586  0.85192     O
C       0.5342    0.224   0.2074     C
C       0.5342    0.224   0.7926     C
O      0.53438  0.09984  0.31434     O
O      0.53438  0.09984  0.68566     O
C        0.535  0.17956   0.2083     C
C        0.535  0.17956   0.7917     C
C       0.5387   0.7026   0.3769     C
C       0.5387   0.7026   0.6231     C
C       0.5407   0.2862   0.1553     C
C       0.5407   0.2862   0.8447     C
O      0.54106    0.919   0.2208     O
O      0.54106    0.919   0.7792     O
H       0.5487   0.1653   0.1837     H
H       0.5487   0.1653   0.8163     H
H       0.5492   0.3358   0.1084     H
H       0.5492   0.3358   0.8916     H
O       0.5524   0.0935  0.18069     O
O       0.5524   0.0935  0.81931     O
S        0.556  0.06789  0.34416     S
S        0.556  0.06789  0.65584     S
C       0.5567  0.24829   0.1702     C
C       0.5567  0.24829   0.8298     C
C        0.561   0.3102   0.1189     C
C        0.561   0.3102   0.8811     C
C       0.5657   0.7794   0.3409     C
C       0.5657   0.7794   0.6591     C
O      0.56743  0.08614  0.38886     O
O      0.56743  0.08614  0.61114     O
S      0.56789    0.056  0.15584     S
S      0.56789    0.056  0.84416     S
C       0.5739  0.72082    0.396     C
C       0.5739  0.72082    0.604     C
H        0.575   0.8057   0.3293     H
H        0.575   0.8057   0.6707     H
S      0.58055  0.91945     0.25     S
S      0.58055  0.91945     0.75     S
O        0.581  0.95894   0.2792     O
O        0.581  0.95894   0.7208     O
O       0.5814  0.88253   0.2818     O
O       0.5814  0.88253   0.7182     O
O      0.58267  0.66539  0.45027     O
O      0.58267  0.66539  0.54973     O
O      0.58614  0.06743  0.11114     O
O      0.58614  0.06743  0.88886     O
C       0.5871   0.7599   0.3781     C
C       0.5871   0.7599   0.6219     C
Cu     0.59141  0.02158  0.25439    Cu
Cu     0.59141  0.02158  0.74561    Cu
C       0.5933   0.2341   0.1505     C
C       0.5933   0.2341   0.8495     C
O       0.5935   0.0524  0.31931     O
O       0.5935   0.0524  0.68069     O
C       0.5977   0.7003   0.4356     C
C       0.5977   0.7003   0.5644     C
C        0.599   0.2948   0.0993     C
C        0.599   0.2948   0.9007     C
O      0.59984  0.03438  0.18566     O
O      0.59984  0.03438  0.81434     O
O      0.60478  0.35399  0.04909     O
O      0.60478  0.35399  0.95091     O
H        0.605   0.2085   0.1611     H
H        0.605   0.2085   0.8389     H
Cu     0.60974   0.6306      0.5    Cu
H       0.6108   0.7733   0.3913     H
H       0.6108   0.7733   0.6087     H
C        0.614   0.2568    0.115     C
C        0.614   0.2568    0.885     C
O      0.61747   0.9186   0.2182     O
O      0.61747   0.9186   0.7818     O
C       0.6218   0.3198   0.0632     C
C       0.6218   0.3198   0.9368     C
Cu      0.6306  0.39026      0.0    Cu
O      0.63082  0.71796  0.45075     O
O      0.63082  0.71796  0.54925     O
H       0.6389   0.2456   0.1017     H
H       0.6389   0.2456   0.8983     H
O      0.64601  0.60478  0.45091     O
O      0.64601  0.60478  0.54909     O
N      0.65592  0.01703  0.25714     N
N      0.65592  0.01703  0.74286     N
O      0.65695   0.3049  0.04884     O
O      0.65695   0.3049  0.95116     O
H       0.6593   0.9836   0.1984     H
H       0.6593   0.9836   0.8016     H
H       0.6642   0.5492   0.3916     H
H       0.6642   0.5492   0.6084     H
H       0.6653   0.0487   0.3163     H
H       0.6653   0.0487   0.6837     H
O      0.66539  0.41733  0.04973     O
O      0.66539  0.41733  0.95027     O
Cu     0.66698  0.69247      0.5    Cu
C       0.6758   0.9963   0.2221     C
C       0.6758   0.9963   0.7779     C
H       0.6768   0.4711   0.1109     H
H       0.6768   0.4711   0.8891     H
C      0.67956    0.035   0.2917     C
C      0.67956    0.035   0.7083     C
C       0.6802   0.6218   0.4368     C
C       0.6802   0.6218   0.5632     C
C       0.6898    0.561   0.3811     C
C       0.6898    0.561   0.6189     C
Cu     0.69247  0.33302      0.0    Cu
H       0.6943    0.925   0.1707     H
H       0.6943    0.925   0.8293     H
O       0.6951  0.65695  0.45116     O
O       0.6951  0.65695  0.54884     O
C       0.7003   0.4023   0.0644     C
C       0.7003   0.4023   0.9356     C
C       0.7026   0.4613   0.1231     C
C       0.7026   0.4613   0.8769     C
H       0.7032   0.5159   0.3308     H
H       0.7032   0.5159   0.6692     H
C       0.7052    0.599   0.4007     C
C       0.7052    0.599   0.5993     C
H       0.7082   0.5073   0.1738     H
H       0.7082   0.5073   0.8262     H
H       0.7085    0.105   0.3389     H
H       0.7085    0.105   0.6611     H
C       0.7138   0.5407   0.3447     C
C       0.7138   0.5407   0.6553     C
O      0.71796  0.36918  0.04925     O
O      0.71796  0.36918  0.95075     O
C      0.72031   0.9927   0.2196     C
C      0.72031   0.9927   0.7804     C
C       0.7206   0.9343   0.1591     C
C       0.7206   0.9343   0.8409     C
C      0.72082   0.4261    0.104     C
C      0.72082   0.4261    0.896     C
C       0.7217   0.4834   0.1611     C
C       0.7217   0.4834   0.8389     C
C        0.724   0.0342   0.2926     C
C        0.724   0.0342   0.7074     C
H       0.7259   0.5107   0.2545     H
H       0.7259   0.5107   0.7455     H
H       0.7267   0.8892   0.1087     H
H       0.7267   0.8892   0.8913     H
C       0.7341   0.0933   0.3495     C
C       0.7341   0.0933   0.6505     C
C       0.7401   0.9129   0.1219     C
C       0.7401   0.9129   0.8781     C
C       0.7407   0.9702   0.1793     C
C       0.7407   0.9702   0.8207     C
C       0.7432    0.614    0.385     C
C       0.7432    0.614    0.615     C
C       0.7444   0.0122   0.2554     C
C       0.7444   0.0122   0.7446     C
H       0.7456   0.1389   0.3983     H
H       0.7456   0.1389   0.6017     H
C      0.74829   0.0567   0.3298     C
C      0.74829   0.0567   0.6702     C
C      0.75171   0.5567   0.3298     C
C      0.75171   0.5567   0.6702     C
H       0.7544   0.6389   0.3983     H
H       0.7544   0.6389   0.6017     H
C       0.7556   0.5122   0.2554     C
C       0.7556   0.5122   0.7446     C
C       0.7568    0.114    0.385     C
C       0.7568    0.114    0.615     C
C       0.7593   0.4702   0.1793     C
C       0.7593   0.4702   0.8207     C
C       0.7599   0.4129   0.1219     C
C       0.7599   0.4129   0.8781     C
C       0.7659   0.5933   0.3495     C
C       0.7659   0.5933   0.6505     C
H       0.7733   0.3892   0.1087     H
H       0.7733   0.3892   0.8913     H
H       0.7741   0.0107   0.2545     H
H       0.7741   0.0107   0.7455     H
C        0.776   0.5342   0.2926     C
C        0.776   0.5342   0.7074     C
C       0.7783   0.9834   0.1611     C
C       0.7783   0.9834   0.8389     C
C      0.77918   0.9261    0.104     C
C      0.77918   0.9261    0.896     C
C       0.7794   0.4343   0.1591     C
C       0.7794   0.4343   0.8409     C
C      0.77969   0.4927   0.2196     C
C      0.77969   0.4927   0.7804     C
O      0.78204  0.86918  0.04925     O
O      0.78204  0.86918  0.95075     O
C       0.7862   0.0407   0.3447     C
C       0.7862   0.0407   0.6553     C
H       0.7915    0.605   0.3389     H
H       0.7915    0.605   0.6611     H
H       0.7918   0.0073   0.1738     H
H       0.7918   0.0073   0.8262     H
C       0.7948    0.099   0.4007     C
C       0.7948    0.099   0.5993     C
H       0.7968   0.0159   0.3308     H
H       0.7968   0.0159   0.6692     H
C       0.7974   0.9613   0.1231     C
C       0.7974   0.9613   0.8769     C
C       0.7997   0.9023   0.0644     C
C       0.7997   0.9023   0.9356     C
O       0.8049  0.15695  0.45116     O
O       0.8049  0.15695  0.54884     O
H       0.8057    0.425   0.1707     H
H       0.8057    0.425   0.8293     H
Cu     0.80753  0.83302      0.0    Cu
C       0.8102    0.061   0.3811     C
C       0.8102    0.061   0.6189     C
C       0.8198   0.1218   0.4368     C
C       0.8198   0.1218   0.5632     C
C      0.82044    0.535   0.2917     C
C      0.82044    0.535   0.7083     C
H       0.8232   0.9711   0.1109     H
H       0.8232   0.9711   0.8891     H
C       0.8242   0.4963   0.2221     C
C       0.8242   0.4963   0.7779     C
Cu     0.83302  0.19247      0.5    Cu
O      0.83461  0.91733  0.04973     O
O      0.83461  0.91733  0.95027     O
H       0.8347   0.5487   0.3163     H
H       0.8347   0.5487   0.6837     H
H       0.8358   0.0492   0.3916     H
H       0.8358   0.0492   0.6084     H
H       0.8407   0.4836   0.1984     H
H       0.8407   0.4836   0.8016     H
O      0.84305   0.8049  0.04884     O
O      0.84305   0.8049  0.95116     O
N      0.84408  0.51703  0.25714     N
N      0.84408  0.51703  0.74286     N
O      0.85399  0.10478  0.45091     O
O      0.85399  0.10478  0.54909     O
H       0.8611   0.7456   0.1017     H
H       0.8611   0.7456   0.8983     H
O      0.86918  0.21796  0.45075     O
O      0.86918  0.21796  0.54925     O
Cu      0.8694  0.89026      0.0    Cu
C       0.8782   0.8198   0.0632     C
C       0.8782   0.8198   0.9368     C
O      0.88253   0.4186   0.2182     O
O      0.88253   0.4186   0.7818     O
C        0.886   0.7568    0.115     C
C        0.886   0.7568    0.885     C
H       0.8892   0.2733   0.3913     H
H       0.8892   0.2733   0.6087     H
Cu     0.89026   0.1306      0.5    Cu
H        0.895   0.7085   0.1611     H
H        0.895   0.7085   0.8389     H
O      0.89522  0.85399  0.04909     O
O      0.89522  0.85399  0.95091     O
O      0.90016  0.53438  0.18566     O
O      0.90016  0.53438  0.81434     O
C        0.901   0.7948   0.0993     C
C        0.901   0.7948   0.9007     C
C       0.9023   0.2003   0.4356     C
C       0.9023   0.2003   0.5644     C
O       0.9065   0.5524  0.31931     O
O       0.9065   0.5524  0.68069     O
C       0.9067   0.7341   0.1505     C
C       0.9067   0.7341   0.8495     C
Cu     0.90859  0.52158  0.25439    Cu
Cu     0.90859  0.52158  0.74561    Cu
C       0.9129   0.2599   0.3781     C
C       0.9129   0.2599   0.6219     C
O      0.91386  0.56743  0.11114     O
O      0.91386  0.56743  0.88886     O
O      0.91733  0.16539  0.45027     O
O      0.91733  0.16539  0.54973     O
O       0.9186  0.38253   0.2818     O
O       0.9186  0.38253   0.7182     O
O        0.919  0.45894   0.2792     O
O        0.919  0.45894   0.7208     O
S      0.91945  0.41945     0.25     S
S      0.91945  0.41945     0.75     S
H        0.925   0.3057   0.3293     H
H        0.925   0.3057   0.6707     H
C       0.9261  0.22082    0.396     C
C       0.9261  0.22082    0.604     C
S      0.93211    0.556  0.15584     S
S      0.93211    0.556  0.84416     S
O      0.93257  0.58614  0.38886     O
O      0.93257  0.58614  0.61114     O
C       0.9343   0.2794   0.3409     C
C       0.9343   0.2794   0.6591     C
C        0.939   0.8102   0.1189     C
C        0.939   0.8102   0.8811     C
C       0.9433  0.74829   0.1702     C
C       0.9433  0.74829   0.8298     C
S        0.944  0.56789  0.34416     S
S        0.944  0.56789  0.65584     S
O       0.9476   0.5935  0.18069     O
O       0.9476   0.5935  0.81931     O
H       0.9508   0.8358   0.1084     H
H       0.9508   0.8358   0.8916     H
H       0.9513   0.6653   0.1837     H
H       0.9513   0.6653   0.8163     H
O      0.95894    0.419   0.2208     O
O      0.95894    0.419   0.7792     O
C       0.9593   0.7862   0.1553     C
C       0.9593   0.7862   0.8447     C
C       0.9613   0.2026   0.3769     C
C       0.9613   0.2026   0.6231     C
C        0.965  0.67956   0.2083     C
C        0.965  0.67956   0.7917     C
O      0.96562  0.59984  0.31434     O
O      0.96562  0.59984  0.68566     O
C       0.9658    0.724   0.2074     C
C       0.9658    0.724   0.7926     C
O      0.96813  0.52586  0.14808     O
O      0.96813  0.52586  0.85192     O
O      0.97009  0.52991     0.25     O
O      0.97009  0.52991     0.75     O
C       0.9702   0.2593   0.3207     C
C       0.9702   0.2593   0.6793     C
H       0.9711   0.1768   0.3891     H
H       0.9711   0.1768   0.6109     H
O      0.97414  0.53187  0.35192     O
O      0.97414  0.53187  0.64808     O
Cu     0.97842  0.59141  0.24561    Cu
Cu     0.97842  0.59141  0.75439    Cu
N      0.98297  0.65592  0.24286     N
N      0.98297  0.65592  0.75714     N
C       0.9834   0.2217   0.3389     C
C       0.9834   0.2217   0.6611     C
H       0.9836   0.3407   0.3016     H
H       0.9836   0.3407   0.6984     H
H       0.9841   0.7968   0.1692     H
H       0.9841   0.7968   0.8308     H
C       0.9878   0.7444   0.2446     C
C       0.9878   0.7444   0.7554     C
H       0.9893   0.7741   0.2455     H
H       0.9893   0.7741   0.7545     H
C       0.9927  0.27969   0.2804     C
C       0.9927  0.27969   0.7196     C
H       0.9927   0.7918   0.3262     H
H       0.9927   0.7918   0.6738     H
C       0.9963   0.3242   0.2779     C
C       0.9963   0.3242   0.7221     C
