data_I
_chemical_name_common  '/home/zhangsd/repos/MofS-CGCNN/ML/data/TSD/clean_cifs/FAVGAN_clean'
_cell_length_a 12.84140
_cell_length_b 24.10860
_cell_length_c 12.34880
_cell_angle_alpha 90.00000
_cell_angle_beta  90.00000
_cell_angle_gamma 90.00000
_space_group_name_H-M_alt      'P 1'


loop_
_space_group_symop_operation_xyz
  'x, y, z' 

loop_
_atom_site_label
_atom_site_fract_x
_atom_site_fract_y
_atom_site_fract_z
_atom_site_type_symbol
H          0.0      0.0   0.1021     H
C          0.0      0.0   0.1774     C
C          0.0      0.0   0.4044     C
C          0.0      0.0   0.5257     C
H          0.0      0.5   0.3038     H
C          0.0      0.5   0.3791     C
C          0.0      0.5   0.6032     C
C          0.0      0.5   0.7264     C
C        0.004   0.3332   0.2453     C
H       0.0056   0.1834   0.0936     H
C       0.0104   0.3949   0.2743     C
H       0.0121   0.6707   0.1697     H
C       0.0125   0.4526   0.4376     C
C       0.0128     0.45   0.5472     C
H        0.015   0.0889   0.0484     H
O       0.0196   0.3993   0.3911     O
H       0.0212   0.4165   0.5836     H
C       0.0263   0.9518   0.2361     C
C       0.0276   0.9528   0.3496     C
O       0.0416   0.9606   0.5722     O
H       0.0427   0.8268   0.9788     H
O       0.0463   0.4607   0.7721     O
H       0.0471   0.9212   0.3879     H
H       0.0496   0.6842   0.2876     H
C       0.0505   0.8958    0.076     C
C       0.0508   0.8335   0.0549     C
O        0.052   0.9025   0.1906     O
H       0.0531   0.5862   0.2502     H
O       0.0533   0.0857   0.7687     O
O       0.0681   0.6207   0.9351     O
H       0.0696   0.3157   0.2602     H
O       0.0879   0.4413   0.1292     O
O       0.0979   0.5325   0.9595     O
Nd     0.10178   0.4318   0.9454    Nd
C       0.1054   0.4217   0.2205     C
H       0.1156    0.818   0.0791     H
Nd     0.12488  0.91769  0.72519    Nd
C       0.1269   0.5804   0.9337     C
O       0.1331   0.9266   0.9179     O
C       0.1335   0.0624   0.7423     C
O       0.1377   0.3441   0.8456     O
C       0.1412   0.9249   0.0174     C
O       0.1536   0.0107   0.7465     O
C       0.1602   0.3179   0.9303     C
O       0.1658   0.3411   0.0204     O
H       0.1721   0.1004   0.5404     H
H        0.178   0.2516   0.7604     H
C       0.1837   0.2561   0.9228     C
C       0.1883   0.2309   0.8231     C
O        0.189   0.4209   0.2658     O
H       0.1902   0.5897   0.7331     H
H       0.1907    0.077   0.2544     H
H       0.1984   0.2456   0.0813     H
C       0.2003   0.2277   0.0146     C
H       0.2063   0.6042   0.4507     H
O        0.208   0.1534    0.713     O
C       0.2087   0.1735   0.8165     C
H       0.2116   0.5835   0.2701     H
H       0.2156   0.0638   0.0676     H
O       0.2156   0.9397   0.0721     O
C       0.2211   0.1686   0.0083     C
C       0.2236   0.0951   0.6947     C
C       0.2269   0.1426   0.9113     C
H        0.227   0.5304   0.7684     H
O       0.2307   0.1435   0.1067     O
C       0.2326   0.0857   0.5761     C
C       0.2364   0.5866   0.8897     C
H       0.2378   0.0467   0.5619     H
C       0.2412   0.5694   0.7739     C
H       0.2427    0.105   0.9073     H
H       0.2573    0.605   0.0927     H
C       0.2588   0.0694   0.2261     C
H       0.2622   0.5467   0.4381     H
C       0.2636   0.0866   0.1103     C
C       0.2674   0.5857   0.4239     C
O       0.2693   0.6435   0.8933     O
H        0.273   0.0304   0.2316     H
C       0.2731   0.6426   0.0887     C
C       0.2764   0.5951   0.3053     C
C       0.2789   0.6686   0.9917     C
O       0.2844   0.4397   0.9279     O
H       0.2844   0.5638   0.9324     H
H       0.2884   0.0835   0.7299     H
C       0.2913   0.6735   0.1835     C
O        0.292   0.6534    0.287     O
H       0.2937   0.1042   0.5493     H
C       0.2997   0.7277   0.9854     C
H       0.3016   0.7456   0.9187     H
H       0.3093    0.577   0.7456     H
H       0.3098   0.0897   0.2669     H
O        0.311   0.9209   0.7342     O
C       0.3117   0.7309   0.1769     C
C       0.3163   0.7561   0.0772     C
H        0.322   0.7516   0.2396     H
H       0.3279   0.6004   0.4596     H
O       0.3342   0.8411   0.9796     O
C       0.3398   0.8179   0.0697     C
O       0.3464   0.5107   0.2535     O
C       0.3588   0.4249   0.9826     C
O       0.3623   0.8441   0.1544     O
C       0.3665   0.5624   0.2577     C
O       0.3669   0.4266   0.0821     O
C       0.3731   0.0804   0.0663     C
Nd     0.37512  0.41769  0.27481    Nd
H       0.3844    0.318   0.9209     H
C       0.3946   0.9217   0.7795     C
Nd     0.39822   0.9318   0.0546    Nd
O       0.4021   0.0325   0.0405     O
O       0.4121   0.9413   0.8708     O
H       0.4304   0.8157   0.7398     H
O       0.4319   0.1207   0.0649     O
O       0.4467   0.5857   0.2313     O
H       0.4469   0.0862   0.7498     H
O        0.448   0.4025   0.8094     O
C       0.4492   0.3335   0.9451     C
C       0.4495   0.3958    0.924     C
H       0.4504   0.1842   0.7124     H
H       0.4529   0.4212   0.6121     H
O       0.4537   0.9607   0.2279     O
H       0.4573   0.3268   0.0212     H
O       0.4584   0.4606   0.4278     O
C       0.4724   0.4528   0.6504     C
C       0.4737   0.4518   0.7639     C
H       0.4788   0.9165   0.4164     H
O       0.4804   0.8993   0.6089     O
H        0.485   0.5889   0.9516     H
C       0.4872     0.95   0.4528     C
C       0.4875   0.9526   0.5624     C
H       0.4879   0.1707   0.8303     H
C       0.4896   0.8949   0.7257     C
H       0.4944   0.6834   0.9064     H
C        0.496   0.8332   0.7547     C
C          0.5      0.0   0.2736     C
C          0.5      0.0   0.3968     C
C          0.5      0.0   0.6209     C
H          0.5      0.0   0.6962     H
C          0.5      0.5   0.4743     C
C          0.5      0.5   0.5956     C
C          0.5      0.5   0.8226     C
H          0.5      0.5   0.8979     H
C        0.504   0.1668   0.7547     C
H       0.5056   0.3166   0.9064     H
C       0.5104   0.1051   0.7257     C
H       0.5121   0.8293   0.8303     H
C       0.5125   0.0474   0.5624     C
C       0.5128     0.05   0.4528     C
H        0.515   0.4111   0.9516     H
O       0.5196   0.1007   0.6089     O
H       0.5212   0.0835   0.4164     H
C       0.5263   0.5482   0.7639     C
C       0.5276   0.5472   0.6504     C
O       0.5416   0.5394   0.4278     O
H       0.5427   0.6732   0.0212     H
O       0.5463   0.0393   0.2279     O
H       0.5471   0.5788   0.6121     H
H       0.5496   0.8158   0.7124     H
C       0.5505   0.6042    0.924     C
C       0.5508   0.6665   0.9451     C
O        0.552   0.5975   0.8094     O
H       0.5531   0.9138   0.7498     H
O       0.5533   0.4143   0.2313     O
O       0.5681   0.8793   0.0649     O
H       0.5696   0.1843   0.7398     H
O       0.5879   0.0587   0.8708     O
O       0.5979   0.9675   0.0405     O
Nd     0.60178   0.0682   0.0546    Nd
C       0.6054   0.0783   0.7795     C
H       0.6156    0.682   0.9209     H
Nd     0.62488  0.58231  0.27481    Nd
C       0.6269   0.9196   0.0663     C
O       0.6331   0.5734   0.0821     O
C       0.6335   0.4376   0.2577     C
O       0.6377   0.1559   0.1544     O
C       0.6412   0.5751   0.9826     C
O       0.6536   0.4893   0.2535     O
C       0.6602   0.1821   0.0697     C
O       0.6658   0.1589   0.9796     O
H       0.6721   0.3996   0.4596     H
H        0.678   0.2484   0.2396     H
C       0.6837   0.2439   0.0772     C
C       0.6883   0.2691   0.1769     C
O        0.689   0.0791   0.7342     O
H       0.6902   0.9103   0.2669     H
H       0.6907    0.423   0.7456     H
H       0.6984   0.2544   0.9187     H
C       0.7003   0.2723   0.9854     C
H       0.7063   0.8958   0.5493     H
O        0.708   0.3466    0.287     O
C       0.7087   0.3265   0.1835     C
H       0.7116   0.9165   0.7299     H
H       0.7156   0.4362   0.9324     H
O       0.7156   0.5603   0.9279     O
C       0.7211   0.3314   0.9917     C
C       0.7236   0.4049   0.3053     C
C       0.7269   0.3574   0.0887     C
H        0.727   0.9696   0.2316     H
O       0.7307   0.3565   0.8933     O
C       0.7326   0.4143   0.4239     C
C       0.7364   0.9134   0.1103     C
H       0.7378   0.4533   0.4381     H
C       0.7412   0.9306   0.2261     C
H       0.7427    0.395   0.0927     H
H       0.7573    0.895   0.9073     H
C       0.7588   0.4306   0.7739     C
H       0.7622   0.9533   0.5619     H
C       0.7636   0.4134   0.8897     C
C       0.7674   0.9143   0.5761     C
O       0.7693   0.8565   0.1067     O
H        0.773   0.4696   0.7684     H
C       0.7731   0.8574   0.9113     C
C       0.7764   0.9049   0.6947     C
C       0.7789   0.8314   0.0083     C
O       0.7844   0.0603   0.0721     O
H       0.7844   0.9362   0.0676     H
H       0.7884   0.4165   0.2701     H
C       0.7913   0.8265   0.8165     C
O        0.792   0.8466    0.713     O
H       0.7937   0.3958   0.4507     H
C       0.7997   0.7723   0.0146     C
H       0.8016   0.7544   0.0813     H
H       0.8093    0.923   0.2544     H
H       0.8098   0.4103   0.7331     H
O        0.811   0.5791   0.2658     O
C       0.8117   0.7691   0.8231     C
C       0.8163   0.7439   0.9228     C
H        0.822   0.7484   0.7604     H
H       0.8279   0.8996   0.5404     H
O       0.8342   0.6589   0.0204     O
C       0.8398   0.6821   0.9303     C
O       0.8464   0.9893   0.7465     O
C       0.8588   0.0751   0.0174     C
O       0.8623   0.6559   0.8456     O
C       0.8665   0.9376   0.7423     C
O       0.8669   0.0734   0.9179     O
C       0.8731   0.4196   0.9337     C
Nd     0.87512  0.08231  0.72519    Nd
H       0.8844    0.182   0.0791     H
C       0.8946   0.5783   0.2205     C
Nd     0.89822   0.5682   0.9454    Nd
O       0.9021   0.4675   0.9595     O
O       0.9121   0.5587   0.1292     O
H       0.9304   0.6843   0.2602     H
O       0.9319   0.3793   0.9351     O
O       0.9467   0.9143   0.7687     O
H       0.9469   0.4138   0.2502     H
O        0.948   0.0975   0.1906     O
C       0.9492   0.1665   0.0549     C
C       0.9495   0.1042    0.076     C
H       0.9504   0.3158   0.2876     H
H       0.9529   0.0788   0.3879     H
O       0.9537   0.5393   0.7721     O
H       0.9573   0.1732   0.9788     H
O       0.9584   0.0394   0.5722     O
C       0.9724   0.0472   0.3496     C
C       0.9737   0.0482   0.2361     C
H       0.9788   0.5835   0.5836     H
O       0.9804   0.6007   0.3911     O
H        0.985   0.9111   0.0484     H
C       0.9872     0.55   0.5472     C
C       0.9875   0.5474   0.4376     C
H       0.9879   0.3293   0.1697     H
C       0.9896   0.6051   0.2743     C
H       0.9944   0.8166   0.0936     H
C        0.996   0.6668   0.2453     C
