data_I
_chemical_name_common  '/home/zhangsd/repos/MofS-CGCNN/ML/data/TSD/clean_cifs/FAVZEJ_clean'
_cell_length_a  6.56470
_cell_length_b  6.56470
_cell_length_c 11.34700
_cell_angle_alpha 99.81670
_cell_angle_beta  99.81670
_cell_angle_gamma 102.91300
_space_group_name_H-M_alt      'P 1'


loop_
_space_group_symop_operation_xyz
  'x, y, z' 

loop_
_atom_site_label
_atom_site_fract_x
_atom_site_fract_y
_atom_site_fract_z
_atom_site_type_symbol
N       0.0092   0.4534   0.9525     N
N       0.0105   0.2815   0.3372     N
N       0.0117   0.8729   0.6523     N
Ag     0.01231  0.73801  0.24605    Ag
H        0.059   0.4148   0.3723     H
H       0.0714   0.5846   0.9884     H
N       0.1081   0.8527   0.4607     N
H       0.1859   0.9991   0.8807     H
C       0.2174   0.9472   0.7042     C
N       0.2815   0.0105   0.8372     N
C       0.3081   0.9479   0.5195     C
N       0.3762    0.984   0.6425     N
H       0.4147   0.9861   0.3741     H
H       0.4148    0.059   0.8723     H
N       0.4534   0.0092   0.4525     N
H       0.5846   0.0714   0.4884     H
H       0.6611   0.7263   0.8976     H
H       0.6652   0.6812   0.5187     H
H       0.6812   0.6652   0.0187     H
N       0.7044   0.7608    0.976     N
H       0.7263   0.6611   0.3976     H
Ag     0.73801  0.01231  0.74605    Ag
N       0.7608   0.7044    0.476     N
C       0.8079   0.9631   0.0313     C
N       0.8527   0.1081   0.9607     N
N       0.8729   0.0117   0.1523     N
C       0.9472   0.2174   0.2042     C
C       0.9479   0.3081   0.0195     C
C       0.9631   0.8079   0.5313     C
N        0.984   0.3762   0.1425     N
H       0.9861   0.4147   0.8741     H
H       0.9991   0.1859   0.3807     H
