data_I
_chemical_name_common  '/home/zhangsd/repos/MofS-CGCNN/ML/data/TSD/clean_cifs/FECWOB01_clean'
_cell_length_a  6.79100
_cell_length_b  9.60400
_cell_length_c 17.72200
_cell_angle_alpha 101.82600
_cell_angle_beta  96.50000
_cell_angle_gamma 106.42500
_space_group_name_H-M_alt      'P 1'


loop_
_space_group_symop_operation_xyz
  'x, y, z' 

loop_
_atom_site_label
_atom_site_fract_x
_atom_site_fract_y
_atom_site_fract_z
_atom_site_type_symbol
O        0.009   0.2026   0.1527     O
C        0.022   0.2679   0.0332     C
C       0.0609   0.3078   0.1193     C
C        0.061   0.8093   0.1295     C
Zn     0.07651  0.53716  0.24926    Zn
C       0.0807   0.3276   0.9095     C
C        0.108   0.8498    0.217     C
N        0.116    0.755   0.2615     N
O       0.1219   0.2939   0.3512     O
C        0.122   0.3659    0.991     C
C        0.124   0.8714   0.0086     C
H       0.1298   0.2745   0.4876     H
H       0.1477   0.3935   0.8817     H
O       0.1478   0.4446   0.1535     O
N        0.153   0.9873   0.2617     N
Zn     0.15857  0.19034  0.25068    Zn
N        0.165   0.8356   0.3346     N
C        0.166   0.9086   0.0899     C
N        0.185   0.9717   0.3334     N
H        0.187   0.3491   0.6223     H
C       0.1871   0.3756   0.5133     C
C       0.1908   0.4326   0.3828     C
H       0.1913   0.9383   0.9815     H
H       0.2182    0.458   0.0179     H
C       0.2247   0.4202   0.5936     C
O       0.2285   0.5349   0.3483     O
N       0.2292   0.5717   0.7634     N
C        0.235   0.4821   0.4712     C
H       0.2645   0.9992   0.1174     H
C       0.3186   0.5704   0.6326     C
C       0.3233   0.6311   0.5083     C
N       0.3296   0.6399   0.8402     N
H       0.3536   0.7016   0.4788     H
C       0.3634   0.6178    0.718     C
C       0.3683   0.6779   0.5904     C
H         0.43   0.7787   0.6159     H
N       0.4538   0.2885   0.2368     N
N       0.4825   0.2776   0.1606     N
N       0.5175   0.7224   0.8394     N
N       0.5462   0.7115   0.7632     N
H         0.57   0.2213   0.3841     H
C       0.6317   0.3221   0.4096     C
C       0.6366   0.3822    0.282     C
H       0.6464   0.2984   0.5212     H
N       0.6704   0.3601   0.1598     N
C       0.6767   0.3689   0.4917     C
C       0.6814   0.4296   0.3674     C
H       0.7355   0.0008   0.8826     H
C        0.765   0.5179   0.5288     C
N       0.7708   0.4283   0.2366     N
O       0.7715   0.4651   0.6517     O
C       0.7753   0.5798   0.4064     C
H       0.7818    0.542   0.9821     H
H       0.8087   0.0617   0.0185     H
C       0.8092   0.5674   0.6172     C
C       0.8129   0.6244   0.4867     C
H        0.813   0.6509   0.3777     H
N        0.815   0.0283   0.6666     N
C        0.834   0.0914   0.9101     C
N        0.835   0.1644   0.6654     N
Zn     0.84143  0.80966  0.74932    Zn
N        0.847   0.0127   0.7383     N
O       0.8522   0.5554   0.8465     O
H       0.8523   0.6065   0.1183     H
H       0.8702   0.7255   0.5124     H
C        0.876   0.1286   0.9914     C
C        0.878   0.6341    0.009     C
O       0.8781   0.7061   0.6488     O
N        0.884    0.245   0.7385     N
C        0.892   0.1502    0.783     C
C       0.9193   0.6724   0.0905     C
Zn     0.92349  0.46284  0.75074    Zn
C        0.939   0.1907   0.8705     C
C       0.9391   0.6922   0.8807     C
C        0.978   0.7321   0.9668     C
O        0.991   0.7974   0.8473     O
