data_I
_chemical_name_common  '/home/zhangsd/repos/MofS-CGCNN/ML/data/TSD/clean_cifs/FECXAO_clean'
_cell_length_a 16.54280
_cell_length_b 16.54280
_cell_length_c 24.39880
_cell_angle_alpha 90.00000
_cell_angle_beta  90.00000
_cell_angle_gamma 120.00000
_space_group_name_H-M_alt      'P 1'


loop_
_space_group_symop_operation_xyz
  'x, y, z' 

loop_
_atom_site_label
_atom_site_fract_x
_atom_site_fract_y
_atom_site_fract_z
_atom_site_type_symbol
La         0.0  0.08098  0.83333    La
La         0.0  0.91902  0.33333    La
O       0.0016   0.0718  0.21157     O
O       0.0016   0.9298   0.9551     O
H       0.0169    0.339  0.66477     H
H       0.0169   0.6779   0.5019     H
C        0.026   0.1994  0.70577     C
C        0.026   0.8266   0.4609     C
O       0.0359   0.1418  0.73647     O
O       0.0359   0.8941   0.4302     O
O        0.037   0.2085   0.9956     O
O        0.037   0.8285  0.17107     O
H       0.0415   0.2317    0.482     H
H       0.0415   0.8098  0.68467     H
C       0.0551   0.1102  0.41667     C
C       0.0551   0.9449     0.75     C
O       0.0702   0.0718  0.62177     O
C       0.0702   0.3625  0.68637     C
C       0.0702   0.7077   0.4803     C
O       0.0702   0.9984   0.5449     O
O       0.0718   0.0016  0.78843     O
O       0.0718   0.0702  0.37823     O
La     0.08098      0.0  0.16667    La
La     0.08098  0.08098      0.0    La
C       0.0878    0.264    0.456     C
C       0.0878   0.8238  0.71067     C
C       0.0927    0.302  0.71147     C
C       0.0927   0.7907   0.4552     C
O       0.1059   0.1418  0.09687     O
O       0.1059   0.9641   0.0698     O
H       0.1063   0.2954  0.07317     H
H       0.1063   0.8109   0.0935     H
C       0.1073   0.2146  0.41667     C
C       0.1073   0.8927     0.75     C
C       0.1102   0.0551  0.58333     C
H       0.1127   0.5001  0.67437     H
H       0.1127   0.6126   0.4923     H
H       0.1252   0.3934   0.4834     H
H       0.1252   0.7318  0.68327     H
C       0.1273   0.4599  0.69287     C
C       0.1273   0.6674   0.4738     C
C       0.1372    0.361   0.4565     C
C       0.1372   0.7762  0.71017     C
O       0.1418   0.0359  0.26353     O
O       0.1418   0.1059  0.90313     O
H       0.1502   0.5289   0.4388     H
H       0.1502   0.6213  0.72787     H
C       0.1634   0.3361  0.08937     C
C       0.1634   0.8273   0.0773     C
O       0.1715   0.2085  0.83773     O
O       0.1715    0.963  0.32893     O
C       0.1727   0.3361  0.74397     C
C       0.1727   0.8366   0.4227     C
C       0.1734   0.1994  0.12757     C
C       0.1734    0.974   0.0391     C
H       0.1752   0.4555  0.05917     H
H       0.1752   0.7197   0.1075     H
C       0.1762    0.264  0.37733     C
C       0.1762   0.9122  0.78933     C
H       0.1891   0.2954  0.76017     H
H       0.1891   0.8937   0.4065     H
H       0.1902   0.2317  0.35133     H
H       0.1902   0.9585  0.81533     H
C       0.1994    0.026  0.29423     C
C       0.1994   0.1734  0.87243     C
C       0.2047   0.4094  0.41667     C
C       0.2047   0.7953     0.75     C
C       0.2049   0.4326  0.08137     C
C       0.2049   0.7723   0.0853     C
C       0.2055   0.4966  0.72707     C
C       0.2055   0.7089   0.4396     C
O       0.2085    0.037   0.0044     O
O       0.2085   0.1715  0.16227     O
C       0.2093    0.302  0.12187     C
C       0.2093   0.9073   0.0448     C
C       0.2129   0.5621    0.429     C
C       0.2129   0.6508  0.73767     C
C       0.2146   0.1073  0.58333     C
C       0.2238    0.361  0.37683     C
C       0.2238   0.8628  0.78983     C
H       0.2276   0.6138  0.08333     H
C       0.2277   0.4326  0.75197     C
C       0.2277   0.7951   0.4147     C
H       0.2317   0.0415    0.518     H
H       0.2317   0.1902  0.64867     H
C       0.2577   0.5154  0.41667     C
C       0.2577   0.7423     0.75     C
C       0.2595    0.598  0.73907     C
C       0.2595   0.6615   0.4276     C
C        0.264   0.0878    0.544     C
C        0.264   0.1762  0.62267     C
H       0.2682   0.3934  0.34993     H
H       0.2682   0.8748  0.81673     H
H       0.2803   0.4555  0.77417     H
H       0.2803   0.8248   0.3925     H
C       0.2911   0.4966  0.10627     C
C       0.2911   0.7945   0.0604     C
C       0.2923   0.3625  0.14697     C
C       0.2923   0.9298   0.0197     C
C       0.2924   0.6462  0.08333     C
H       0.2954   0.1063  0.92683     H
H       0.2954   0.1891  0.23983     H
C        0.302   0.0927  0.28853     C
C        0.302   0.2093  0.87813     C
H       0.3221    0.339  0.16857     H
H       0.3221   0.9831   0.9981     H
C       0.3326   0.4599  0.14047     C
C       0.3326   0.8727   0.0262     C
C       0.3361   0.1634  0.91063     C
C       0.3361   0.1727  0.25603     C
C       0.3385    0.598  0.09427     C
C       0.3385   0.7405   0.0724     C
H        0.339   0.0169  0.33523     H
H        0.339   0.3221  0.83143     H
C       0.3492   0.5621  0.40433     C
C       0.3492   0.7871  0.76233     C
C       0.3538   0.6462     0.75     C
C       0.3538   0.7076  0.41667     C
C        0.361   0.1372   0.5435     C
C        0.361   0.2238  0.62317     C
C       0.3625   0.0702  0.31363     C
C       0.3625   0.2923  0.85303     C
H       0.3787   0.5289  0.39453     H
H       0.3787   0.8498  0.77213     H
H       0.3862   0.6138     0.75     H
H       0.3862   0.7724  0.41667     H
H       0.3874   0.5001  0.15897     H
H       0.3874   0.8873   0.0077     H
H       0.3934   0.1252   0.5166     H
H       0.3934   0.2682  0.65007     H
C        0.402   0.6615  0.40573     C
C        0.402   0.7405  0.76093     C
C       0.4094   0.2047  0.58333     C
C       0.4326   0.2049  0.91863     C
C       0.4326   0.2277  0.24803     C
C       0.4379   0.6508  0.09567     C
C       0.4379   0.7871    0.071     C
H       0.4555   0.1752  0.94083     H
H       0.4555   0.2803  0.22583     H
C       0.4599   0.1273  0.30713     C
C       0.4599   0.3326  0.85953     C
H       0.4711   0.6213  0.10547     H
H       0.4711   0.8498   0.0612     H
C       0.4846   0.7423  0.08333     C
C       0.4966   0.2055  0.27293     C
C       0.4966   0.2911  0.89373     C
H       0.4999   0.6126  0.34103     H
H       0.4999   0.8873  0.82563     H
H       0.5001   0.1127  0.32563     H
H       0.5001   0.3874  0.84103     H
C       0.5034   0.7089  0.39373     C
C       0.5034   0.7945  0.77293     C
C       0.5154   0.2577  0.58333     C
H       0.5289   0.1502   0.5612     H
H       0.5289   0.3787  0.60547     H
C       0.5401   0.6674  0.35953     C
C       0.5401   0.8727  0.80713     C
H       0.5445   0.7197  0.72583     H
H       0.5445   0.8248  0.44083     H
C       0.5621   0.2129    0.571     C
C       0.5621   0.3492  0.59567     C
C       0.5674   0.7723  0.74803     C
C       0.5674   0.7951  0.41863     C
C       0.5906   0.7953  0.08333     C
C        0.598   0.2595  0.26093     C
C        0.598   0.3385  0.90573     C
H       0.6066   0.7318  0.15007     H
H       0.6066   0.8748   0.0166     H
H       0.6126   0.1127   0.5077     H
H       0.6126   0.4999  0.65897     H
H       0.6138   0.2276  0.91667     H
H       0.6138   0.3862     0.25     H
H       0.6213   0.1502  0.27213     H
H       0.6213   0.4711  0.89453     H
C       0.6375   0.7077  0.35303     C
C       0.6375   0.9298  0.81363     C
C        0.639   0.7762  0.12317     C
C        0.639   0.8628   0.0435     C
C       0.6462   0.2924  0.91667     C
C       0.6462   0.3538     0.25     C
C       0.6508   0.2129  0.26233     C
C       0.6508   0.4379  0.90433     C
H        0.661   0.6779  0.33143     H
H        0.661   0.9831  0.83523     H
C       0.6615   0.2595   0.5724     C
C       0.6615    0.402  0.59427     C
C       0.6639   0.8273  0.75603     C
C       0.6639   0.8366  0.41063     C
C       0.6674   0.1273   0.5262     C
C       0.6674   0.5401  0.64047     C
H       0.6779   0.0169   0.4981     H
H       0.6779    0.661  0.66857     H
C        0.698   0.7907  0.37813     C
C        0.698   0.9073  0.78853     C
H       0.7046   0.8109  0.73983     H
H       0.7046   0.8937  0.42683     H
C       0.7076   0.3538  0.58333     C
C       0.7077   0.0702   0.5197     C
C       0.7077   0.6375  0.64697     C
C       0.7089   0.2055   0.5604     C
C       0.7089   0.5034  0.60627     C
H       0.7197   0.1752   0.8925     H
H       0.7197   0.5445  0.27417     H
H       0.7318   0.1252  0.31673     H
H       0.7318   0.6066  0.84993     H
C        0.736   0.8238  0.12267     C
C        0.736   0.9122    0.044     C
C       0.7405   0.3385   0.9276     C
C       0.7405    0.402  0.23907     C
C       0.7423   0.2577     0.25     C
C       0.7423   0.4846  0.91667     C
H       0.7683   0.8098  0.14867     H
H       0.7683   0.9585    0.018     H
C       0.7723   0.2049   0.9147     C
C       0.7723   0.5674  0.25197     C
H       0.7724   0.3862  0.58333     H
C       0.7762   0.1372  0.28983     C
C       0.7762    0.639  0.87683     C
C       0.7854   0.8927  0.08333     C
C       0.7871   0.3492  0.23767     C
C       0.7871   0.4379    0.929     C
C       0.7907   0.0927   0.5448     C
C       0.7907    0.698  0.62187     C
O       0.7915   0.8285  0.66227     O
O       0.7915    0.963   0.5044     O
C       0.7945   0.2911   0.9396     C
C       0.7945   0.5034  0.22707     C
C       0.7951   0.2277   0.5853     C
C       0.7951   0.5674  0.58137     C
C       0.7953   0.2047     0.25     C
C       0.7953   0.5906  0.91667     C
C       0.8006   0.8266  0.37243     C
C       0.8006    0.974  0.79423     C
H       0.8098   0.0415  0.31533     H
H       0.8098   0.7683  0.85133     H
H       0.8109   0.1063   0.9065     H
H       0.8109   0.7046  0.26017     H
C       0.8238   0.0878  0.28933     C
C       0.8238    0.736  0.87733     C
H       0.8248   0.2803   0.6075     H
H       0.8248   0.5445  0.55917     H
C       0.8266    0.026   0.5391     C
C       0.8266   0.8006  0.62757     C
C       0.8273   0.1634   0.9227     C
C       0.8273   0.6639  0.24397     C
O       0.8285    0.037  0.82893     O
O       0.8285   0.7915  0.33773     O
C       0.8366   0.1727   0.5773     C
C       0.8366   0.6639  0.58937     C
H       0.8498   0.3787  0.22787     H
H       0.8498   0.4711   0.9388     H
O       0.8582   0.8941  0.40313     O
O       0.8582   0.9641  0.76353     O
C       0.8628   0.2238  0.21017     C
C       0.8628    0.639   0.9565     C
C       0.8727   0.3326   0.9738     C
C       0.8727   0.5401  0.19287     C
H       0.8748   0.2682  0.18327     H
H       0.8748   0.6066   0.9834     H
H       0.8873   0.3874   0.9923     H
H       0.8873   0.4999  0.17437     H
C       0.8898   0.9449  0.08333     C
C       0.8927   0.1073     0.25     C
C       0.8927   0.7854  0.91667     C
H       0.8937   0.1891   0.5935     H
H       0.8937   0.7046  0.57317     H
O       0.8941   0.0359   0.5698     O
O       0.8941   0.8582  0.59687     O
C       0.9073   0.2093   0.9552     C
C       0.9073    0.698  0.21147     C
C       0.9122   0.1762  0.21067     C
C       0.9122    0.736    0.956     C
La     0.91902      0.0  0.66667    La
La     0.91902  0.91902      0.5    La
O       0.9282   0.9298  0.87823     O
O       0.9282   0.9984  0.28843     O
O       0.9298   0.0016   0.0449     O
C       0.9298   0.2923   0.9803     C
C       0.9298   0.6375  0.18637     C
O       0.9298   0.9282  0.12177     O
C       0.9449   0.0551     0.25     C
C       0.9449   0.8898  0.91667     C
H       0.9585   0.1902  0.18467     H
H       0.9585   0.7683    0.982     H
O        0.963   0.1715  0.67107     O
O        0.963   0.7915   0.4956     O
O       0.9641   0.1059   0.9302     O
O       0.9641   0.8582  0.23647     O
C        0.974   0.1734   0.9609     C
C        0.974   0.8006  0.20577     C
H       0.9831   0.3221   0.0019     H
H       0.9831    0.661  0.16477     H
O       0.9984   0.0702   0.4551     O
O       0.9984   0.9282  0.71157     O
