data_I
_chemical_name_common  '/home/zhangsd/repos/MofS-CGCNN/ML/data/TSD/clean_cifs/FECYUJ_clean'
_cell_length_a 18.60860
_cell_length_b 20.24220
_cell_length_c 20.81350
_cell_angle_alpha 70.42100
_cell_angle_beta  68.95500
_cell_angle_gamma 68.03100
_space_group_name_H-M_alt      'P 1'


loop_
_space_group_symop_operation_xyz
  'x, y, z' 

loop_
_atom_site_label
_atom_site_fract_x
_atom_site_fract_y
_atom_site_fract_z
_atom_site_type_symbol
O       0.0001   0.7219  0.03732     O
C       0.0032   0.9649   0.1972     C
O       0.0062   0.8514  0.90356     O
C       0.0079   0.3445   0.7777     C
C       0.0116   0.5936   0.3425     C
O       0.0142   0.2888    0.102     O
C       0.0149   0.1515   0.7214     C
C       0.0151   0.3631    0.168     C
C       0.0184   0.4445   0.2276     C
C        0.022   0.6672   0.1503     C
C       0.0249   0.0809   0.1144     C
C       0.0289   0.9632   0.8327     C
C       0.0325   0.2866   0.8968     C
H       0.0388   0.5314   0.4334     H
H       0.0393   0.2425   0.6549     H
H       0.0405   0.8274   0.2667     H
H        0.041   0.3822   0.6367     H
C       0.0415   0.6091   0.2677     C
C       0.0456   0.0789   0.7524     C
H       0.0474   0.4671   0.2373     H
Zn     0.05113  0.22246  0.04027    Zn
C       0.0569   0.3957   0.1854     C
H       0.0586   0.9441   0.1841     H
C       0.0599   0.3107   0.1193     C
C         0.06   0.5429   0.3846     C
H       0.0616   0.3215   0.7582     H
C       0.0625   0.1935    0.674     C
C       0.0668   0.5393   0.7432     C
C       0.0675   0.6205   0.8053     C
H       0.0799   0.4716   0.6843     H
H       0.0955   0.6422   0.8173     H
O       0.0973   0.0473   0.0929     O
C       0.1038   0.6316   0.1212     C
O       0.1044    0.259  0.86834     O
C       0.1083   0.4927   0.6964     C
C       0.1097   0.5724   0.7609     C
C       0.1116   0.9325   0.8128     C
H       0.1126   0.3841   0.1678     H
C       0.1235   0.5735   0.2379     C
H       0.1241   0.6394   0.0723     H
C       0.1295   0.0468   0.7338     C
O        0.133   0.2932  0.10112     O
H       0.1336   0.8837   0.8332     H
C       0.1401   0.5088   0.3547     C
C       0.1469    0.163   0.6537     C
C       0.1522   0.5878   0.1618     C
O       0.1564   0.4247   0.4628     O
C       0.1619    0.972   0.7642     C
O      0.16572  0.18387  0.00863     O
O       0.1675   0.2743  0.57922     O
C       0.1721   0.5245   0.2825     C
C       0.1781   0.0903   0.6829     C
C       0.1901   0.4776    0.668     C
O       0.1914   0.4044   0.5999     O
C        0.193   0.4535   0.4002     C
C       0.1933   0.5552   0.7318     C
Zn     0.19587  0.07844  0.04017    Zn
Zn     0.19902  0.20825  0.90605    Zn
C       0.2003   0.2076   0.6026     C
H       0.2056   0.5658   0.1408     H
H        0.217   0.9498   0.7512     H
Zn     0.21932  0.35233  0.52529    Zn
H       0.2226   0.5759   0.7434     H
Zn     0.22546  0.22332  0.04454    Zn
H       0.2261   0.5027   0.2631     H
C       0.2326   0.4283   0.6177     C
C       0.2329   0.5089    0.687     C
H       0.2333   0.0689   0.6687     H
O      0.23759   0.1367  0.13382     O
O       0.2434   0.3097   0.9548     O
O        0.247   0.0287  0.96243     O
O       0.2501   0.1223  0.86604     O
O        0.256   0.0319   0.1088     O
C       0.2618   0.0709   0.1431     C
C       0.2655   0.0553   0.8964     C
O       0.2664   0.4397  0.37587     O
O       0.2679    0.271   0.8597     O
O       0.2742  0.17412  0.58436     O
C       0.2763   0.3094   0.8921     C
H       0.2885   0.4981    0.669     H
H         0.29   0.9334   0.2137     H
H       0.3005   0.4173   0.9233     H
O       0.3078   0.4141   0.5973     O
C       0.3126   0.0269   0.1952     C
C       0.3136   0.0015   0.8499     C
C       0.3186   0.9555   0.2247     C
H       0.3217   0.9096   0.9294     H
H       0.3229    0.077   0.7582     H
C       0.3247   0.3614   0.8477     C
C       0.3286   0.4149   0.8766     C
O      0.33436  0.31732   0.4898     O
C       0.3365   0.9262   0.8805     C
C       0.3376   0.0269   0.7777     C
H       0.3428   0.8169   0.2925     H
H       0.3491    0.111   0.1938     H
C       0.3557    0.061   0.2118     C
H       0.3635   0.3253   0.7591     H
Zn     0.36429  0.34106   0.3827    Zn
Zn     0.36447  0.21225  0.52309    Zn
C       0.3655   0.3597   0.7784     C
C       0.3666   0.9131   0.2716     C
C       0.3731   0.4622   0.8365     C
C       0.3738   0.8385   0.3009     C
H       0.3765   0.4951   0.8567     H
C       0.3795    0.878     0.84     C
C       0.3839   0.9786   0.7329     C
Zn     0.38468  0.35848  0.52669    Zn
H        0.392   0.8282    0.861     H
H       0.3969   0.0525    0.638     H
C       0.4067   0.9022    0.764     C
C       0.4083   0.0204   0.2552     C
C       0.4107   0.4097   0.7358     C
C       0.4107   0.9467   0.2873     C
C       0.4111   0.0028   0.6591     C
C       0.4138    0.462    0.765     C
C       0.4263   0.7963   0.3423     C
O       0.4303  0.14789  0.45914     O
H       0.4314   0.7466   0.3604     H
O       0.4322   0.1826   0.5886     O
O       0.4391   0.4284  0.45977     O
H       0.4404   0.0417   0.2624     H
O       0.4466   0.3959  0.36567     O
H       0.4509   0.3741   0.6446     H
C       0.4513   0.4092   0.6639     C
O       0.4555   0.2418   0.3705     O
C       0.4559    0.853   0.7196     C
C       0.4571   0.5122   0.7217     C
C       0.4586   0.9531   0.6183     C
C       0.4604   0.4326   0.3947     C
H       0.4606   0.5459   0.7408     H
C       0.4626    0.902   0.3309     C
O       0.4629  0.28324  0.57665     O
C       0.4641   0.1749   0.3975     C
C       0.4697   0.2152   0.5992     C
H       0.4708    0.803   0.7395     H
C       0.4722   0.8285    0.357     C
H       0.4758   0.9699   0.5695     H
C       0.4818    0.878    0.648     C
H       0.4841   0.5399   0.4246     H
C       0.4908   0.4599    0.623     C
H       0.4913   0.9235   0.3423     H
C        0.494   0.5123   0.6522     C
C        0.506   0.4877   0.3478     C
H       0.5087   0.0765   0.6577     H
C       0.5092   0.5401    0.377     C
H       0.5159   0.4601   0.5754     H
C       0.5182    0.122    0.352     C
H       0.5242   0.0301   0.4305     H
C       0.5278   0.1715    0.643     C
H       0.5292    0.197   0.2605     H
C       0.5303   0.7848   0.4008     C
C       0.5359   0.8251   0.6025     C
O       0.5371  0.71676  0.42335     O
C       0.5374    0.098   0.6691     C
H       0.5394   0.4541   0.2592     H
C       0.5396   0.5674   0.6053     C
C       0.5414   0.0469   0.3817     C
C       0.5429   0.4878   0.2783     C
C       0.5441    0.147   0.2804     C
O       0.5445   0.7582   0.6295     O
C       0.5487   0.5908   0.3361     C
H       0.5491   0.6259   0.3554     H
O       0.5534   0.6041  0.63433     O
H       0.5596   0.9583   0.7376     H
O       0.5609   0.5716  0.54023     O
O       0.5678   0.8174   0.4114     O
H       0.5686   0.2534   0.6396     H
O       0.5697  0.85211  0.54086     O
C       0.5737   0.2037   0.6577     C
C       0.5862    0.538    0.235     C
C       0.5889   0.9972   0.3409     C
C       0.5893   0.0533   0.7127     C
C       0.5893   0.5903   0.2642     C
C       0.5917   0.9796   0.7448     C
C       0.5933   0.0978    0.236     C
H       0.6031   0.9475    0.362     H
H        0.608   0.1718    0.139     H
Zn     0.61532  0.64152  0.47331    Zn
C       0.6161   0.0214   0.2671     C
C       0.6205    0.122     0.16     C
H       0.6235   0.5049   0.1433     H
C       0.6262   0.1615   0.6991     C
C       0.6269   0.5378   0.1635     C
C       0.6334   0.0869   0.7284     C
C       0.6345   0.6403   0.2216     C
Zn     0.63553  0.78775  0.47691    Zn
Zn     0.63571  0.65894   0.6173    Zn
H       0.6365   0.6747   0.2409     H
C       0.6443    0.939   0.7882     C
H       0.6509    0.889   0.8062     H
H       0.6572   0.1831   0.7075     H
C       0.6624   0.9731   0.2223     C
C       0.6635   0.0738   0.1195     C
O      0.66564  0.68268   0.5102     O
C       0.6714   0.5851   0.1234     C
C       0.6753   0.6386   0.1523     C
H       0.6771    0.923   0.2418     H
H       0.6783   0.0904   0.0706     H
C       0.6814   0.0445   0.7753     C
C       0.6864   0.9985   0.1501     C
C       0.6874   0.9731   0.8048     C
O       0.6922   0.5859   0.4027     O
H       0.6995   0.5827   0.0767     H
H         0.71   0.0666   0.7863     H
H       0.7115   0.5019    0.331     H
C       0.7237   0.6906   0.1079     C
O       0.7258  0.82588  0.41564     O
O       0.7321    0.729   0.1403     O
O       0.7336   0.5603  0.62413     O
C       0.7345   0.9447   0.1036     C
C       0.7382   0.9291   0.8569     C
O        0.744   0.9681   0.8912     O
O       0.7499   0.8777  0.13396     O
O        0.753   0.9713  0.03757     O
O       0.7566   0.6903   0.0452     O
O      0.76241   0.8633  0.86618     O
H       0.7667   0.9311   0.3313     H
C       0.7671   0.4911    0.313     C
C       0.7674   0.5717   0.3823     C
H       0.7739   0.4973   0.7369     H
Zn     0.77454  0.77668  0.95546    Zn
H       0.7774   0.4241   0.2566     H
Zn     0.78068  0.64767  0.47471    Zn
H        0.783   0.0502   0.2488     H
H       0.7944   0.4342   0.8592     H
C       0.7997   0.7924   0.3974     C
Zn     0.80098  0.79175  0.09395    Zn
Zn     0.80413  0.92156  0.95983    Zn
C       0.8067   0.4448   0.2682     C
C        0.807   0.5465   0.5998     C
O       0.8086   0.5956   0.4001     O
C       0.8099   0.5224    0.332     C
C       0.8219   0.9097   0.3171     C
C       0.8279   0.4755   0.7175     C
O       0.8325   0.7257  0.42078     O
O      0.83428  0.81613  0.99137     O
C       0.8381    0.028   0.2358     C
O       0.8436   0.5753   0.5372     O
C       0.8478   0.4122   0.8382     C
C       0.8531    0.837   0.3463     C
C       0.8599   0.4912   0.6453     C
H       0.8664   0.1163   0.1668     H
O        0.867   0.7068  0.89888     O
C       0.8705   0.9532   0.2662     C
H       0.8759   0.3606   0.9277     H
C       0.8765   0.4265   0.7621     C
H       0.8874   0.6159   0.8322     H
C       0.8884   0.0675   0.1872     C
C       0.8903   0.4276   0.2391     C
C       0.8917   0.5073   0.3036     C
O       0.8956    0.741  0.13166     O
C       0.8962   0.3684   0.8788     C
O       0.9027   0.9527   0.9071     O
H       0.9045   0.3578   0.1827     H
H       0.9201   0.5284   0.3157     H
C       0.9325   0.3795   0.1947     C
C       0.9332   0.4607   0.2568     C
C       0.9375   0.8065    0.326     C
H       0.9384   0.6785   0.2418     H
C         0.94   0.4571   0.6154     C
C       0.9401   0.6893   0.8807     C
H       0.9414   0.0559   0.8159     H
C       0.9431   0.6043   0.8146     C
Zn     0.94887  0.77754  0.95973    Zn
H       0.9526   0.5329   0.7627     H
C       0.9544   0.9211   0.2476     C
C       0.9585   0.3909   0.7323     C
H        0.959   0.6178   0.3633     H
H       0.9595   0.1726   0.7333     H
H       0.9607   0.7575   0.3451     H
H       0.9612   0.4686   0.5666     H
C       0.9675   0.7134   0.1032     C
C       0.9711   0.0368   0.1673     C
C       0.9751   0.9191   0.8856     C
C        0.978   0.3328   0.8497     C
C       0.9816   0.5555   0.7724     C
C       0.9849   0.6369    0.832     C
C       0.9851   0.8485   0.2786     C
O       0.9858   0.7112    0.898     O
C       0.9884   0.4064   0.6575     C
C       0.9921   0.6555   0.2223     C
O       0.9938   0.1486  0.09644     O
C       0.9968   0.0351   0.8028     C
O       0.9999   0.2781  0.96268     O
