data_I
_chemical_name_common  '/home/zhangsd/repos/MofS-CGCNN/ML/data/TSD/clean_cifs/FEDBEX_clean'
_cell_length_a  6.02000
_cell_length_b 12.77220
_cell_length_c 13.16120
_cell_angle_alpha 118.82900
_cell_angle_beta  90.60900
_cell_angle_gamma 91.68700
_space_group_name_H-M_alt      'P 1'


loop_
_space_group_symop_operation_xyz
  'x, y, z' 

loop_
_atom_site_label
_atom_site_fract_x
_atom_site_fract_y
_atom_site_fract_z
_atom_site_type_symbol
O       0.0202   0.6556   0.1388     O
C       0.0473   0.9288   0.0447     C
O       0.0497   0.3209   0.0147     O
N       0.0703   0.1211   0.0558     N
H       0.0832   0.8819   0.0785     H
N       0.0858   0.4269   0.3914     N
C        0.096     0.36   0.9456     C
C       0.1173   0.0493      0.1     C
C       0.1239   0.5396   0.5966     C
O       0.1643   0.6658   0.7969     O
C       0.2084   0.4652   0.4894     C
Tm     0.22197  0.33935  0.17829    Tm
C       0.2498    0.107   0.2131     C
C       0.2618   0.5941   0.7061     C
O       0.3004    0.044   0.2562     O
O       0.3066   0.2144    0.252     O
H       0.3072   0.4659   0.8393     H
C       0.3116   0.4337   0.9724     C
H       0.3538    0.441   0.4849     H
C       0.3894   0.4811   0.9055     C
N       0.4236   0.4522   0.0699     N
O       0.4631   0.5689    0.704     O
O       0.5369   0.4311    0.296     O
N       0.5764   0.5478   0.9301     N
C       0.6106   0.5189   0.0945     C
H       0.6462    0.559   0.5151     H
C       0.6884   0.5663   0.0276     C
H       0.6928   0.5341   0.1607     H
O       0.6934   0.7856    0.748     O
O       0.6996    0.956   0.7438     O
C       0.7382   0.4059   0.2939     C
C       0.7502    0.893   0.7869     C
Tm     0.77803  0.66065  0.82171    Tm
C       0.7916   0.5348   0.5106     C
O       0.8357   0.3342   0.2031     O
C       0.8761   0.4604   0.4034     C
C       0.8827   0.9507      0.9     C
C        0.904     0.64   0.0544     C
N       0.9142   0.5731   0.6086     N
H       0.9168   0.1181   0.9215     H
N       0.9297   0.8789   0.9442     N
O       0.9503   0.6791   0.9853     O
C       0.9527   0.0712   0.9553     C
O       0.9798   0.3444   0.8612     O
