data_I
_chemical_name_common  '/home/zhangsd/repos/MofS-CGCNN/ML/data/TSD/clean_cifs/FEFCUQ_clean'
_cell_length_a 14.07100
_cell_length_b 15.26500
_cell_length_c 15.35100
_cell_angle_alpha 88.33700
_cell_angle_beta  85.77900
_cell_angle_gamma 85.20500
_space_group_name_H-M_alt      'P 1'


loop_
_space_group_symop_operation_xyz
  'x, y, z' 

loop_
_atom_site_label
_atom_site_fract_x
_atom_site_fract_y
_atom_site_fract_z
_atom_site_type_symbol
N       0.0392   0.8392   0.6067     N
H       0.0425   0.9686   0.6047     H
H       0.0643   0.1655   0.6917     H
H       0.0671   0.1765     0.84     H
H       0.0686   0.7384   0.3859     H
H       0.0687   0.7125   0.6142     H
H        0.072   0.4551   0.4549     H
H       0.0733   0.8874   0.3851     H
H       0.0795   0.6026   0.4542     H
C       0.0815   0.9163   0.6054     C
H       0.0851   0.2305   0.1182     H
H       0.0871   0.2434   0.9693     H
C        0.096    0.766   0.6122     C
Zn     0.10503  0.16471  0.39952    Zn
O        0.118   0.2954   0.4128     O
O       0.1222   0.1513    0.533     O
C       0.1228   0.1669   0.7158     C
C       0.1243   0.1737   0.8054     C
C       0.1262   0.4791   0.4291     C
C       0.1276   0.7618   0.3855     C
C       0.1301   0.8516   0.3852     C
C       0.1302   0.5679   0.4274     C
O       0.1387   0.1843   0.2674     O
C       0.1395   0.2145   0.9944     C
C       0.1397   0.2094   0.0848     C
O       0.1418   0.0333   0.3869     O
C       0.1761    0.921   0.6051     C
C       0.1934   0.7651   0.6151     C
C       0.1976   0.3268   0.3964     C
C       0.1999   0.4246   0.3939     C
H        0.201   0.9756   0.6014     H
C       0.2026   0.1548   0.5617     C
C       0.2056   0.1623   0.6608     C
C        0.206   0.6083   0.3877     C
C       0.2098   0.7045   0.3854     C
C       0.2102   0.1764   0.8448     C
C       0.2135   0.1788   0.9413     C
C       0.2161   0.8894   0.3849     C
C       0.2163   0.1675   0.2234     C
C       0.2175   0.1745   0.1267     C
C       0.2202   0.9871    0.388     C
H       0.2301   0.7119   0.6201     H
C        0.238   0.8446   0.6104     C
O       0.2768   0.2819   0.3821     O
C       0.2793   0.4635   0.3522     C
O       0.2821   0.1526   0.5186     O
C       0.2824   0.5532   0.3502     C
C       0.2915    0.145   0.9832     C
C       0.2919   0.1668   0.6987     C
C       0.2933   0.1733   0.7879     C
C       0.2951   0.1435   0.0727     C
O       0.2966   0.1475   0.2553     O
C       0.2978   0.7445   0.3846     C
O       0.3014   0.0172   0.3923     O
C       0.3017   0.8342   0.3842     C
Zn     0.31379  0.14899  0.38591    Zn
H       0.3298   0.4281    0.326     H
H       0.3358   0.5779   0.3237     H
C       0.3422   0.8459   0.6113     C
H       0.3449   0.1219   0.9495     H
H       0.3488   0.1654   0.6637     H
H       0.3509   0.1213   0.0972     H
H       0.3519   0.1757   0.8116     H
H       0.3538    0.968    0.559     H
H       0.3546   0.7086   0.3844     H
H       0.3604   0.8583   0.3833     H
H       0.3753   0.7243   0.6684     H
C       0.3895   0.9194   0.5812     C
C       0.4037   0.7725   0.6429     C
N       0.4586     0.15   0.3878     N
H       0.4644   0.2807   0.3509     H
C       0.4852   0.9222   0.5832     C
H       0.4865   0.0269   0.4352     H
C       0.4983   0.7709   0.6371     C
C       0.5017   0.2291   0.3629     C
H       0.5135   0.9731   0.5648     H
C       0.5148   0.0778   0.4168     C
H       0.5356   0.7193   0.6491     H
N       0.5414     0.85   0.6122     N
C       0.5963   0.2275   0.3571     C
C       0.6105   0.0806   0.4188     C
H       0.6247   0.2757   0.3316     H
H       0.6396   0.1417   0.6167     H
H       0.6454   0.2914   0.6156     H
H       0.6462    0.032    0.441     H
H       0.6481   0.8243   0.1884     H
H       0.6491   0.8787   0.9028     H
H       0.6512   0.8346   0.3363     H
H       0.6551   0.8781   0.0505     H
C       0.6578   0.1541   0.3887     C
H       0.6642   0.4221   0.6763     H
H       0.6702   0.5719    0.674     H
Zn     0.68621  0.85101  0.61409    Zn
C       0.6983   0.1658   0.6158     C
O       0.6986   0.9828   0.6077     O
C       0.7022   0.2555   0.6154     C
O       0.7034   0.8525   0.7447     O
C       0.7049   0.8565   0.9273     C
C       0.7067   0.8267   0.2121     C
C       0.7081   0.8332   0.3013     C
C       0.7085    0.855   0.0168     C
C       0.7176   0.4468   0.6498     C
O       0.7179   0.8474   0.4814     O
C       0.7207   0.5365   0.6478     C
O       0.7232   0.7181   0.6179     O
C        0.762   0.1554   0.3896     C
H       0.7699   0.2881   0.3799     H
C       0.7798   0.0129    0.612     C
C       0.7825   0.8255   0.8733     C
C       0.7837   0.8325   0.7766     C
C       0.7839   0.1106   0.6151     C
C       0.7865   0.8212   0.0587     C
C       0.7898   0.8236   0.1552     C
C       0.7902   0.2955   0.6146     C
C        0.794   0.3917   0.6123     C
C       0.7944   0.8377   0.3392     C
C       0.7974   0.8452   0.4383     C
H        0.799   0.0244   0.3986     H
C       0.8001   0.5754   0.6061     C
C       0.8024   0.6732   0.6036     C
C       0.8066   0.2349   0.3849     C
C       0.8239    0.079   0.3949     C
O       0.8582   0.9667   0.6131     O
C       0.8603   0.7906   0.9152     C
C       0.8605   0.7855   0.0056     C
O       0.8613   0.8157   0.7326     O
C       0.8698   0.4321   0.5726     C
C       0.8699   0.1484   0.6148     C
C       0.8724   0.2382   0.6145     C
C       0.8738   0.5209   0.5709     C
C       0.8757   0.8263   0.1946     C
C       0.8772   0.8331   0.2842     C
O       0.8778   0.8487    0.467     O
O        0.882   0.7046   0.5872     O
Zn     0.89497  0.83529  0.60048    Zn
C        0.904    0.234   0.3878     C
H       0.9129   0.7566   0.0307     H
H       0.9149   0.7695   0.8818     H
C       0.9185   0.0837   0.3946     C
H       0.9205   0.3974   0.5458     H
H       0.9267   0.1126   0.6149     H
H        0.928   0.5449   0.5451     H
H       0.9313   0.2875   0.3858     H
H       0.9314   0.2616   0.6141     H
H       0.9329   0.8235     0.16     H
H       0.9357   0.8345   0.3083     H
H       0.9575   0.0314   0.3953     H
N       0.9608   0.1608   0.3933     N
