data_I
_chemical_name_common  '/home/zhangsd/repos/MofS-CGCNN/ML/data/TSD/clean_cifs/FEFDEB_manual'
_cell_length_a 19.25640
_cell_length_b 15.21000
_cell_length_c 15.21000
_cell_angle_alpha 90.00000
_cell_angle_beta  90.00000
_cell_angle_gamma 90.00000
_space_group_name_H-M_alt      'P 1'


loop_
_space_group_symop_operation_xyz
  'x, y, z' 

loop_
_atom_site_label
_atom_site_fract_x
_atom_site_fract_y
_atom_site_fract_z
_atom_site_type_symbol
C      0.04037  0.04033  0.07794     C
C      0.04037  0.91641  0.97948     C
C      0.04041  0.06366  0.92149     C
H      0.05965  0.87251  0.03263     H
H      0.05968 -0.00136  0.13278     H
H      0.05972  0.03981  0.85687     H
H      0.06019  0.10801  0.08975     H
H      0.06024  0.13183  0.92982     H
H       0.0603  0.88956  0.91629     H
N      0.06703  0.00673  0.99299     N
H      0.14102  0.03661  0.71959     H
H      0.14109  0.27968  0.96226     H
H      0.14114  0.73273   1.0246     H
H      0.14115  0.03887  0.55935     H
H      0.14121  0.43993  0.95981     H
H      0.14127  0.57252  1.02702     H
H      0.14147  0.97286  0.26666     H
H      0.14159  0.97055  0.42692     H
Zn     0.16716  0.00628  0.99315    Zn
C      0.18914  0.02267  0.68554     C
C      0.18919  0.31379  0.97627     C
C      0.18922  0.69865  1.01045     C
C      0.18924  0.02324  0.59254     C
C      0.18929  0.40679  0.97563     C
C      0.18932  0.60566  1.01107     C
C       0.1894  0.98777  0.30075     C
C      0.18948  0.98716  0.39375     C
O      0.19265  0.00624  0.87579     O
O      0.19267  0.12361  0.99302     O
O      0.19272  0.88888  0.99351     O
O      0.19274   0.0057  0.11052     O
C      0.25012  0.00589  0.83379     C
C      0.25014  0.84687  0.99324     C
C      0.25015  0.00581  0.73402     C
C      0.25016  0.00596  0.15253     C
C      0.25017   0.1656 -0.00671     C
C      0.25018  0.74711  0.99325     C
C      0.25019  0.26535 -0.00669     C
C       0.2502  0.00587   0.2523     C
C      0.25022  0.00581  0.54354     C
C      0.25023  0.00581  0.44278     C
C      0.25023  0.45583  0.99326     C
C      0.25023  0.55662  0.99326     C
O      0.30754  0.88892  0.99293     O
O      0.30756  0.00569  0.87581     O
O      0.30757  0.00635  0.11049     O
O      0.30766  0.12361  0.99351     O
C      0.31097  0.02448  0.39373     C
C      0.31102  0.02395  0.30072     C
C      0.31113   0.6057  0.97546     C
C      0.31116  0.40676  0.01089     C
C      0.31117  0.69872  0.97607     C
C      0.31118  0.98839  0.59261     C
C      0.31121  0.31375   0.0103     C
C      0.31121  0.98896  0.68562     C
Zn      0.3331   0.0063  0.99312    Zn
H      0.35887  0.04107   0.4269     H
H      0.35893  0.03894  0.26661     H
H      0.35919  0.57259  0.95953     H
H      0.35923  0.73286   0.9619     H
H      0.35925  0.43988  0.02668     H
H       0.3593   0.2796   0.0243     H
H       0.3593   0.9728  0.55946     H
H      0.35932  0.97507  0.71977     H
N      0.43318  0.00671  0.99295     N
H      0.43978  0.10981  0.08781     H
H      0.44015  0.13059  0.92749     H
H      0.44019   0.8882   0.9184     H
H      0.44026  0.03727  0.85619     H
H      0.44026  0.87317  0.03501     H
H      0.44071  0.00125  0.13285     H
C      0.45979  0.06219  0.92031     C
C      0.45982  0.04203   0.0772     C
C      0.45984  0.91614  0.98126     C
C      0.54037  0.91612  0.98153     C
C      0.54039  0.04227  0.07711     C
C      0.54041    0.062  0.92017     C
H      0.55967  0.03663  0.85611     H
H      0.55968  0.87345  0.03566     H
H      0.55972  0.00189   0.1329     H
H      0.56018  0.11022  0.08734     H
H      0.56027  0.13033   0.9269     H
H      0.56029  0.88782  0.91897     H
N      0.56704  0.00672  0.99295     N
H      0.64104  0.27969  0.96226     H
H      0.64109  0.03668  0.71957     H
H      0.64113  0.73276  0.02457     H
H      0.64117  0.43994   0.9598     H
H       0.6412  0.03891  0.55933     H
H      0.64125  0.57254  0.02699     H
H      0.64146  0.97289  0.26666     H
H       0.6416  0.97058  0.42691     H
Zn     0.66716  0.00629  0.99311    Zn
C      0.68914   0.3138  0.97625     C
C       0.6892  0.69867   0.0104     C
C      0.68921  0.02271  0.68551     C
C      0.68924   0.4068  0.97561     C
C      0.68929  0.60567  0.01103     C
C      0.68929  1.02327  0.59252     C
C      0.68939  0.98778  0.30073     C
C       0.6895  0.98717  0.39373     C
O      0.69262  0.12363  0.99298     O
O      0.69271  0.88889  0.99346     O
O      0.69272  1.00569  0.11049     O
O      0.69273  0.00626  0.87576     O
C      0.75012  0.16561 -0.00674     C
C      0.75013  0.84688 -0.00681     C
C      0.75014  0.00596   0.1525     C
C      0.75014  0.26536  0.99327     C
C      0.75016  0.74712   0.9932     C
C      0.75019  0.00587  0.25227     C
C      0.75019  0.00591  0.83376     C
C      0.75019  0.45584  0.99321     C
C       0.7502  0.55663  0.99321     C
C      0.75022  1.00583  0.73398     C
C      0.75026   1.0058  0.44274     C
C      0.75027  1.00581  0.54351     C
O      0.80753  0.88893   0.9929     O
O      0.80755  0.00636  0.11045     O
O      0.80761  0.12362   0.9935     O
O      0.80764  0.00571  0.87577     O
C      0.81099  0.02444  0.39368     C
C      0.81103  0.02392  0.30067     C
C      0.81109  0.60571  0.97538     C
C      0.81112  0.40677  1.01083     C
C      0.81114  0.69872  0.97598     C
C      0.81117  0.31376  1.01024     C
C      0.81123  0.98838  0.59257     C
C      0.81127  0.98896  0.68558     C
Zn     0.83309  0.00631  0.99311    Zn
H      0.85891  0.04101  0.42684     H
H      0.85893  0.03888  0.26655     H
H      0.85914  0.57259  0.95943     H
H       0.8592  0.73286  0.96179     H
H      0.85921  0.43989  1.02659     H
H      0.85926   0.2796  1.02424     H
H      0.85934  0.97276  0.55941     H
H      0.85938  0.97506  0.71973     H
N      0.93318  0.00672  0.99296     N
H      0.93979  0.10766  0.09012     H
H      0.94016  0.88991  0.91577     H
H      0.94017  0.13206  0.93032     H
H      0.94026  0.04037  0.85693     H
H      0.94029  0.87227  0.03201     H
H      0.94067  -0.0019   0.1327     H
C      0.95979  0.06383   0.9216     C
C      0.95981  0.04012    0.078     C
C      0.95984  0.91644  0.97923     C
