data_I
_chemical_name_common  '/home/zhangsd/repos/MofS-CGCNN/ML/data/TSD/clean_cifs/FEGNIQ_clean'
_cell_length_a 13.08430
_cell_length_b 25.40450
_cell_length_c 16.34160
_cell_angle_alpha 90.00000
_cell_angle_beta  93.97400
_cell_angle_gamma 90.00000
_space_group_name_H-M_alt      'P 1'


loop_
_space_group_symop_operation_xyz
  'x, y, z' 

loop_
_atom_site_label
_atom_site_fract_x
_atom_site_fract_y
_atom_site_fract_z
_atom_site_type_symbol
C          0.0  0.15799      0.0     C
C          0.0  0.21696      0.0     C
C          0.0   0.3261      0.0     C
H          0.0   0.3627      0.0     H
H          0.0   0.6373      0.0     H
C          0.0   0.6739      0.0     C
C          0.0  0.78304      0.0     C
C          0.0  0.84201      0.0     C
C      0.00507  0.21631  0.76623     C
C      0.00507  0.78369  0.76623     C
C      0.01506   0.3089  0.74246     C
C      0.01506   0.6911  0.74246     C
H       0.0318   0.1827   0.7609     H
H       0.0318   0.8173   0.7609     H
H       0.0471   0.3381   0.7214     H
H       0.0471   0.6619   0.7214     H
C      0.04776  0.28317  0.47782     C
C      0.04776  0.71683  0.47782     C
H        0.051    0.206   0.4496     H
H        0.051    0.794   0.4496     H
C      0.05534    0.259  0.73345     C
C      0.05534    0.741  0.73345     C
O      0.05888  0.13374  0.05091     O
O      0.05888  0.86626  0.05091     O
C      0.07296  0.31465   0.2171     C
C      0.07296  0.68535   0.2171     C
H       0.0794   0.3606   0.4907     H
H       0.0794   0.6394   0.4907     H
N      0.08112  0.22271  0.19471     N
N      0.08112  0.77729  0.19471     N
C      0.08202  0.24446  0.97119     C
C      0.08202  0.75554  0.97119     C
C      0.08205  0.29896  0.97094     C
C      0.08205  0.70104  0.97094     C
C      0.08561  0.23761  0.44378     C
C      0.08561  0.76239  0.44378     C
H        0.101   0.3479   0.2105     H
H        0.101   0.6521   0.2105     H
C       0.1025  0.32944  0.46827     C
C       0.1025  0.67056  0.46827     C
O       0.1145  0.45705  0.44972     O
O       0.1145  0.54295  0.44972     O
C      0.11943  0.27095  0.18648     C
C      0.11943  0.72905  0.18648     C
C       0.1315      0.5   0.4847     C
O      0.13282  0.16889  0.65663     O
O      0.13282  0.83111  0.65663     O
H       0.1371   0.2262    0.952     H
H       0.1371   0.7738    0.952     H
N      0.14542  0.25409  0.69127     N
N      0.14542  0.74591  0.69127     N
Zn     0.15353  0.16121  0.14203    Zn
Zn     0.15353  0.83879  0.14203    Zn
O       0.1641  0.09651  0.20457     O
O       0.1641  0.90349  0.20457     O
C      0.17052  0.32874  0.93918     C
C      0.17052  0.67126  0.93918     C
C      0.17354  0.23818  0.40145     C
C      0.17354  0.76182  0.40145     C
C      0.17844  0.21052  0.65419     C
C      0.17844  0.78948  0.65419     C
H       0.1791   0.2752   0.1593     H
H       0.1791   0.7248   0.1593     H
C       0.1795      0.5   0.5702     C
O      0.18259  0.37543  0.95431     O
O      0.18259  0.62457  0.95431     O
H       0.1831   0.2817    0.689     H
H       0.1831   0.7183    0.689     H
H       0.1847   0.4211   0.5845     H
H       0.1847   0.5789   0.5845     H
H       0.1867      0.0   0.2233     H
C       0.1902  0.33007  0.42625     C
C       0.1902  0.66993  0.42625     C
H       0.1972   0.2071   0.3793     H
H       0.1972   0.7929   0.3793     H
C       0.2027   0.4528  0.61015     C
C       0.2027   0.5472  0.61015     C
C        0.222      0.0   0.2747     C
C      0.22458  0.09898  0.26943     C
C      0.22458  0.90102  0.26943     C
H       0.2254   0.3615   0.4209     H
H       0.2254   0.6385   0.4209     H
C      0.22654  0.28457  0.39181     C
C      0.22654  0.71543  0.39181     C
O       0.2306  0.30156  0.89754     O
O       0.2306  0.69844  0.89754     O
O      0.23577  0.36029   0.7034     O
O      0.23577  0.63971   0.7034     O
C      0.24769   0.0476  0.31204     C
C      0.24769   0.9524  0.31204     C
C      0.25231   0.4524  0.68796     C
C      0.25231   0.5476  0.68796     C
O      0.26423  0.13971   0.2966     O
O      0.26423  0.86029   0.2966     O
O       0.2694  0.19844  0.10246     O
O       0.2694  0.80156  0.10246     O
C      0.27346  0.21543  0.60819     C
C      0.27346  0.78457  0.60819     C
H       0.2746   0.1385   0.5791     H
H       0.2746   0.8615   0.5791     H
C      0.27542  0.40102  0.73057     C
C      0.27542  0.59898  0.73057     C
C        0.278      0.5   0.7253     C
C       0.2973   0.0472  0.38985     C
C       0.2973   0.9528  0.38985     C
H       0.3028   0.2929   0.6207     H
H       0.3028   0.7071   0.6207     H
C       0.3098  0.16993  0.57375     C
C       0.3098  0.83007  0.57375     C
H       0.3133      0.5   0.7767     H
H       0.3153   0.0789   0.4155     H
H       0.3153   0.9211   0.4155     H
H       0.3169   0.2183    0.311     H
H       0.3169   0.7817    0.311     H
O      0.31741  0.12457  0.04569     O
O      0.31741  0.87543  0.04569     O
C       0.3205      0.0   0.4298     C
H       0.3209   0.2248   0.8407     H
H       0.3209   0.7752   0.8407     H
C      0.32156  0.28948  0.34581     C
C      0.32156  0.71052  0.34581     C
C      0.32646  0.26182  0.59855     C
C      0.32646  0.73818  0.59855     C
C      0.32948  0.17126  0.06082     C
C      0.32948  0.82874  0.06082     C
O       0.3359  0.40349  0.79543     O
O       0.3359  0.59651  0.79543     O
Zn     0.34647  0.33879  0.85797    Zn
Zn     0.34647  0.66121  0.85797    Zn
N      0.35458  0.24591  0.30873     N
N      0.35458  0.75409  0.30873     N
H       0.3629   0.2738    0.048     H
H       0.3629   0.7262    0.048     H
O      0.36718  0.33111  0.34337     O
O      0.36718  0.66889  0.34337     O
C       0.3685      0.0   0.5153     C
C      0.38057  0.22905  0.81352     C
C      0.38057  0.77095  0.81352     C
O       0.3855  0.04295  0.55028     O
O       0.3855  0.95705  0.55028     O
C       0.3975  0.17056  0.53173     C
C       0.3975  0.82944  0.53173     C
H        0.399   0.1521   0.7895     H
H        0.399   0.8479   0.7895     H
C      0.41439  0.26239  0.55622     C
C      0.41439  0.73761  0.55622     C
C      0.41795  0.20104  0.02906     C
C      0.41795  0.79896  0.02906     C
C      0.41798  0.25554  0.02881     C
C      0.41798  0.74446  0.02881     C
N      0.41888  0.27729  0.80529     N
N      0.41888  0.72271  0.80529     N
H       0.4206   0.1394   0.5093     H
H       0.4206   0.8606   0.5093     H
C      0.42704  0.18535   0.7829     C
C      0.42704  0.81465   0.7829     C
O      0.44112  0.36626  0.94909     O
O      0.44112  0.63374  0.94909     O
C      0.44466    0.241  0.26655     C
C      0.44466    0.759  0.26655     C
H        0.449    0.294   0.5504     H
H        0.449    0.706   0.5504     H
C      0.45224  0.21683  0.52218     C
C      0.45224  0.78317  0.52218     C
H       0.4529   0.1619   0.2786     H
H       0.4529   0.8381   0.2786     H
H       0.4682   0.3173   0.2391     H
H       0.4682   0.6827   0.2391     H
C      0.48494   0.1911  0.25754     C
C      0.48494   0.8089  0.25754     C
C      0.49493  0.28369  0.23377     C
C      0.49493  0.71631  0.23377     C
H          0.5   0.1373      0.0     H
C          0.5   0.1739      0.0     C
C          0.5  0.28304      0.0     C
C          0.5  0.34201      0.0     C
C          0.5  0.65799      0.0     C
C          0.5  0.71696      0.0     C
C          0.5   0.8261      0.0     C
H          0.5   0.8627      0.0     H
C      0.50507  0.28369  0.76623     C
C      0.50507  0.71631  0.76623     C
C      0.51506   0.1911  0.74246     C
C      0.51506   0.8089  0.74246     C
H       0.5318   0.3173   0.7609     H
H       0.5318   0.6827   0.7609     H
H       0.5471   0.1619   0.7214     H
H       0.5471   0.8381   0.7214     H
C      0.54776  0.21683  0.47782     C
C      0.54776  0.78317  0.47782     C
H        0.551    0.294   0.4496     H
H        0.551    0.706   0.4496     H
C      0.55534    0.241  0.73345     C
C      0.55534    0.759  0.73345     C
O      0.55888  0.36626  0.05091     O
O      0.55888  0.63374  0.05091     O
C      0.57296  0.18535   0.2171     C
C      0.57296  0.81465   0.2171     C
H       0.5794   0.1394   0.4907     H
H       0.5794   0.8606   0.4907     H
N      0.58112  0.27729  0.19471     N
N      0.58112  0.72271  0.19471     N
C      0.58202  0.25554  0.97119     C
C      0.58202  0.74446  0.97119     C
C      0.58205  0.20104  0.97094     C
C      0.58205  0.79896  0.97094     C
C      0.58561  0.26239  0.44378     C
C      0.58561  0.73761  0.44378     C
H        0.601   0.1521   0.2105     H
H        0.601   0.8479   0.2105     H
C       0.6025  0.17056  0.46827     C
C       0.6025  0.82944  0.46827     C
O       0.6145  0.04295  0.44972     O
O       0.6145  0.95705  0.44972     O
C      0.61943  0.22905  0.18648     C
C      0.61943  0.77095  0.18648     C
C       0.6315      0.0   0.4847     C
O      0.63282  0.33111  0.65663     O
O      0.63282  0.66889  0.65663     O
H       0.6371   0.2738    0.952     H
H       0.6371   0.7262    0.952     H
N      0.64542  0.24591  0.69127     N
N      0.64542  0.75409  0.69127     N
Zn     0.65353  0.33879  0.14203    Zn
Zn     0.65353  0.66121  0.14203    Zn
O       0.6641  0.40349  0.20457     O
O       0.6641  0.59651  0.20457     O
C      0.67052  0.17126  0.93918     C
C      0.67052  0.82874  0.93918     C
C      0.67354  0.26182  0.40145     C
C      0.67354  0.73818  0.40145     C
C      0.67844  0.28948  0.65419     C
C      0.67844  0.71052  0.65419     C
H       0.6791   0.2248   0.1593     H
H       0.6791   0.7752   0.1593     H
C       0.6795      0.0   0.5702     C
O      0.68259  0.12457  0.95431     O
O      0.68259  0.87543  0.95431     O
H       0.6831   0.2183    0.689     H
H       0.6831   0.7817    0.689     H
H       0.6847   0.0789   0.5845     H
H       0.6847   0.9211   0.5845     H
H       0.6867      0.5   0.2233     H
C       0.6902  0.16993  0.42625     C
C       0.6902  0.83007  0.42625     C
H       0.6972   0.2929   0.3793     H
H       0.6972   0.7071   0.3793     H
C       0.7027   0.0472  0.61015     C
C       0.7027   0.9528  0.61015     C
C        0.722      0.5   0.2747     C
C      0.72458  0.40102  0.26943     C
C      0.72458  0.59898  0.26943     C
H       0.7254   0.1385   0.4209     H
H       0.7254   0.8615   0.4209     H
C      0.72654  0.21543  0.39181     C
C      0.72654  0.78457  0.39181     C
O       0.7306  0.19844  0.89754     O
O       0.7306  0.80156  0.89754     O
O      0.73577  0.13971   0.7034     O
O      0.73577  0.86029   0.7034     O
C      0.74769   0.4524  0.31204     C
C      0.74769   0.5476  0.31204     C
C      0.75231   0.0476  0.68796     C
C      0.75231   0.9524  0.68796     C
O      0.76423  0.36029   0.2966     O
O      0.76423  0.63971   0.2966     O
O       0.7694  0.30156  0.10246     O
O       0.7694  0.69844  0.10246     O
C      0.77346  0.28457  0.60819     C
C      0.77346  0.71543  0.60819     C
H       0.7746   0.3615   0.5791     H
H       0.7746   0.6385   0.5791     H
C      0.77542  0.09898  0.73057     C
C      0.77542  0.90102  0.73057     C
C        0.778      0.0   0.7253     C
C       0.7973   0.4528  0.38985     C
C       0.7973   0.5472  0.38985     C
H       0.8028   0.2071   0.6207     H
H       0.8028   0.7929   0.6207     H
C       0.8098  0.33007  0.57375     C
C       0.8098  0.66993  0.57375     C
H       0.8133      0.0   0.7767     H
H       0.8153   0.4211   0.4155     H
H       0.8153   0.5789   0.4155     H
H       0.8169   0.2817    0.311     H
H       0.8169   0.7183    0.311     H
O      0.81741  0.37543  0.04569     O
O      0.81741  0.62457  0.04569     O
C       0.8205      0.5   0.4298     C
H       0.8209   0.2752   0.8407     H
H       0.8209   0.7248   0.8407     H
C      0.82156  0.21052  0.34581     C
C      0.82156  0.78948  0.34581     C
C      0.82646  0.23818  0.59855     C
C      0.82646  0.76182  0.59855     C
C      0.82948  0.32874  0.06082     C
C      0.82948  0.67126  0.06082     C
O       0.8359  0.09651  0.79543     O
O       0.8359  0.90349  0.79543     O
Zn     0.84647  0.16121  0.85797    Zn
Zn     0.84647  0.83879  0.85797    Zn
N      0.85458  0.25409  0.30873     N
N      0.85458  0.74591  0.30873     N
H       0.8629   0.2262    0.048     H
H       0.8629   0.7738    0.048     H
O      0.86718  0.16889  0.34337     O
O      0.86718  0.83111  0.34337     O
C       0.8685      0.5   0.5153     C
C      0.88057  0.27095  0.81352     C
C      0.88057  0.72905  0.81352     C
O       0.8855  0.45705  0.55028     O
O       0.8855  0.54295  0.55028     O
C       0.8975  0.32944  0.53173     C
C       0.8975  0.67056  0.53173     C
H        0.899   0.3479   0.7895     H
H        0.899   0.6521   0.7895     H
C      0.91439  0.23761  0.55622     C
C      0.91439  0.76239  0.55622     C
C      0.91795  0.29896  0.02906     C
C      0.91795  0.70104  0.02906     C
C      0.91798  0.24446  0.02881     C
C      0.91798  0.75554  0.02881     C
N      0.91888  0.22271  0.80529     N
N      0.91888  0.77729  0.80529     N
H       0.9206   0.3606   0.5093     H
H       0.9206   0.6394   0.5093     H
C      0.92704  0.31465   0.7829     C
C      0.92704  0.68535   0.7829     C
O      0.94112  0.13374  0.94909     O
O      0.94112  0.86626  0.94909     O
C      0.94466    0.259  0.26655     C
C      0.94466    0.741  0.26655     C
H        0.949    0.206   0.5504     H
H        0.949    0.794   0.5504     H
C      0.95224  0.28317  0.52218     C
C      0.95224  0.71683  0.52218     C
H       0.9529   0.3381   0.2786     H
H       0.9529   0.6619   0.2786     H
H       0.9682   0.1827   0.2391     H
H       0.9682   0.8173   0.2391     H
C      0.98494   0.3089  0.25754     C
C      0.98494   0.6911  0.25754     C
C      0.99493  0.21631  0.23377     C
C      0.99493  0.78369  0.23377     C
