data_I
_chemical_name_common  '/home/zhangsd/repos/MofS-CGCNN/ML/data/TSD/clean_cifs/FERVEF_clean'
_cell_length_a 26.22700
_cell_length_b 26.22700
_cell_length_c  9.35410
_cell_angle_alpha 90.00000
_cell_angle_beta  90.00000
_cell_angle_gamma 120.00000
_space_group_name_H-M_alt      'P 1'


loop_
_space_group_symop_operation_xyz
  'x, y, z' 

loop_
_atom_site_label
_atom_site_fract_x
_atom_site_fract_y
_atom_site_fract_z
_atom_site_type_symbol
Au         0.0  0.29292      0.0    Au
Fe         0.0      0.5      0.0    Fe
N       0.0025   0.4479   0.8559     N
N       0.0025   0.5546   0.8559     N
H      0.00993  0.14447  0.66247     H
H      0.00993  0.86547  0.66247     H
C       0.0106   0.4168   0.7828     C
C       0.0106   0.5938   0.7828     C
C      0.02877  0.05753  0.32843     C
C      0.02877  0.97123  0.32843     C
N      0.03023  0.06047  0.67027     N
N      0.03023  0.96977  0.67027     N
C      0.03087  0.15373  0.33733     C
C      0.03087  0.87713  0.33733     C
Au     0.04041  0.37375  0.66667    Au
Au     0.04041  0.66667  0.66667    Au
H      0.04387  0.23623  0.34193     H
H      0.04387  0.80763  0.34193     H
C      0.05753  0.02877  0.67157     C
N      0.06047  0.03023  0.32973     N
C      0.06057  0.12113  0.33433     C
C      0.06057  0.93943  0.33433     C
C      0.06377  0.21523  0.33983     C
C      0.06377  0.84853  0.33983     C
C      0.07287  0.32273  0.11613     C
C      0.07287  0.75013  0.11613     C
C      0.08347  0.34393  0.55053     C
C      0.08347  0.73953  0.55053     C
N        0.088    0.544   0.0059     N
H       0.0971   0.4743   0.0086     H
H       0.0971   0.6228   0.0086     H
N      0.11207  0.33083  0.18923     N
N      0.11207  0.78123  0.18923     N
N      0.11457  0.33583  0.47743     N
N      0.11457  0.77873  0.47743     N
C       0.1181   0.5152   0.0065     C
C       0.1181   0.6029   0.0065     C
C      0.12113  0.06057  0.66567     C
N      0.12267  0.24533  0.33923     N
N      0.12267  0.87733  0.33923     N
C      0.12287  0.15373  0.33733     C
C      0.12287  0.96913  0.33733     C
H      0.13453  0.14447  0.66247     H
H      0.13453  0.99007  0.66247     H
H      0.14097  0.43043  0.32473     H
H      0.14097  0.71053  0.32473     H
H      0.14447  0.00993  0.33753     H
H      0.14447  0.13453  0.33753     H
C      0.15147  0.21523  0.33983     C
C      0.15147  0.93623  0.33983     C
C      0.15373  0.03087  0.66267     C
C      0.15373  0.12287  0.66267     C
Fe     0.16667  0.33333  0.33333    Fe
Fe     0.16667  0.83333  0.33333    Fe
C       0.1796   0.5438    0.004     C
C       0.1796   0.6358    0.004     C
C      0.18187  0.45143  0.32683     C
C      0.18187  0.73043  0.32683     C
H      0.18887  0.53213  0.32913     H
H      0.18887  0.65673  0.32913     H
H      0.19237  0.23623  0.34193     H
H      0.19237  0.95613  0.34193     H
H       0.1988   0.5222   0.0042     H
H       0.1988   0.6766   0.0042     H
C      0.21047  0.51293  0.32933     C
C      0.21047  0.69753  0.32933     C
N      0.21067  0.42133  0.32743     N
N      0.21067  0.78933  0.32743     N
C       0.2122   0.6061    0.001     C
C      0.21523  0.06377  0.66017     C
C      0.21523  0.15147  0.66017     C
N      0.21877  0.33083  0.18923     N
N      0.21877  0.88793  0.18923     N
N      0.22127  0.33583  0.47743     N
N      0.22127  0.88543  0.47743     N
H      0.23623  0.04387  0.65807     H
H      0.23623  0.19237  0.65807     H
N      0.24533  0.12267  0.66077     N
C      0.24987  0.32273  0.11613     C
C      0.24987  0.92713  0.11613     C
C      0.26047  0.34393  0.55053     C
C      0.26047  0.91653  0.55053     C
C      0.26957  0.45143  0.32683     C
C      0.26957  0.81813  0.32683     C
C      0.27277  0.54553  0.33233     C
C      0.27277  0.72723  0.33233     C
N      0.27287  0.63643  0.33693     N
C       0.2758   0.6379   0.9951     C
H      0.28947  0.43043  0.32473     H
H      0.28947  0.85903  0.32473     H
Au     0.29292      0.0      0.0    Au
Au     0.29292  0.29292      0.0    Au
C      0.30247  0.51293  0.32933     C
C      0.30247  0.78953  0.32933     C
N       0.3031   0.6062   0.9964     N
N       0.3031   0.6969   0.9964     N
C      0.30457  0.60913  0.33823     C
C      0.30457  0.69543  0.33823     C
C      0.32273  0.07287  0.88387     C
C      0.32273  0.24987  0.88387     C
H       0.3234   0.5222   0.0042     H
H       0.3234   0.8012   0.0042     H
N      0.33083  0.11207  0.81077     N
N      0.33083  0.21877  0.81077     N
Fe     0.33333  0.16667  0.66667    Fe
Au     0.33333  0.37375  0.66667    Au
Au     0.33333  0.95959  0.66667    Au
N      0.33583  0.11457  0.52257     N
N      0.33583  0.22127  0.52257     N
H      0.34327  0.53213  0.32913     H
H      0.34327  0.81113  0.32913     H
C      0.34393  0.08347  0.44947     C
C      0.34393  0.26047  0.44947     C
C       0.3621   0.6379   0.9951     C
C       0.3621   0.7242   0.9951     C
N      0.36357  0.63643  0.33693     N
N      0.36357  0.72713  0.33693     N
C       0.3642   0.5438    0.004     C
C       0.3642   0.8204    0.004     C
Au     0.37375  0.04041  0.33333    Au
Au     0.37375  0.33333  0.33333    Au
H       0.3772   0.4743   0.0086     H
H       0.3772   0.9029   0.0086     H
C      0.39087  0.69543  0.33823     C
N       0.3938   0.6969   0.9964     N
C       0.3939   0.6061    0.001     C
C       0.3939   0.7878    0.001     C
C       0.3971   0.5152   0.0065     C
C       0.3971   0.8819   0.0065     C
C       0.4062   0.4168   0.7828     C
C       0.4062   0.9894   0.7828     C
C       0.4168   0.0106   0.2172     C
C       0.4168   0.4062   0.2172     C
N      0.42133  0.21067  0.67257     N
H      0.43043  0.14097  0.67527     H
H      0.43043  0.28947  0.67527     H
N       0.4454   0.4479   0.8559     N
N       0.4454   0.9975   0.8559     N
N       0.4479   0.0025   0.1441     N
N       0.4479   0.4454   0.1441     N
C      0.45143  0.18187  0.67317     C
C      0.45143  0.26957  0.67317     C
C      0.45447  0.72723  0.33233     C
N        0.456    0.544   0.0059     N
N        0.456    0.912   0.0059     N
C       0.4562   0.6358    0.004     C
C       0.4562   0.8204    0.004     C
H      0.46787  0.65673  0.32913     H
H      0.46787  0.81113  0.32913     H
H       0.4743   0.0971   0.9914     H
H       0.4743   0.3772   0.9914     H
H       0.4778   0.6766   0.0042     H
H       0.4778   0.8012   0.0042     H
C       0.4848   0.6029   0.0065     C
C       0.4848   0.8819   0.0065     C
C      0.48707  0.69753  0.32933     C
C      0.48707  0.78953  0.32933     C
Fe         0.5      0.0      0.0    Fe
Fe         0.5      0.5      0.0    Fe
C      0.51293  0.21047  0.67067     C
C      0.51293  0.30247  0.67067     C
C       0.5152   0.1181   0.9935     C
C       0.5152   0.3971   0.9935     C
H       0.5222   0.1988   0.9958     H
H       0.5222   0.3234   0.9958     H
H       0.5257   0.6228   0.0086     H
H       0.5257   0.9029   0.0086     H
H      0.53213  0.18887  0.67087     H
H      0.53213  0.34327  0.67087     H
C       0.5438   0.1796    0.996     C
C       0.5438   0.3642    0.996     C
N        0.544    0.088   0.9941     N
N        0.544    0.456   0.9941     N
C      0.54553  0.27277  0.66767     C
C      0.54857  0.73043  0.32683     C
C      0.54857  0.81813  0.32683     C
N       0.5521   0.5546   0.8559     N
N       0.5521   0.9975   0.8559     N
N       0.5546   0.0025   0.1441     N
N       0.5546   0.5521   0.1441     N
H      0.56957  0.71053  0.32473     H
H      0.56957  0.85903  0.32473     H
N      0.57867  0.78933  0.32743     N
C       0.5832   0.5938   0.7828     C
C       0.5832   0.9894   0.7828     C
C       0.5938   0.0106   0.2172     C
C       0.5938   0.5832   0.2172     C
C       0.6029   0.1181   0.9935     C
C       0.6029   0.4848   0.9935     C
C       0.6061   0.2122    0.999     C
C       0.6061   0.3939    0.999     C
N       0.6062   0.3031   0.0036     N
C      0.60913  0.30457  0.66177     C
H       0.6228   0.0971   0.9914     H
H       0.6228   0.5257   0.9914     H
Au     0.62625  0.66667  0.66667    Au
Au     0.62625  0.95959  0.66667    Au
C       0.6358   0.1796    0.996     C
C       0.6358   0.4562    0.996     C
N      0.63643  0.27287  0.66307     N
N      0.63643  0.36357  0.66307     N
C       0.6379   0.2758   0.0049     C
C       0.6379   0.3621   0.0049     C
C      0.65607  0.73953  0.55053     C
C      0.65607  0.91653  0.55053     C
H      0.65673  0.18887  0.67087     H
H      0.65673  0.46787  0.67087     H
N      0.66417  0.77873  0.47743     N
N      0.66417  0.88543  0.47743     N
Au     0.66667  0.04041  0.33333    Au
Au     0.66667  0.62625  0.33333    Au
Fe     0.66667  0.83333  0.33333    Fe
N      0.66917  0.78123  0.18923     N
N      0.66917  0.88793  0.18923     N
H       0.6766   0.1988   0.9958     H
H       0.6766   0.4778   0.9958     H
C      0.67727  0.75013  0.11613     C
C      0.67727  0.92713  0.11613     C
C      0.69543  0.30457  0.66177     C
C      0.69543  0.39087  0.66177     C
N       0.6969   0.3031   0.0036     N
N       0.6969   0.3938   0.0036     N
C      0.69753  0.21047  0.67067     C
C      0.69753  0.48707  0.67067     C
Au     0.70708      0.0      0.0    Au
Au     0.70708  0.70708      0.0    Au
H      0.71053  0.14097  0.67527     H
H      0.71053  0.56957  0.67527     H
C       0.7242   0.3621   0.0049     C
N      0.72713  0.36357  0.66307     N
C      0.72723  0.27277  0.66767     C
C      0.72723  0.45447  0.66767     C
C      0.73043  0.18187  0.67317     C
C      0.73043  0.54857  0.67317     C
C      0.73953  0.08347  0.44947     C
C      0.73953  0.65607  0.44947     C
C      0.75013  0.07287  0.88387     C
C      0.75013  0.67727  0.88387     C
N      0.75467  0.87733  0.33923     N
H      0.76377  0.80763  0.34193     H
H      0.76377  0.95613  0.34193     H
N      0.77873  0.11457  0.52257     N
N      0.77873  0.66417  0.52257     N
N      0.78123  0.11207  0.81077     N
N      0.78123  0.66917  0.81077     N
C      0.78477  0.84853  0.33983     C
C      0.78477  0.93623  0.33983     C
C       0.7878   0.3939    0.999     C
N      0.78933  0.21067  0.67257     N
N      0.78933  0.57867  0.67257     N
C      0.78953  0.30247  0.67067     C
C      0.78953  0.48707  0.67067     C
H       0.8012   0.3234   0.9958     H
H       0.8012   0.4778   0.9958     H
H      0.80763  0.04387  0.65807     H
H      0.80763  0.76377  0.65807     H
H      0.81113  0.34327  0.67087     H
H      0.81113  0.46787  0.67087     H
C      0.81813  0.26957  0.67317     C
C      0.81813  0.54857  0.67317     C
C       0.8204   0.3642    0.996     C
C       0.8204   0.4562    0.996     C
Fe     0.83333  0.16667  0.66667    Fe
Fe     0.83333  0.66667  0.66667    Fe
C      0.84627  0.87713  0.33733     C
C      0.84627  0.96913  0.33733     C
C      0.84853  0.06377  0.66017     C
C      0.84853  0.78477  0.66017     C
H      0.85553  0.86547  0.66247     H
H      0.85553  0.99007  0.66247     H
H      0.85903  0.28947  0.67527     H
H      0.85903  0.56957  0.67527     H
H      0.86547  0.00993  0.33753     H
H      0.86547  0.85553  0.33753     H
C      0.87713  0.03087  0.66267     C
C      0.87713  0.84627  0.66267     C
N      0.87733  0.12267  0.66077     N
N      0.87733  0.75467  0.66077     N
C      0.87887  0.93943  0.33433     C
C       0.8819   0.3971   0.9935     C
C       0.8819   0.4848   0.9935     C
N      0.88543  0.22127  0.52257     N
N      0.88543  0.66417  0.52257     N
N      0.88793  0.21877  0.81077     N
N      0.88793  0.66917  0.81077     N
H       0.9029   0.3772   0.9914     H
H       0.9029   0.5257   0.9914     H
N        0.912    0.456   0.9941     N
C      0.91653  0.26047  0.44947     C
C      0.91653  0.65607  0.44947     C
C      0.92713  0.24987  0.88387     C
C      0.92713  0.67727  0.88387     C
C      0.93623  0.15147  0.66017     C
C      0.93623  0.78477  0.66017     C
C      0.93943  0.06057  0.66567     C
C      0.93943  0.87887  0.66567     C
N      0.93953  0.96977  0.67027     N
C      0.94247  0.97123  0.32843     C
H      0.95613  0.19237  0.65807     H
H      0.95613  0.76377  0.65807     H
Au     0.95959  0.33333  0.33333    Au
Au     0.95959  0.62625  0.33333    Au
C      0.96913  0.12287  0.66267     C
C      0.96913  0.84627  0.66267     C
N      0.96977  0.03023  0.32973     N
N      0.96977  0.93953  0.32973     N
C      0.97123  0.02877  0.67157     C
C      0.97123  0.94247  0.67157     C
C       0.9894   0.4062   0.2172     C
C       0.9894   0.5832   0.2172     C
H      0.99007  0.13453  0.33753     H
H      0.99007  0.85553  0.33753     H
N       0.9975   0.4454   0.1441     N
N       0.9975   0.5521   0.1441     N
Au         1.0  0.70708      0.0    Au
