data_I
_chemical_name_common  '/home/zhangsd/repos/MofS-CGCNN/ML/data/TSD/clean_cifs/FERWAC_clean'
_cell_length_a  9.96960
_cell_length_b 15.73890
_cell_length_c 15.73890
_cell_angle_alpha 64.33390
_cell_angle_beta  77.81050
_cell_angle_gamma 102.19000
_space_group_name_H-M_alt      'P 1'


loop_
_space_group_symop_operation_xyz
  'x, y, z' 

loop_
_atom_site_label
_atom_site_fract_x
_atom_site_fract_y
_atom_site_fract_z
_atom_site_type_symbol
Ag         0.0  0.29662  0.29662    Ag
Fe         0.0      0.5      0.5    Fe
Ag         0.0  0.70338  0.70338    Ag
N       0.0984   0.6399   0.3601     N
H       0.1113   0.5804   0.2733     H
H       0.1113   0.7267   0.4196     H
C       0.1301   0.6412   0.2729     C
C       0.1301   0.7271   0.3588     C
N       0.1434   0.4413   0.4445     N
N       0.1434   0.5555   0.5587     N
C       0.1895   0.7291   0.1823     C
C       0.1895   0.8177   0.2709     C
C       0.1906   0.3957   0.1823     C
C       0.1906   0.8177   0.6043     C
C       0.2051   0.3957    0.422     C
C       0.2051    0.578   0.6043     C
H       0.2112    0.728   0.1224     H
H       0.2112   0.8776    0.272     H
C       0.2164  0.81855  0.18145     C
C       0.2823   0.9168   0.0832     C
Ag     0.29662  0.29662  0.40676    Ag
Ag     0.29662  0.59324  0.70338    Ag
N       0.2979   0.4413   0.1142     N
N       0.2979   0.8858   0.5587     N
N      0.30636     -0.0  0.08822     N
N      0.30636  0.91178      1.0     N
H       0.3336   0.1224   0.1496     H
H       0.3336   0.8504   0.8776     H
C       0.3655   0.0832      0.0     C
C       0.3655      1.0   0.9168     C
C       0.3718   0.1823   0.0886     C
C       0.3718   0.9114   0.8177     C
C       0.3729   0.1823    0.422     C
C       0.3729    0.578   0.8177     C
H       0.3846   0.2733   0.1463     H
H       0.3846   0.8537   0.7267     H
N      0.39458  0.08822  0.91178     N
C      0.39785     -0.0  0.81855     C
C      0.39785  0.18145      0.0     C
C        0.403   0.2729   0.0859     C
C        0.403   0.9141   0.7271     C
N       0.4121   0.1142   0.4445     N
N       0.4121   0.5555   0.8858     N
N       0.4585      0.0   0.6399     N
N       0.4585   0.3601      0.0     N
C       0.4604   0.0886   0.7291     C
C       0.4604   0.2709   0.9114     C
H       0.4691   0.5804   0.1463     H
H       0.4691   0.8537   0.4196     H
H       0.4832   0.1496    0.728     H
H       0.4832    0.272   0.8504     H
C       0.4889   0.0859   0.6412     C
C       0.4889   0.3588   0.9141     C
Fe         0.5      0.5      0.0    Fe
Fe         0.5      1.0      0.5    Fe
C       0.5111   0.6412   0.0859     C
C       0.5111   0.9141   0.3588     C
H       0.5168    0.728   0.1496     H
H       0.5168   0.8504    0.272     H
H       0.5309   0.1463   0.5804     H
H       0.5309   0.4196   0.8537     H
C       0.5396   0.7291   0.0886     C
C       0.5396   0.9114   0.2709     C
N       0.5415   0.6399      0.0     N
N       0.5415      1.0   0.3601     N
N       0.5879   0.4445   0.1142     N
N       0.5879   0.8858   0.5555     N
C        0.597   0.0859   0.2729     C
C        0.597   0.7271   0.9141     C
C      0.60215      0.0  0.18145     C
C      0.60215  0.81855      1.0     C
N      0.60542  0.91178  0.08822     N
H       0.6154   0.1463   0.2733     H
H       0.6154   0.7267   0.8537     H
C       0.6271    0.422   0.1823     C
C       0.6271   0.8177    0.578     C
C       0.6282   0.0886   0.1823     C
C       0.6282   0.8177   0.9114     C
C       0.6345   0.9168      0.0     C
C       0.6345      1.0   0.0832     C
H       0.6664   0.1496   0.1224     H
H       0.6664   0.8776   0.8504     H
N      0.69364      0.0  0.91178     N
N      0.69364  0.08822      0.0     N
N       0.7021   0.1142   0.4413     N
N       0.7021   0.5587   0.8858     N
Ag     0.70338  0.40676  0.29662    Ag
Ag     0.70338  0.70338  0.59324    Ag
C       0.7177   0.0832   0.9168     C
C       0.7836  0.18145  0.81855     C
H       0.7888   0.1224    0.728     H
H       0.7888    0.272   0.8776     H
C       0.7949    0.422   0.3957     C
C       0.7949   0.6043    0.578     C
C       0.8094   0.1823   0.3957     C
C       0.8094   0.6043   0.8177     C
C       0.8105   0.1823   0.7291     C
C       0.8105   0.2709   0.8177     C
N       0.8566   0.4445   0.4413     N
N       0.8566   0.5587   0.5555     N
C       0.8699   0.2729   0.6412     C
C       0.8699   0.3588   0.7271     C
H       0.8887   0.2733   0.5804     H
H       0.8887   0.4196   0.7267     H
N       0.9016   0.3601   0.6399     N
