data_I
_chemical_name_common  '/home/zhangsd/repos/MofS-CGCNN/ML/data/TSD/clean_cifs/FIBKEI_clean'
_cell_length_a 24.65000
_cell_length_b 33.49400
_cell_length_c 18.52900
_cell_angle_alpha 90.00000
_cell_angle_beta  90.00000
_cell_angle_gamma 90.00000
_space_group_name_H-M_alt      'P 1'


loop_
_space_group_symop_operation_xyz
  'x, y, z' 

loop_
_atom_site_label
_atom_site_fract_x
_atom_site_fract_y
_atom_site_fract_z
_atom_site_type_symbol
N          0.0  0.11915   0.6844     N
N          0.0  0.11915   0.8156     N
C          0.0  0.18958     0.75     C
H          0.0   0.2179     0.75     H
Cu         0.0  0.36021     0.25    Cu
Cu         0.0  0.43918     0.25    Cu
Cu         0.0  0.56082     0.75    Cu
Cu         0.0  0.63979     0.75    Cu
H          0.0   0.7821     0.25     H
C          0.0  0.81042     0.25     C
N          0.0  0.88085   0.1844     N
N          0.0  0.88085   0.3156     N
C      0.04507  0.13738  0.70099     C
C      0.04507  0.13738  0.79901     C
C      0.04507  0.86262  0.20099     C
C      0.04507  0.86262  0.29901     C
C      0.04789  0.17287     0.75     C
C      0.04789  0.82713     0.25     C
O      0.05437  0.36573  0.17602     O
O      0.05437  0.36573  0.32398     O
O      0.05437  0.63427  0.67602     O
O      0.05437  0.63427  0.82398     O
O      0.05702  0.43273    0.176     O
O      0.05702  0.43273    0.324     O
O      0.05702  0.56727    0.676     O
O      0.05702  0.56727    0.824     O
C      0.07393  0.39938   0.1562     C
C      0.07393  0.39938   0.3438     C
C      0.07393  0.60062   0.6562     C
C      0.07393  0.60062   0.8438     C
H       0.0779   0.1276   0.6809     H
H       0.0779   0.1276   0.8191     H
H       0.0779   0.8724   0.1809     H
H       0.0779   0.8724   0.3191     H
C      0.10064  0.19484     0.75     C
C      0.10064  0.80516     0.25     C
H       0.1084   0.1992   0.6407     H
H       0.1084   0.1992   0.8593     H
H       0.1084   0.8008   0.1407     H
H       0.1084   0.8008   0.3593     H
C      0.12097  0.39695  0.10601     C
C      0.12097  0.39695  0.39399     C
C      0.12097  0.60305  0.60601     C
C      0.12097  0.60305  0.89399     C
H       0.1212   0.3371   0.0989     H
H       0.1212   0.3371   0.4011     H
H       0.1212   0.6629   0.5989     H
H       0.1212   0.6629   0.9011     H
C       0.1248  0.20642  0.68529     C
C       0.1248  0.20642  0.81471     C
C       0.1248  0.79358  0.18529     C
C       0.1248  0.79358  0.31471     C
H       0.1348   0.4569   0.0997     H
H       0.1348   0.4569   0.4003     H
H       0.1348   0.5431   0.5997     H
H       0.1348   0.5431   0.9003     H
C      0.13963  0.36061   0.0841     C
C      0.13963  0.36061   0.4159     C
C      0.13963  0.63939   0.5841     C
C      0.13963  0.63939   0.9159     C
C      0.14801   0.4315  0.08499     C
C      0.14801   0.4315  0.41501     C
C      0.14801   0.5685  0.58499     C
C      0.14801   0.5685  0.91501     C
H       0.1567      0.5      0.0     H
H       0.1567      0.5      0.5     H
C      0.17258  0.22841   0.6854     C
C      0.17258  0.22841   0.8146     C
C      0.17258  0.77159   0.1854     C
C      0.17258  0.77159   0.3146     C
O       0.1763  0.22777   0.5585     O
O       0.1763  0.22777   0.9415     O
O       0.1763  0.77223   0.0585     O
O       0.1763  0.77223   0.4415     O
O      0.18241  0.28692  0.04535     O
O      0.18241  0.28692  0.45465     O
O      0.18241  0.71308  0.54535     O
O      0.18241  0.71308  0.95465     O
C      0.18553  0.35751  0.04019     C
C      0.18553  0.35751  0.45981     C
C      0.18553  0.64249  0.54019     C
C      0.18553  0.64249  0.95981     C
N       0.1921      0.0      0.0     N
N       0.1921      0.0      0.5     N
C      0.19461  0.42895  0.04221     C
C      0.19461  0.42895  0.45779     C
C      0.19461  0.57105  0.54221     C
C      0.19461  0.57105  0.95779     C
C      0.19527      0.5      0.0     C
C      0.19527      0.5      0.5     C
C      0.19567  0.23954     0.75     C
C      0.19567  0.76046     0.25     C
C      0.19994  0.23866  0.61546     C
C      0.19994  0.23866  0.88454     C
C      0.19994  0.76134  0.11546     C
C      0.19994  0.76134  0.38454     C
H       0.2003   0.0553   0.5359     H
H       0.2003   0.0553   0.9641     H
H       0.2003   0.9447   0.0359     H
H       0.2003   0.9447   0.4641     H
C      0.20689  0.31655  0.02117     C
C      0.20689  0.31655  0.47883     C
C      0.20689  0.68345  0.52117     C
C      0.20689  0.68345  0.97883     C
Cu     0.21002  0.23273  0.03633    Cu
Cu     0.21002  0.23273  0.46367    Cu
Cu     0.21002  0.76727  0.53633    Cu
Cu     0.21002  0.76727  0.96367    Cu
C      0.21331  0.39168  0.02082     C
C      0.21331  0.39168  0.47918     C
C      0.21331  0.60832  0.52082     C
C      0.21331  0.60832  0.97918     C
C       0.2199  0.03237  0.52063     C
C       0.2199  0.03237  0.97937     C
C       0.2199  0.96763  0.02063     C
C       0.2199  0.96763  0.47937     C
C      0.22315  0.46606  0.02061     C
C      0.22315  0.46606  0.47939     C
C      0.22315  0.53394  0.52061     C
C      0.22315  0.53394  0.97939     C
H       0.2279   0.2551     0.75     H
H       0.2279   0.7449     0.25     H
O      0.24414  0.25654  0.61948     O
O      0.24414  0.25654  0.88052     O
O      0.24414  0.74346  0.11948     O
O      0.24414  0.74346  0.38052     O
H       0.2454   0.3897   0.5073     H
H       0.2454   0.3897   0.9927     H
H       0.2454   0.6103   0.0073     H
H       0.2454   0.6103   0.4927     H
O      0.24936  0.31657  0.51496     O
O      0.24936  0.31657  0.98504     O
O      0.24936  0.68343  0.01496     O
O      0.24936  0.68343  0.48504     O
O      0.25064  0.18343  0.01496     O
O      0.25064  0.18343  0.48504     O
O      0.25064  0.81657  0.51496     O
O      0.25064  0.81657  0.98504     O
H       0.2546   0.1103   0.0073     H
H       0.2546   0.1103   0.4927     H
H       0.2546   0.8897   0.5073     H
H       0.2546   0.8897   0.9927     H
O      0.25586  0.24346  0.11948     O
O      0.25586  0.24346  0.38052     O
O      0.25586  0.75654  0.61948     O
O      0.25586  0.75654  0.88052     O
H       0.2721   0.2449     0.25     H
H       0.2721   0.7551     0.75     H
C      0.27685  0.03394  0.52061     C
C      0.27685  0.03394  0.97939     C
C      0.27685  0.96606  0.02061     C
C      0.27685  0.96606  0.47939     C
C       0.2801  0.46763  0.02063     C
C       0.2801  0.46763  0.47937     C
C       0.2801  0.53237  0.52063     C
C       0.2801  0.53237  0.97937     C
C      0.28669  0.10832  0.52082     C
C      0.28669  0.10832  0.97918     C
C      0.28669  0.89168  0.02082     C
C      0.28669  0.89168  0.47918     C
Cu     0.28998  0.26727  0.53633    Cu
Cu     0.28998  0.26727  0.96367    Cu
Cu     0.28998  0.73273  0.03633    Cu
Cu     0.28998  0.73273  0.46367    Cu
C      0.29311  0.18345  0.52117     C
C      0.29311  0.18345  0.97883     C
C      0.29311  0.81655  0.02117     C
C      0.29311  0.81655  0.47883     C
H       0.2997   0.4447   0.0359     H
H       0.2997   0.4447   0.4641     H
H       0.2997   0.5553   0.5359     H
H       0.2997   0.5553   0.9641     H
C      0.30006  0.26134  0.11546     C
C      0.30006  0.26134  0.38454     C
C      0.30006  0.73866  0.61546     C
C      0.30006  0.73866  0.88454     C
C      0.30433  0.26046     0.25     C
C      0.30433  0.73954     0.75     C
C      0.30473      0.0      0.0     C
C      0.30473      0.0      0.5     C
C      0.30539  0.07105  0.54221     C
C      0.30539  0.07105  0.95779     C
C      0.30539  0.92895  0.04221     C
C      0.30539  0.92895  0.45779     C
N       0.3079      0.5      0.0     N
N       0.3079      0.5      0.5     N
C      0.31447  0.14249  0.54019     C
C      0.31447  0.14249  0.95981     C
C      0.31447  0.85751  0.04019     C
C      0.31447  0.85751  0.45981     C
O      0.31759  0.21308  0.54535     O
O      0.31759  0.21308  0.95465     O
O      0.31759  0.78692  0.04535     O
O      0.31759  0.78692  0.45465     O
O       0.3237  0.27223   0.0585     O
O       0.3237  0.27223   0.4415     O
O       0.3237  0.72777   0.5585     O
O       0.3237  0.72777   0.9415     O
C      0.32742  0.27159   0.1854     C
C      0.32742  0.27159   0.3146     C
C      0.32742  0.72841   0.6854     C
C      0.32742  0.72841   0.8146     C
H       0.3433      0.0      0.0     H
H       0.3433      0.0      0.5     H
C      0.35199   0.0685  0.58499     C
C      0.35199   0.0685  0.91501     C
C      0.35199   0.9315  0.08499     C
C      0.35199   0.9315  0.41501     C
C      0.36037  0.13939   0.5841     C
C      0.36037  0.13939   0.9159     C
C      0.36037  0.86061   0.0841     C
C      0.36037  0.86061   0.4159     C
H       0.3652   0.0431   0.5997     H
H       0.3652   0.0431   0.9003     H
H       0.3652   0.9569   0.0997     H
H       0.3652   0.9569   0.4003     H
C       0.3752  0.29358  0.18529     C
C       0.3752  0.29358  0.31471     C
C       0.3752  0.70642  0.68529     C
C       0.3752  0.70642  0.81471     C
H       0.3788   0.1629   0.5989     H
H       0.3788   0.1629   0.9011     H
H       0.3788   0.8371   0.0989     H
H       0.3788   0.8371   0.4011     H
C      0.37903  0.10305  0.60601     C
C      0.37903  0.10305  0.89399     C
C      0.37903  0.89695  0.10601     C
C      0.37903  0.89695  0.39399     C
H       0.3916   0.3008   0.1407     H
H       0.3916   0.3008   0.3593     H
H       0.3916   0.6992   0.6407     H
H       0.3916   0.6992   0.8593     H
C      0.39936  0.30516     0.25     C
C      0.39936  0.69484     0.75     C
H       0.4221   0.3724   0.1809     H
H       0.4221   0.3724   0.3191     H
H       0.4221   0.6276   0.6809     H
H       0.4221   0.6276   0.8191     H
C      0.42607  0.10062   0.6562     C
C      0.42607  0.10062   0.8438     C
C      0.42607  0.89938   0.1562     C
C      0.42607  0.89938   0.3438     C
O      0.44298  0.06727    0.676     O
O      0.44298  0.06727    0.824     O
O      0.44298  0.93273    0.176     O
O      0.44298  0.93273    0.324     O
O      0.44563  0.13427  0.67602     O
O      0.44563  0.13427  0.82398     O
O      0.44563  0.86573  0.17602     O
O      0.44563  0.86573  0.32398     O
C      0.45211  0.32713     0.25     C
C      0.45211  0.67287     0.75     C
C      0.45493  0.36262  0.20099     C
C      0.45493  0.36262  0.29901     C
C      0.45493  0.63738  0.70099     C
C      0.45493  0.63738  0.79901     C
Cu         0.5  0.06082     0.75    Cu
Cu         0.5  0.13979     0.75    Cu
H          0.5   0.2821     0.25     H
C          0.5  0.31042     0.25     C
N          0.5  0.38085   0.1844     N
N          0.5  0.38085   0.3156     N
N          0.5  0.61915   0.6844     N
N          0.5  0.61915   0.8156     N
C          0.5  0.68958     0.75     C
H          0.5   0.7179     0.75     H
Cu         0.5  0.86021     0.25    Cu
Cu         0.5  0.93918     0.25    Cu
C      0.54507  0.36262  0.20099     C
C      0.54507  0.36262  0.29901     C
C      0.54507  0.63738  0.70099     C
C      0.54507  0.63738  0.79901     C
C      0.54789  0.32713     0.25     C
C      0.54789  0.67287     0.75     C
O      0.55437  0.13427  0.67602     O
O      0.55437  0.13427  0.82398     O
O      0.55437  0.86573  0.17602     O
O      0.55437  0.86573  0.32398     O
O      0.55702  0.06727    0.676     O
O      0.55702  0.06727    0.824     O
O      0.55702  0.93273    0.176     O
O      0.55702  0.93273    0.324     O
C      0.57393  0.10062   0.6562     C
C      0.57393  0.10062   0.8438     C
C      0.57393  0.89938   0.1562     C
C      0.57393  0.89938   0.3438     C
H       0.5779   0.3724   0.1809     H
H       0.5779   0.3724   0.3191     H
H       0.5779   0.6276   0.6809     H
H       0.5779   0.6276   0.8191     H
C      0.60064  0.30516     0.25     C
C      0.60064  0.69484     0.75     C
H       0.6084   0.3008   0.1407     H
H       0.6084   0.3008   0.3593     H
H       0.6084   0.6992   0.6407     H
H       0.6084   0.6992   0.8593     H
C      0.62097  0.10305  0.60601     C
C      0.62097  0.10305  0.89399     C
C      0.62097  0.89695  0.10601     C
C      0.62097  0.89695  0.39399     C
H       0.6212   0.1629   0.5989     H
H       0.6212   0.1629   0.9011     H
H       0.6212   0.8371   0.0989     H
H       0.6212   0.8371   0.4011     H
C       0.6248  0.29358  0.18529     C
C       0.6248  0.29358  0.31471     C
C       0.6248  0.70642  0.68529     C
C       0.6248  0.70642  0.81471     C
H       0.6348   0.0431   0.5997     H
H       0.6348   0.0431   0.9003     H
H       0.6348   0.9569   0.0997     H
H       0.6348   0.9569   0.4003     H
C      0.63963  0.13939   0.5841     C
C      0.63963  0.13939   0.9159     C
C      0.63963  0.86061   0.0841     C
C      0.63963  0.86061   0.4159     C
C      0.64801   0.0685  0.58499     C
C      0.64801   0.0685  0.91501     C
C      0.64801   0.9315  0.08499     C
C      0.64801   0.9315  0.41501     C
H       0.6567      0.0      0.0     H
H       0.6567      0.0      0.5     H
C      0.67258  0.27159   0.1854     C
C      0.67258  0.27159   0.3146     C
C      0.67258  0.72841   0.6854     C
C      0.67258  0.72841   0.8146     C
O       0.6763  0.27223   0.0585     O
O       0.6763  0.27223   0.4415     O
O       0.6763  0.72777   0.5585     O
O       0.6763  0.72777   0.9415     O
O      0.68241  0.21308  0.54535     O
O      0.68241  0.21308  0.95465     O
O      0.68241  0.78692  0.04535     O
O      0.68241  0.78692  0.45465     O
C      0.68553  0.14249  0.54019     C
C      0.68553  0.14249  0.95981     C
C      0.68553  0.85751  0.04019     C
C      0.68553  0.85751  0.45981     C
N       0.6921      0.5      0.0     N
N       0.6921      0.5      0.5     N
C      0.69461  0.07105  0.54221     C
C      0.69461  0.07105  0.95779     C
C      0.69461  0.92895  0.04221     C
C      0.69461  0.92895  0.45779     C
C      0.69527      0.0      0.0     C
C      0.69527      0.0      0.5     C
C      0.69567  0.26046     0.25     C
C      0.69567  0.73954     0.75     C
C      0.69994  0.26134  0.11546     C
C      0.69994  0.26134  0.38454     C
C      0.69994  0.73866  0.61546     C
C      0.69994  0.73866  0.88454     C
H       0.7003   0.4447   0.0359     H
H       0.7003   0.4447   0.4641     H
H       0.7003   0.5553   0.5359     H
H       0.7003   0.5553   0.9641     H
C      0.70689  0.18345  0.52117     C
C      0.70689  0.18345  0.97883     C
C      0.70689  0.81655  0.02117     C
C      0.70689  0.81655  0.47883     C
Cu     0.71002  0.26727  0.53633    Cu
Cu     0.71002  0.26727  0.96367    Cu
Cu     0.71002  0.73273  0.03633    Cu
Cu     0.71002  0.73273  0.46367    Cu
C      0.71331  0.10832  0.52082     C
C      0.71331  0.10832  0.97918     C
C      0.71331  0.89168  0.02082     C
C      0.71331  0.89168  0.47918     C
C       0.7199  0.46763  0.02063     C
C       0.7199  0.46763  0.47937     C
C       0.7199  0.53237  0.52063     C
C       0.7199  0.53237  0.97937     C
C      0.72315  0.03394  0.52061     C
C      0.72315  0.03394  0.97939     C
C      0.72315  0.96606  0.02061     C
C      0.72315  0.96606  0.47939     C
H       0.7279   0.2449     0.25     H
H       0.7279   0.7551     0.75     H
O      0.74414  0.24346  0.11948     O
O      0.74414  0.24346  0.38052     O
O      0.74414  0.75654  0.61948     O
O      0.74414  0.75654  0.88052     O
H       0.7454   0.1103   0.0073     H
H       0.7454   0.1103   0.4927     H
H       0.7454   0.8897   0.5073     H
H       0.7454   0.8897   0.9927     H
O      0.74936  0.18343  0.01496     O
O      0.74936  0.18343  0.48504     O
O      0.74936  0.81657  0.51496     O
O      0.74936  0.81657  0.98504     O
O      0.75064  0.31657  0.51496     O
O      0.75064  0.31657  0.98504     O
O      0.75064  0.68343  0.01496     O
O      0.75064  0.68343  0.48504     O
H       0.7546   0.3897   0.5073     H
H       0.7546   0.3897   0.9927     H
H       0.7546   0.6103   0.0073     H
H       0.7546   0.6103   0.4927     H
O      0.75586  0.25654  0.61948     O
O      0.75586  0.25654  0.88052     O
O      0.75586  0.74346  0.11948     O
O      0.75586  0.74346  0.38052     O
H       0.7721   0.2551     0.75     H
H       0.7721   0.7449     0.25     H
C      0.77685  0.46606  0.02061     C
C      0.77685  0.46606  0.47939     C
C      0.77685  0.53394  0.52061     C
C      0.77685  0.53394  0.97939     C
C       0.7801  0.03237  0.52063     C
C       0.7801  0.03237  0.97937     C
C       0.7801  0.96763  0.02063     C
C       0.7801  0.96763  0.47937     C
C      0.78669  0.39168  0.02082     C
C      0.78669  0.39168  0.47918     C
C      0.78669  0.60832  0.52082     C
C      0.78669  0.60832  0.97918     C
Cu     0.78998  0.23273  0.03633    Cu
Cu     0.78998  0.23273  0.46367    Cu
Cu     0.78998  0.76727  0.53633    Cu
Cu     0.78998  0.76727  0.96367    Cu
C      0.79311  0.31655  0.02117     C
C      0.79311  0.31655  0.47883     C
C      0.79311  0.68345  0.52117     C
C      0.79311  0.68345  0.97883     C
H       0.7997   0.0553   0.5359     H
H       0.7997   0.0553   0.9641     H
H       0.7997   0.9447   0.0359     H
H       0.7997   0.9447   0.4641     H
C      0.80006  0.23866  0.61546     C
C      0.80006  0.23866  0.88454     C
C      0.80006  0.76134  0.11546     C
C      0.80006  0.76134  0.38454     C
C      0.80433  0.23954     0.75     C
C      0.80433  0.76046     0.25     C
C      0.80473      0.5      0.0     C
C      0.80473      0.5      0.5     C
C      0.80539  0.42895  0.04221     C
C      0.80539  0.42895  0.45779     C
C      0.80539  0.57105  0.54221     C
C      0.80539  0.57105  0.95779     C
N       0.8079      0.0      0.0     N
N       0.8079      0.0      0.5     N
C      0.81447  0.35751  0.04019     C
C      0.81447  0.35751  0.45981     C
C      0.81447  0.64249  0.54019     C
C      0.81447  0.64249  0.95981     C
O      0.81759  0.28692  0.04535     O
O      0.81759  0.28692  0.45465     O
O      0.81759  0.71308  0.54535     O
O      0.81759  0.71308  0.95465     O
O       0.8237  0.22777   0.5585     O
O       0.8237  0.22777   0.9415     O
O       0.8237  0.77223   0.0585     O
O       0.8237  0.77223   0.4415     O
C      0.82742  0.22841   0.6854     C
C      0.82742  0.22841   0.8146     C
C      0.82742  0.77159   0.1854     C
C      0.82742  0.77159   0.3146     C
H       0.8433      0.5      0.0     H
H       0.8433      0.5      0.5     H
C      0.85199   0.4315  0.08499     C
C      0.85199   0.4315  0.41501     C
C      0.85199   0.5685  0.58499     C
C      0.85199   0.5685  0.91501     C
C      0.86037  0.36061   0.0841     C
C      0.86037  0.36061   0.4159     C
C      0.86037  0.63939   0.5841     C
C      0.86037  0.63939   0.9159     C
H       0.8652   0.4569   0.0997     H
H       0.8652   0.4569   0.4003     H
H       0.8652   0.5431   0.5997     H
H       0.8652   0.5431   0.9003     H
C       0.8752  0.20642  0.68529     C
C       0.8752  0.20642  0.81471     C
C       0.8752  0.79358  0.18529     C
C       0.8752  0.79358  0.31471     C
H       0.8788   0.3371   0.0989     H
H       0.8788   0.3371   0.4011     H
H       0.8788   0.6629   0.5989     H
H       0.8788   0.6629   0.9011     H
C      0.87903  0.39695  0.10601     C
C      0.87903  0.39695  0.39399     C
C      0.87903  0.60305  0.60601     C
C      0.87903  0.60305  0.89399     C
H       0.8916   0.1992   0.6407     H
H       0.8916   0.1992   0.8593     H
H       0.8916   0.8008   0.1407     H
H       0.8916   0.8008   0.3593     H
C      0.89936  0.19484     0.75     C
C      0.89936  0.80516     0.25     C
H       0.9221   0.1276   0.6809     H
H       0.9221   0.1276   0.8191     H
H       0.9221   0.8724   0.1809     H
H       0.9221   0.8724   0.3191     H
C      0.92607  0.39938   0.1562     C
C      0.92607  0.39938   0.3438     C
C      0.92607  0.60062   0.6562     C
C      0.92607  0.60062   0.8438     C
O      0.94298  0.43273    0.176     O
O      0.94298  0.43273    0.324     O
O      0.94298  0.56727    0.676     O
O      0.94298  0.56727    0.824     O
O      0.94563  0.36573  0.17602     O
O      0.94563  0.36573  0.32398     O
O      0.94563  0.63427  0.67602     O
O      0.94563  0.63427  0.82398     O
C      0.95211  0.17287     0.75     C
C      0.95211  0.82713     0.25     C
C      0.95493  0.13738  0.70099     C
C      0.95493  0.13738  0.79901     C
C      0.95493  0.86262  0.20099     C
C      0.95493  0.86262  0.29901     C
