data_I
_chemical_name_common  '/home/zhangsd/repos/MofS-CGCNN/ML/data/TSD/clean_cifs/FIFPAM_clean'
_cell_length_a  8.12660
_cell_length_b 10.48150
_cell_length_c 11.31670
_cell_angle_alpha 62.41270
_cell_angle_beta  84.18700
_cell_angle_gamma 77.36700
_space_group_name_H-M_alt      'P 1'


loop_
_space_group_symop_operation_xyz
  'x, y, z' 

loop_
_atom_site_label
_atom_site_fract_x
_atom_site_fract_y
_atom_site_fract_z
_atom_site_type_symbol
C       0.0172  0.31201  0.68938     C
C       0.0173  0.31593  0.80934     C
H        0.028   0.4112   0.8096     H
C       0.0439  0.30212  0.07176     C
C       0.0474  0.29615   0.1967     C
H        0.055   0.3895    0.605     H
H          0.1   0.3629   0.2102     H
H        0.106   0.3736   0.0008     H
O       0.1381  0.98771  0.59282     O
H        0.209   0.9407   0.4406     H
C       0.2276   0.9122   0.5424     C
O       0.3432  0.80483  0.60136     O
H       0.4008   0.1789   0.8274     H
H        0.415   0.3813   0.6274     H
H        0.418   0.9861   0.0098     H
H        0.425    0.776    0.218     H
C       0.4382  0.25805   0.8245     C
C       0.4433  0.38129  0.70542     C
C       0.4455  0.87555   0.2105     C
C       0.4456  0.99354  0.08652     C
N       0.4819   0.8754    0.323     N
C       0.4837  0.12307  0.07306     C
C       0.4895  0.25258  0.94084     C
Ni     0.48977  0.68815  0.50778    Ni
N       0.4957  0.49877  0.69206     N
C       0.5172  0.00139  0.31062     C
C       0.5173  0.12527  0.19066     C
H        0.528   0.2208   0.1904     H
C       0.5439  0.37388  0.92824     C
C       0.5474  0.49285   0.8033     C
H        0.555   0.9945    0.395     H
H          0.6   0.5731   0.7898     H
H        0.606   0.3744   0.9992     H
O       0.6381  0.58053  0.40718     O
H        0.709   0.3813   0.5594     H
C       0.7276   0.4546   0.4576     C
O       0.8432  0.40619  0.39864     O
H       0.9008   0.0063   0.1726     H
H        0.915   0.0087   0.3726     H
H        0.918   0.9959   0.9902     H
H        0.925    0.994    0.782     H
C       0.9382  0.08255   0.1755     C
C       0.9433  0.08671  0.29458     C
C       0.9455  0.08605   0.7895     C
C       0.9456  0.08006  0.91348     C
N       0.9819   0.1984    0.677     N
C       0.9837  0.19613  0.92694     C
C       0.9895  0.19342  0.05916     C
Ni     0.98977  0.19593  0.49222    Ni
N       0.9957  0.19083  0.30794     N
