data_I
_chemical_name_common  '/home/zhangsd/repos/MofS-CGCNN/ML/data/TSD/clean_cifs/FIJDIM04_clean'
_cell_length_a 10.72800
_cell_length_b 13.50010
_cell_length_c 14.39970
_cell_angle_alpha 76.70420
_cell_angle_beta  68.12970
_cell_angle_gamma 66.58870
_space_group_name_H-M_alt      'P 1'


loop_
_space_group_symop_operation_xyz
  'x, y, z' 

loop_
_atom_site_label
_atom_site_fract_x
_atom_site_fract_y
_atom_site_fract_z
_atom_site_type_symbol
O       0.0003  0.00848  0.80812     O
C      0.00547  0.46899  0.89687     C
C      0.01383  0.02535  0.26019     C
O      0.01825  0.10115  0.97595     O
C      0.02512  0.28128  0.93908     C
C      0.03167   0.8047  0.99596     C
O      0.04157  0.87873  0.71653     O
H       0.0455   0.4585   0.0919     H
C      0.04879  0.61074  0.04308     C
H       0.0959   0.0415   0.4081     H
C      0.10375  0.94062  0.32048     C
C      0.12867  0.96899  0.39687     C
O      0.13104  0.78359  0.91373     O
H       0.1347   0.5915   0.9909     H
C      0.13515  0.44062  0.82048     C
O      0.13683  0.62127  0.78347     O
H       0.1372   0.8131   0.2527     H
Mn     0.14232  0.96103  0.89025    Mn
C      0.15303  0.25333  0.86081     C
C      0.15494  0.83262   0.3031     C
C      0.20063  0.52535  0.76019     C
H       0.2012   0.1813   0.8469     H
C      0.20261  0.88926  0.45692     C
C      0.20934  0.33262   0.8031     C
H       0.2171   0.9085   0.5091     H
Mn     0.21729     0.75     0.75    Mn
C      0.23283  0.75333  0.36081     C
C      0.25452  0.78128  0.43908     C
H       0.2706   0.6813   0.3469     H
O      0.28937  0.02716   0.7651     O
H        0.297   0.3131   0.7527     H
O       0.3169  0.49152  0.69188     O
O       0.3185  0.86643  0.73397     O
O      0.32836  0.71641  0.58627     O
C      0.33233   0.6953  0.50404     C
C       0.3389  0.95571  0.70589     C
H       0.3399   0.6239   0.1153     H
H       0.3437   0.6611   0.9487     H
C      0.40435  0.57426  0.06904     C
O      0.40465  0.60115  0.47595     O
C       0.4063  0.59634  0.96926     C
O      0.41837  0.52716   0.2651     O
O       0.4189  0.63357  0.76603     O
H       0.4209   0.1239   0.6153     H
C      0.42379  0.97791  0.59951     C
C      0.45235  0.07426  0.56904     C
H       0.4535   0.8389   0.5513     H
C       0.4719  0.90366  0.53074     C
Mn      0.4936  0.53897  0.60975    Mn
C      0.49879  0.47791  0.09951     C
C       0.4995  0.45571  0.20589     C
C       0.5005  0.54429  0.79411     C
C      0.50121  0.52209  0.90049     C
Mn      0.5064  0.46103  0.39025    Mn
C       0.5281  0.09634  0.46926     C
H       0.5465   0.1611   0.4487     H
C      0.54765  0.92574  0.43096     C
C      0.57621  0.02209  0.40049     C
H       0.5791   0.8761   0.3847     H
O       0.5811  0.36643  0.23397     O
O      0.58163  0.47284   0.7349     O
C       0.5937  0.40366  0.03074     C
O      0.59535  0.39885  0.52405     O
C      0.59565  0.42574  0.93096     C
H       0.6563   0.3389   0.0513     H
H       0.6601   0.3761   0.8847     H
C       0.6611  0.04429  0.29411     C
C      0.66767   0.3047  0.49596     C
O      0.67164  0.28359  0.41373     O
O       0.6815  0.13357  0.26603     O
O       0.6831  0.50848  0.30812     O
H        0.703   0.6869   0.2473     H
O      0.71063  0.97284   0.2349     O
H       0.7294   0.3187   0.6531     H
C      0.74548  0.21872  0.56092     C
C      0.76717  0.24667  0.63919     C
Mn     0.78271     0.25     0.25    Mn
H       0.7829   0.0915   0.4909     H
C      0.79066  0.66738   0.1969     C
C      0.79739  0.11074  0.54308     C
H       0.7988   0.8187   0.1531     H
C      0.79937  0.47465  0.23981     C
C      0.84506  0.16738   0.6969     C
C      0.84697  0.74667  0.13919     C
Mn     0.85768  0.03897  0.10975    Mn
H       0.8628   0.1869   0.7473     H
O      0.86317  0.37873  0.21653     O
C      0.86485  0.55938  0.17952     C
H       0.8653   0.4085   0.0091     H
O      0.86896  0.21641  0.08627     O
C      0.87133  0.03101  0.60313     C
C      0.89625  0.05938  0.67952     C
H       0.9041   0.9585   0.5919     H
C      0.95121  0.38926  0.95692     C
H       0.9545   0.5415   0.9081     H
O      0.95843  0.12127  0.28347     O
C      0.96833   0.1953  0.00404     C
C      0.97488  0.71872  0.06092     C
O      0.98175  0.89885  0.02405     O
C      0.98617  0.97465  0.73981     C
C      0.99453  0.53101  0.10313     C
O       0.9997  0.99152  0.19188     O
