data_I
_chemical_name_common  '/home/zhangsd/repos/MofS-CGCNN/ML/data/TSD/clean_cifs/FIJDIM02_clean'
_cell_length_a 10.68430
_cell_length_b 13.48410
_cell_length_c 14.37890
_cell_angle_alpha 76.88040
_cell_angle_beta  68.19010
_cell_angle_gamma 66.66030
_space_group_name_H-M_alt      'P 1'


loop_
_space_group_symop_operation_xyz
  'x, y, z' 

loop_
_atom_site_label
_atom_site_fract_x
_atom_site_fract_y
_atom_site_fract_z
_atom_site_type_symbol
O      0.00138  0.00832  0.80792     O
C      0.00468  0.46954   0.8967     C
C      0.01333  0.02562  0.26032     C
O       0.0183  0.10116  0.97604     O
C      0.02445  0.28174  0.93916     C
C       0.0322  0.80446  0.99574     C
O      0.04245  0.87835  0.71615     O
H       0.0468   0.4578   0.0924     H
C      0.04966  0.61035  0.04293     C
H        0.097   0.0422   0.4076     H
C      0.10352  0.94093  0.32063     C
C      0.12908  0.96954   0.3967     C
O      0.13234  0.78325  0.91367     O
C      0.13492  0.44093  0.82063     C
H       0.1358    0.591   0.9906     H
H       0.1369   0.8135   0.2525     H
O      0.13695  0.62165  0.78385     O
Mn     0.14335  0.96079  0.89067    Mn
C       0.1529  0.25332  0.86068     C
C       0.1548  0.83292  0.30308     C
C      0.20073  0.52562  0.76032     C
H       0.2012   0.1813   0.8467     H
C      0.20294  0.88965  0.45707     C
C       0.2092  0.33292  0.80308     C
H       0.2174    0.909   0.5094     H
Mn     0.21861     0.75     0.75    Mn
C       0.2331  0.75332  0.36068     C
C      0.25465  0.78174  0.43916     C
H       0.2708   0.6813   0.3467     H
O       0.2908  0.02747  0.76573     O
H       0.2971   0.3135   0.7525     H
O      0.31762  0.49168  0.69208     O
O      0.32005  0.86647  0.73483     O
O      0.32926  0.71675  0.58633     O
C       0.3324  0.69554  0.50426     C
H         0.34   0.6253   0.1147     H
C       0.3401  0.95602  0.70658     C
H       0.3463   0.6621   0.9479     H
C      0.40438  0.57513  0.06871     C
O       0.4045  0.60116  0.47604     O
C      0.40786  0.59687  0.96881     C
O        0.416  0.52747  0.26573     O
H         0.42   0.1253   0.6147     H
O      0.42135  0.63353  0.76517     O
C      0.42445   0.9783   0.5998     C
C      0.45178  0.07513  0.56871     C
H       0.4563   0.8379   0.5521     H
C      0.47354  0.90313  0.53119     C
Mn     0.49481  0.53921  0.60933    Mn
C       0.4973  0.45602  0.20658     C
C      0.49745   0.4783   0.0998     C
C      0.50255   0.5217   0.9002     C
C       0.5027  0.54398  0.79342     C
Mn     0.50519  0.46079  0.39067    Mn
C      0.52646  0.09687  0.46881     C
H       0.5437   0.1621   0.4479     H
C      0.54822  0.92487  0.43129     C
C      0.57555   0.0217   0.4002     C
O      0.57865  0.36647  0.23483     O
H         0.58   0.8747   0.3853     H
O        0.584  0.47253  0.73427     O
C      0.59214  0.40313  0.03119     C
O       0.5955  0.39884  0.52396     O
C      0.59562  0.42487  0.93129     C
H       0.6537   0.3379   0.0521     H
C       0.6599  0.04398  0.29342     C
H         0.66   0.3747   0.8853     H
C       0.6676  0.30446  0.49574     C
O      0.67074  0.28325  0.41367     O
O      0.67995  0.13353  0.26517     O
O      0.68238  0.50832  0.30792     O
H       0.7029   0.6865   0.2475     H
O       0.7092  0.97253  0.23427     O
H       0.7292   0.3187   0.6533     H
C      0.74535  0.21826  0.56084     C
C       0.7669  0.24668  0.63932     C
Mn     0.78139     0.25     0.25    Mn
H       0.7826    0.091   0.4906     H
C       0.7908  0.66708  0.19692     C
C      0.79706  0.11035  0.54293     C
H       0.7988   0.8187   0.1533     H
C      0.79927  0.47438  0.23968     C
C       0.8452  0.16708  0.69692     C
C       0.8471  0.74668  0.13932     C
Mn     0.85665  0.03921  0.10933    Mn
O      0.86305  0.37835  0.21615     O
H       0.8631   0.1865   0.7475     H
H       0.8642    0.409   0.0094     H
C      0.86508  0.55907  0.17937     C
O      0.86766  0.21675  0.08633     O
C      0.87092  0.03046   0.6033     C
C      0.89648  0.05907  0.67937     C
H        0.903   0.9578   0.5924     H
C      0.95034  0.38965  0.95707     C
H       0.9532   0.5422   0.9076     H
O      0.95755  0.12165  0.28385     O
C       0.9678  0.19554  0.00426     C
C      0.97555  0.71826  0.06084     C
O       0.9817  0.89884  0.02396     O
C      0.98667  0.97438  0.73968     C
C      0.99532  0.53046   0.1033     C
O      0.99862  0.99168  0.19208     O
