data_I
_chemical_name_common  '/home/zhangsd/repos/MofS-CGCNN/ML/data/TSD/clean_cifs/FIJDIM09_clean'
_cell_length_a 10.85420
_cell_length_b 13.50210
_cell_length_c 14.45120
_cell_angle_alpha 76.37670
_cell_angle_beta  67.94200
_cell_angle_gamma 66.30030
_space_group_name_H-M_alt      'P 1'


loop_
_space_group_symop_operation_xyz
  'x, y, z' 

loop_
_atom_site_label
_atom_site_fract_x
_atom_site_fract_y
_atom_site_fract_z
_atom_site_type_symbol
O      0.00429  0.99099  0.19123     O
C       0.0068  0.46812  0.89648     C
C      0.01695  0.02467  0.25943     C
O      0.01753  0.10138  0.97542     O
C      0.02615  0.28071  0.93919     C
C      0.03064   0.8052  0.99604     C
O      0.03886  0.87952  0.71752     O
H       0.0441   0.4592   0.0926     H
C      0.04666  0.61155  0.04333     C
H       0.0959   0.0408   0.4074     H
C      0.10415  0.93995  0.32055     C
O       0.1282  0.78432  0.91374     O
C       0.1286  0.96812  0.39648     C
H       0.1317   0.5922   0.9912     H
C      0.13535  0.43995  0.82055     C
O       0.1359  0.62048  0.78248     O
Mn     0.13902  0.96206  0.88862    Mn
H       0.1396   0.8122   0.2532     H
C      0.15316  0.25229  0.86159     C
C      0.15621  0.83181  0.30377     C
C      0.19895  0.52467  0.75943     C
H       0.2014   0.1801   0.8483     H
C      0.20154  0.88845  0.45667     C
C      0.20821  0.33181  0.80377     C
Mn     0.21379     0.75     0.75    Mn
H       0.2151   0.9078   0.5088     H
C      0.23296  0.75229  0.36159     C
C      0.25395  0.78071  0.43919     C
H       0.2702   0.6801   0.3483     H
O      0.28294  0.02773  0.76239     O
H        0.295   0.3122   0.7532     H
O      0.31349  0.49099  0.69123     O
O      0.31374  0.86689  0.73109     O
O      0.32626  0.71568  0.58626     O
C      0.33188   0.6948  0.50396     C
C      0.33403  0.95586  0.70368     C
H       0.3387    0.659   0.9516     H
H       0.3405   0.6218   0.1162     H
C      0.40328    0.595  0.97104     C
C      0.40488  0.57291  0.06953     C
O      0.40567  0.60138  0.47542     O
O      0.41172  0.63311  0.76891     O
C      0.42149  0.97839  0.59823     C
H       0.4215   0.1218   0.6162     H
O      0.42694  0.52773  0.26239     O
H       0.4493    0.841   0.5484     H
C      0.45268  0.07291  0.56953     C
C      0.46932    0.905  0.52896     C
Mn      0.4897  0.53794  0.61138    Mn
C      0.49357  0.54414  0.79632     C
C      0.49811  0.52161  0.90177     C
C      0.50189  0.47839  0.09823     C
C      0.50643  0.45586  0.20368     C
Mn      0.5103  0.46206  0.38862    Mn
C      0.53068    0.095  0.47104     C
C      0.54732  0.92709  0.43047     C
H       0.5507    0.159   0.4516     H
O      0.57306  0.47227  0.73761     O
H       0.5785   0.8782   0.3838     H
C      0.57851  0.02161  0.40177     C
O      0.58828  0.36689  0.23109     O
O      0.59433  0.39862  0.52458     O
C      0.59512  0.42709  0.93047     C
C      0.59672    0.405  0.02896     C
H       0.6595   0.3782   0.8838     H
H       0.6613    0.341   0.0484     H
C      0.66597  0.04414  0.29632     C
C      0.66812   0.3052  0.49604     C
O      0.67374  0.28432  0.41374     O
O      0.68626  0.13311  0.26891     O
O      0.68651  0.50901  0.30877     O
H        0.705   0.6878   0.2468     H
O      0.71706  0.97227  0.23761     O
H       0.7298   0.3199   0.6517     H
C      0.74605  0.21929  0.56081     C
C      0.76704  0.24771  0.63841     C
H       0.7849   0.0922   0.4912     H
Mn     0.78621     0.25     0.25    Mn
C      0.79179  0.66819  0.19623     C
C      0.79846  0.11155  0.54333     C
H       0.7986   0.8199   0.1517     H
C      0.80105  0.47533  0.24057     C
C      0.84379  0.16819  0.69623     C
C      0.84684  0.74771  0.13841     C
H       0.8604   0.1878   0.7468     H
Mn     0.86098  0.03794  0.11138    Mn
O       0.8641  0.37952  0.21752     O
C      0.86465  0.56005  0.17945     C
H       0.8683   0.4078   0.0088     H
C       0.8714  0.03188  0.60352     C
O       0.8718  0.21568  0.08626     O
C      0.89585  0.06005  0.67945     C
H       0.9041   0.9592   0.5926     H
C      0.95334  0.38845  0.95667     C
H       0.9559   0.5408   0.9074     H
O      0.96114  0.12048  0.28248     O
C      0.96936   0.1948  0.00396     C
C      0.97385  0.71929  0.06081     C
O      0.98247  0.89862  0.02458     O
C      0.98305  0.97533  0.74057     C
C       0.9932  0.53188  0.10352     C
O      0.99571  0.00901  0.80877     O
