data_I
_chemical_name_common  '/home/zhangsd/repos/MofS-CGCNN/ML/data/TSD/clean_cifs/FIJDIM11_clean'
_cell_length_a 10.65700
_cell_length_b 13.53690
_cell_length_c 14.41730
_cell_angle_alpha 76.98160
_cell_angle_beta  68.30950
_cell_angle_gamma 66.81950
_space_group_name_H-M_alt      'P 1'


loop_
_space_group_symop_operation_xyz
  'x, y, z' 

loop_
_atom_site_label
_atom_site_fract_x
_atom_site_fract_y
_atom_site_fract_z
_atom_site_type_symbol
C      0.00352  0.02165  0.39989     C
Mn     0.00407  0.96085  0.89084    Mn
C      0.00459  0.04382  0.29302     C
C      0.02539  0.59763  0.96817     C
H       0.0423   0.6627   0.9469     H
C      0.04964    0.424  0.93154     C
C      0.07494  0.52165  0.89989     C
O      0.07584  0.86618   0.7361     O
H       0.0826   0.3734    0.886     H
O      0.08599  0.97169  0.23403     O
C      0.09119  0.90237  0.53183     C
C      0.09482    0.924  0.43154     C
O       0.0959  0.89859  0.02393     O
H       0.1519   0.8373   0.5531     H
H        0.158   0.8734    0.386     H
C      0.15857  0.54382  0.79302     C
C       0.1669  0.80436  0.99546     C
O      0.16948  0.78307  0.91339     O
O      0.17812  0.63382   0.7639     O
O      0.18246  0.00796  0.80808     O
H       0.2027   0.1865   0.7471     H
O      0.20829  0.47169  0.73403     O
H       0.2301    0.818   0.1528     H
C      0.24474  0.71802  0.06054     C
C      0.26734  0.74625  0.13899     C
H       0.2797   0.5904    0.991     H
Mn     0.28017     0.75     0.75    Mn
C      0.29076  0.16696   0.6967     C
C      0.29529  0.60955  0.04281     C
H       0.2991    0.318   0.6528     H
C      0.29927  0.97418  0.73966     C
C      0.34558  0.66696   0.1967     C
C      0.34742  0.24625  0.63899     C
Mn     0.35576  0.53916  0.60916    Mn
H       0.3611   0.9096    0.509     H
O      0.36329  0.87817  0.71559     O
H       0.3637   0.6865   0.2471     H
C      0.36557   0.0583   0.6792     C
O      0.36594  0.71693  0.58661     O
C      0.36945  0.52985  0.10303     C
C      0.39693   0.5583   0.1792     C
H       0.4006   0.4576   0.0924     H
C      0.44765  0.89045  0.45719     C
H       0.4506   0.0424   0.4076     H
O      0.45705  0.62183  0.78441     O
C      0.46672  0.69564  0.50454     C
C       0.4767  0.21802  0.56054     C
O      0.48158  0.39859  0.52393     O
C      0.48689  0.47418  0.23966     C
C      0.49767  0.02985  0.60303     C
O       0.4985  0.49204  0.69192     O
O       0.5015  0.50796  0.30808     O
C      0.50233  0.97015  0.39697     C
C      0.51311  0.52582  0.76034     C
O      0.51842  0.60141  0.47607     O
C       0.5233  0.78198  0.43946     C
C      0.53328  0.30436  0.49546     C
O      0.54295  0.37817  0.21559     O
H       0.5494   0.9576   0.5924     H
C      0.55235  0.10955  0.54281     C
H       0.5994   0.5424   0.9076     H
C      0.60307   0.4417   0.8208     C
C      0.63055  0.47015  0.89697     C
O      0.63406  0.28307  0.41339     O
C      0.63443   0.9417   0.3208     C
H       0.6363   0.3135   0.7529     H
O      0.63671  0.12183  0.28441     O
H       0.6389   0.0904    0.491     H
Mn     0.64424  0.46085  0.39084    Mn
C      0.65258  0.75375  0.36101     C
C      0.65442  0.33304   0.8033     C
C      0.70073  0.02582  0.26034     C
H       0.7009    0.682   0.3472     H
C      0.70471  0.39045  0.95719     C
C      0.70924  0.83304   0.3033     C
Mn     0.71983     0.25     0.25    Mn
H       0.7203   0.4096    0.009     H
C      0.73266  0.25375  0.86101     C
C      0.75526  0.28198  0.93946     C
H       0.7699    0.182   0.8472     H
O      0.79171  0.52831  0.26597     O
H       0.7973   0.8135   0.2529     H
O      0.81754  0.99204  0.19192     O
O      0.82188  0.36618   0.2361     O
O      0.83052  0.21693  0.08661     O
C       0.8331  0.19564  0.00454     C
C      0.84143  0.45618  0.20698     C
H        0.842   0.1266    0.614     H
H       0.8481   0.1627   0.4469     H
O       0.9041  0.10141  0.97607     O
C      0.90518    0.076  0.56846     C
C      0.90881  0.09763  0.46817     C
O      0.91401  0.02831  0.76597     O
H       0.9174   0.6266    0.114     H
O      0.92416  0.13382   0.2639     O
C      0.92506  0.47835  0.10011     C
C      0.95036    0.576  0.06846     C
H       0.9577   0.3373   0.0531     H
C      0.97461  0.40237  0.03183     C
C      0.99541  0.95618  0.70698     C
Mn     0.99593  0.03915  0.10916    Mn
C      0.99648  0.97835  0.60011     C
