data_I
_chemical_name_common  '/home/zhangsd/repos/MofS-CGCNN/ML/data/TSD/clean_cifs/FIPKOG_clean'
_cell_length_a 10.21700
_cell_length_b 10.36200
_cell_length_c 18.11800
_cell_angle_alpha 102.53000
_cell_angle_beta  99.35000
_cell_angle_gamma 93.79000
_space_group_name_H-M_alt      'P 1'


loop_
_space_group_symop_operation_xyz
  'x, y, z' 

loop_
_atom_site_label
_atom_site_fract_x
_atom_site_fract_y
_atom_site_fract_z
_atom_site_type_symbol
O        0.022   0.7929   0.3043     O
H       0.0439   0.5561   0.3199     H
O       0.0476   0.2989   0.2942     O
Cd     0.04815  0.04702  0.31582    Cd
C       0.0694   0.8198   0.3731     C
C       0.0799   0.5762   0.3721     C
C       0.0885   0.3292   0.3648     C
O       0.0957   0.9368   0.4129     O
C       0.1006   0.7082   0.4129     C
O       0.1081   0.2428   0.4037     O
C       0.1117   0.4745   0.4078     C
O       0.1281   0.0182   0.7914     O
C       0.1546   0.7371   0.4913     C
C       0.1642   0.5044   0.4865     C
H       0.1689   0.8249   0.5193     H
O       0.1785   0.9968   0.2277     O
H       0.1838   0.4365   0.5114     H
C       0.1868   0.6362   0.5274     C
O       0.1869   0.9352  0.68055     O
H       0.1926   0.6661   0.7542     H
H       0.2105    0.734   0.6358     H
C       0.2159   0.9876   0.7512     C
N       0.2409   0.6691   0.6076     N
H       0.2584   0.7285   0.8863     H
C        0.283   0.6779   0.7755     C
H       0.2861   0.9023   0.1154     H
C       0.2957   0.0064   0.2642     C
C       0.3219   0.7151   0.8548     C
O       0.3256   0.0388   0.3353     O
H       0.3263    0.083   0.8974     H
C       0.3343    0.608   0.6427     C
H       0.3574   0.2748   0.1403     H
C       0.3602   0.0184   0.7892     C
H       0.3657   0.8701   0.9922     H
C        0.375   0.9224   0.1395     C
C       0.3756    0.658   0.7277     C
O       0.3894    0.516   0.6084     O
O       0.3908   0.2776   0.0014     O
C       0.3934     0.07   0.8683     C
C       0.4055   0.9761   0.2179     C
H       0.4263   0.3349   0.2718     H
N       0.4381   0.8473   0.0151     N
H       0.4401    0.961   0.6933     H
C       0.4479   0.2867   0.1614     C
C       0.4572   0.7321   0.8867     C
C       0.4616   0.9954   0.7462     C
C       0.4748   0.8981   0.0962     C
C       0.4894    0.323   0.2399     C
C       0.4921   0.2331   0.0281     C
C       0.5079   0.7669   0.9719     C
C       0.5106    0.677   0.7601     C
C       0.5252   0.1019   0.9038     C
C       0.5384   0.0046   0.2538     C
C       0.5428   0.2679   0.1133     C
C       0.5521   0.7133   0.8386     C
H       0.5599    0.039   0.3067     H
N       0.5619   0.1527   0.9849     N
H       0.5737   0.6651   0.7282     H
C       0.5945   0.0239   0.7821     C
C       0.6066     0.93   0.1317     C
O       0.6092   0.7224   0.9986     O
O       0.6106    0.484   0.3916     O
C       0.6244    0.342   0.2723     C
C        0.625   0.0776   0.8605     C
H       0.6343   0.1299   0.0078     H
C       0.6398   0.9816   0.2108     C
H       0.6426   0.7252   0.8597     H
C       0.6657    0.392   0.3573     C
H       0.6737    0.917   0.1026     H
O       0.6744   0.9612   0.6647     O
C       0.6781   0.2849   0.1452     C
C       0.7043   0.9936   0.7358     C
H       0.7139   0.0977   0.8846     H
C        0.717   0.3221   0.2245     C
H       0.7416   0.2715   0.1137     H
N       0.7591   0.3309   0.3924     N
C       0.7841   0.0124   0.2488     C
H       0.7895    0.266   0.3642     H
H       0.8074   0.3339   0.2458     H
O       0.8131   0.0648  0.31945     O
C       0.8132   0.3638   0.4726     C
H       0.8162   0.5635   0.4886     H
O       0.8215   0.0032   0.7723     O
H       0.8311   0.1751   0.4807     H
C       0.8358   0.4956   0.5135     C
C       0.8454   0.2629   0.5087     C
O       0.8719   0.9818   0.2086     O
C       0.8883   0.5255   0.5922     C
O       0.8919   0.7572   0.5963     O
C       0.8994   0.2918   0.5871     C
O       0.9043   0.0632   0.5871     O
C       0.9115   0.6708   0.6352     C
C       0.9201   0.4238   0.6279     C
C       0.9306   0.1802   0.6269     C
Cd     0.95185  0.95298  0.68418    Cd
O       0.9524   0.7011   0.7058     O
H       0.9561   0.4439   0.6801     H
O        0.978   0.2071   0.6957     O
