data_I
_chemical_name_common  '/home/zhangsd/repos/MofS-CGCNN/ML/data/TSD/clean_cifs/FIRMUQ_clean'
_cell_length_a 15.17380
_cell_length_b 15.17380
_cell_length_c 18.85900
_cell_angle_alpha 90.00000
_cell_angle_beta  90.00000
_cell_angle_gamma 120.00000
_space_group_name_H-M_alt      'P 1'


loop_
_space_group_symop_operation_xyz
  'x, y, z' 

loop_
_atom_site_label
_atom_site_fract_x
_atom_site_fract_y
_atom_site_fract_z
_atom_site_type_symbol
N          0.0  0.24089  0.83333     N
C          0.0  0.41719  0.83333     C
C          0.0  0.51528  0.83333     C
N          0.0  0.69702  0.83333     N
Ni         0.0  0.83518  0.83333    Ni
H       0.0083   0.9224  0.68803     H
C       0.0099   0.4478    0.296     C
C       0.0122  0.29019  0.29661     C
F       0.0228  0.53106  0.26284     F
C       0.0238   0.3767   0.2625     C
C       0.0247  0.21127  0.25655     C
H        0.025     0.13  0.92117     H
N       0.0271  0.39064  0.89313     N
C      0.02808  0.30327  0.88987     C
C      0.03127  0.66802  0.88971     C
C      0.03338  0.57778  0.89161     C
F      0.04261  0.38856  0.19237     F
C        0.051  0.17527  0.95896     C
O      0.05133  0.17463  0.41145     O
H       0.0526   0.7098  0.92957     H
H        0.057     0.56  0.93157     H
C       0.0587  0.26928  0.95491     C
C      0.06718  0.91784  0.68614     C
H       0.0776   0.0859  0.02137     H
C      0.08216  0.14934  0.01948     C
H       0.0859   0.0776  0.31197     H
N      0.09111  0.88106  0.74292     N
C      0.09668  0.33529   0.0126     C
H       0.1025   0.3992  0.01137     H
H        0.105    0.975  0.58783     H
O       0.1088   0.2396  0.22853     O
N      0.11894  0.21005  0.07626     N
O       0.1233  0.94867  0.07812     O
C      0.12427    0.949  0.62562     C
C      0.12567   0.3015  0.07223     C
H         0.13    0.025  0.41217     H
O       0.1308   0.8912  0.89519     O
C      0.14934  0.08216  0.31386     C
H        0.151   0.3446  0.11127     H
Ni     0.16482  0.16482  0.16667    Ni
O      0.17463  0.05133  0.92188     O
C      0.17527    0.051  0.37438     C
C      0.17583  0.87433  0.73889     C
C      0.18657   0.9753  0.92321     C
H       0.1936    0.849  0.77793     H
N      0.21005  0.11894  0.25708     N
C      0.21058   0.9413  0.62157     C
C      0.21127   0.0247  0.07679     C
C      0.23861  0.90332  0.67926     C
O       0.2396   0.1088  0.10481     O
N      0.24089      0.0      0.5     N
C      0.26928   0.0587  0.37843     C
C      0.27519  0.97192  0.55653     C
C      0.27799   0.9878  0.96327     C
C      0.29019   0.0122  0.03673     C
H       0.2902   0.3428   0.2629     H
H       0.2967   0.8975  0.67803     H
C       0.3015  0.12567  0.26111     C
N      0.30298  0.30298  0.16667     N
C      0.30327  0.02808  0.44347     C
C      0.33198  0.36325  0.22304     C
C      0.33529  0.09668  0.32074     C
H       0.3428   0.2902  0.07043     H
H       0.3446    0.151  0.22207     H
F      0.34595  0.95739  0.85903     F
C       0.3529   0.9762  0.92916     C
C      0.36325  0.33198  0.11029     C
N      0.36354   0.9729  0.55979     N
C       0.3767   0.0238  0.07084     C
F      0.38856  0.04261  0.14097     F
N      0.39064   0.0271  0.44021     N
H       0.3992   0.1025  0.32197     H
C      0.41719     -0.0      0.5     C
C      0.42222   0.4556  0.22494     C
C       0.4379   0.9901  0.96266     C
H         0.44    0.497   0.2649     H
C       0.4478   0.0099  0.03734     C
C       0.4556  0.42222  0.10839     C
F      0.46894  0.49174  0.59617     F
C      0.48472  0.48472  0.16667     C
F      0.49174  0.46894  0.73716     F
H        0.497     0.44  0.06843     H
H        0.503    0.943  0.59823     H
F      0.50826   0.9772   0.9295     F
C      0.51528     -0.0      0.5     C
F      0.53106   0.0228   0.0705     F
C       0.5444  0.96662  0.55827     C
C       0.5522   0.5621  0.62933     C
H         0.56    0.057  0.40177     H
C       0.5621   0.5522    0.704     C
C      0.57778  0.03338  0.44173     C
C      0.58281  0.58281  0.16667     C
H       0.6008   0.7033   0.3447     H
N      0.60936  0.63646  0.22646     N
F      0.61144  0.65405   0.5257     F
C       0.6233   0.6471  0.59583     C
N      0.63646  0.60936  0.10687     N
C      0.63675  0.96873  0.55637     C
C       0.6471   0.6233   0.7375     C
F      0.65405  0.61144  0.80763     F
H       0.6554   0.8064   0.4446     H
H       0.6572   0.9474  0.59623     H
C      0.66471  0.76139  0.34593     C
C      0.66802  0.03127  0.44363     C
C      0.69673  0.72481   0.2232     C
N      0.69702      0.0      0.5     N
C       0.6985  0.82417  0.40556     C
H       0.7033   0.6008  0.98863     H
H       0.7098   0.0526  0.40377     H
C      0.70981  0.72201  0.62994     C
C      0.72201  0.70981  0.70339     C
C      0.72481  0.69673  0.11013     C
C      0.73072  0.78942  0.28824     C
N      0.75911  0.75911  0.16667     N
O       0.7604   0.8692  0.56186     O
C      0.76139  0.66471   0.9874     C
C      0.78873  0.81343  0.58988     C
C      0.78942  0.73072  0.04509     C
N      0.78995  0.90889  0.40959     N
H       0.8064   0.6554  0.88873     H
C      0.81343  0.78873  0.74345     C
C      0.82417   0.6985  0.92777     C
C      0.82473  0.87573  0.29229     C
O      0.82537   0.8767  0.74478     O
Ni     0.83518      0.0      0.5    Ni
H        0.849   0.1936   0.5554     H
C      0.85066  0.93282  0.35281     C
O       0.8692   0.7604  0.77147     O
H         0.87    0.895   0.2545     H
C      0.87433  0.17583  0.59444     C
C      0.87573  0.82473  0.04104     C
O       0.8767  0.82537  0.58855     O
N      0.88106  0.09111  0.59041     N
O       0.8912   0.1308  0.43814     O
H        0.895     0.87  0.07883     H
H       0.8975   0.2967   0.6553     H
C      0.90332  0.23861  0.65407     C
N      0.90889  0.78995  0.92374     N
H       0.9141   0.9917   0.3547     H
C      0.91784  0.06718  0.64719     C
H       0.9224   0.0083   0.6453     H
C      0.93282  0.85066  0.98052     C
C       0.9413  0.21058  0.71176     C
H        0.943    0.503   0.7351     H
H       0.9474   0.6572   0.7371     H
O      0.94867   0.1233  0.25522     O
C        0.949  0.12427  0.70771     C
F      0.95739  0.34595   0.4743     F
C      0.96662   0.5444  0.77506     C
C      0.96873  0.63675  0.77696     C
C      0.97192  0.27519   0.7768     C
N       0.9729  0.36354  0.77354     N
H        0.975    0.105   0.7455     H
C       0.9753  0.18657  0.41012     C
C       0.9762   0.3529  0.40417     C
F       0.9772  0.50826  0.40383     F
C       0.9878  0.27799  0.37006     C
C       0.9901   0.4379  0.37067     C
H       0.9917   0.9141  0.97863     H
