data_I
_chemical_name_common  '/home/zhangsd/repos/MofS-CGCNN/ML/data/TSD/clean_cifs/FITJEY_clean'
_cell_length_a 10.04760
_cell_length_b 14.98690
_cell_length_c 22.24260
_cell_angle_alpha 90.00000
_cell_angle_beta  90.00000
_cell_angle_gamma 107.58600
_space_group_name_H-M_alt      'P 1'


loop_
_space_group_symop_operation_xyz
  'x, y, z' 

loop_
_atom_site_label
_atom_site_fract_x
_atom_site_fract_y
_atom_site_fract_z
_atom_site_type_symbol
C       0.0096   0.0009   0.9649     C
O       0.0108   0.6507   0.1671     O
C       0.0218   0.8666   0.5466     C
C       0.0257    0.336   0.7809     C
Er      0.0262  0.49739   0.1414    Er
O       0.0299   0.4924   0.7556     O
O       0.0316   0.2896   0.5657     O
H       0.0332   0.8637   0.5894     H
H       0.0372   0.9305   0.5347     H
C       0.0443    0.552   0.0011     C
C       0.0474   0.4193   0.7364     C
O       0.0482   0.2634   0.7615     O
P       0.0494  0.34556  0.50861     P
O       0.0669    0.963   0.0644     O
O       0.0673   0.9008   0.3476     O
O       0.0705   0.5881   0.0528     O
O         0.08   0.4041    0.683     O
O       0.0821   0.5909    0.952     O
Er     0.08284  0.25316  0.65621    Er
H       0.0881   0.8421   0.5268     H
O       0.0887   0.6609   0.5201     O
O       0.0956   0.9644   0.9451     O
N       0.1211   0.1895   0.4702     N
H       0.1213   0.2982   0.4171     H
O       0.1221    0.655   0.8341     O
H       0.1299   0.1827   0.5105     H
O       0.1419   0.4144   0.2039     O
O       0.1434   0.4438    0.516     O
C       0.1468   0.2902   0.4584     C
O       0.1568   0.7528   0.3327     O
H       0.1799   0.3101   0.9514     H
O        0.186   0.4353   0.0866     O
O       0.1866   0.1649   0.5903     O
C       0.1981   0.9161   0.3498     C
O       0.2131   0.5089   0.8604     O
H       0.2139   0.0888   0.4518     H
H       0.2184   0.1555    0.397     H
C       0.2184   0.3707   0.1812     C
O       0.2213   0.1795   0.7084     O
C       0.2281   0.1526   0.4398     C
C       0.2399   0.3819   0.1125     C
Er     0.24157  0.90742  0.01384    Er
H       0.2458   0.3221   0.4628     H
C       0.2481   0.8304   0.3381     C
C       0.2519   0.6696   0.8381     C
H       0.2542   0.1779   0.9628     H
Er     0.25843  0.59258  0.51384    Er
C       0.2601   0.1181   0.6125     C
C       0.2719   0.3474   0.9398     C
O       0.2787   0.3205   0.2084     O
C       0.2816   0.1293   0.6812     C
H       0.2816   0.3445    0.897     H
H       0.2861   0.4112   0.9518     H
O       0.2869   0.9911   0.3604     O
C       0.3019   0.5839   0.8498     C
O       0.3134   0.3351   0.0903     O
O        0.314   0.0647   0.5866     O
H       0.3201   0.1899   0.4514     H
O       0.3432   0.7472   0.8327     O
C       0.3532   0.2098   0.9584     C
O       0.3566   0.0562    0.016     O
O       0.3581   0.0856   0.7039     O
H       0.3701   0.3173   0.0105     H
O       0.3779    0.845   0.3341     O
H       0.3787   0.2018   0.9171     H
N       0.3789   0.3105   0.9702     N
O       0.4044   0.5356   0.4451     O
O       0.4113   0.8391   0.0201     O
H       0.4119   0.6579   0.0268     H
Er     0.41716  0.24684  0.15621    Er
O       0.4179   0.9091    0.452     O
O         0.42   0.0959    0.183     O
O       0.4295   0.9119   0.5528     O
O       0.4327   0.5992   0.8476     O
O       0.4331    0.537   0.5644     O
P       0.4506  0.15444  0.00861     P
O       0.4518   0.2366   0.2615     O
C       0.4526   0.0807   0.2364     C
C       0.4557    0.948   0.5011     C
H       0.4628   0.5695   0.0347     H
H       0.4668   0.6363   0.0894     H
O       0.4684   0.2104   0.0657     O
O       0.4701   0.0076   0.2556     O
Er      0.4738  0.00261   0.6414    Er
C       0.4743    0.164   0.2809     C
C       0.4782   0.6334   0.0466     C
O       0.4892   0.8493   0.6671     O
C       0.4904   0.4991   0.4649     C
C       0.5096   0.5009   0.5351     C
O       0.5108   0.1507   0.3329     O
C       0.5218   0.3666   0.9534     C
C       0.5257    0.836   0.7191     C
Er      0.5262  0.99739   0.3586    Er
O       0.5299   0.9924   0.7444     O
O       0.5316   0.7896   0.9343     O
H       0.5332   0.3637   0.9106     H
H       0.5372   0.4305   0.9653     H
C       0.5443    0.052   0.4989     C
C       0.5474   0.9193   0.7636     C
O       0.5482   0.7634   0.7385     O
P       0.5494  0.84556  0.99139     P
O       0.5669    0.463   0.4356     O
O       0.5673   0.4008   0.1524     O
O       0.5705   0.0881   0.4472     O
O         0.58   0.9041    0.817     O
O       0.5821   0.0909    0.548     O
Er     0.58284  0.75316  0.84379    Er
H       0.5881   0.3421   0.9732     H
O       0.5887   0.1609   0.9799     O
O       0.5956   0.4644   0.5549     O
N       0.6211   0.6895   0.0298     N
H       0.6213   0.7982   0.0829     H
O       0.6221    0.155   0.6659     O
H       0.6299   0.6827   0.9895     H
O       0.6419   0.9144   0.2961     O
O       0.6434   0.9438    0.984     O
C       0.6468   0.7902   0.0416     C
O       0.6568   0.2528   0.1673     O
H       0.6799   0.8101   0.5486     H
O        0.686   0.9353   0.4134     O
O       0.6866   0.6649   0.9097     O
C       0.6981   0.4161   0.1502     C
O       0.7131   0.0089   0.6396     O
H       0.7139   0.5888   0.0482     H
H       0.7184   0.6555    0.103     H
C       0.7184   0.8707   0.3188     C
O       0.7213   0.6795   0.7916     O
C       0.7281   0.6526   0.0602     C
C       0.7399   0.8819   0.3875     C
Er     0.74157  0.40742  0.48616    Er
H       0.7458   0.8221   0.0372     H
C       0.7481   0.3304   0.1619     C
C       0.7519   0.1696   0.6619     C
H       0.7542   0.6779   0.5372     H
Er     0.75843  0.09258  0.98616    Er
C       0.7601   0.6181   0.8875     C
C       0.7719   0.8474   0.5602     C
O       0.7787   0.8205   0.2916     O
C       0.7816   0.6293   0.8188     C
H       0.7816   0.8445    0.603     H
H       0.7861   0.9112   0.5482     H
O       0.7869   0.4911   0.1396     O
C       0.8019   0.0839   0.6502     C
O       0.8134   0.8351   0.4097     O
O        0.814   0.5647   0.9134     O
H       0.8201   0.6899   0.0486     H
O       0.8432   0.2472   0.6673     O
C       0.8532   0.7098   0.5416     C
O       0.8566   0.5562    0.484     O
O       0.8581   0.5856   0.7961     O
H       0.8701   0.8173   0.4895     H
O       0.8779    0.345   0.1659     O
H       0.8787   0.7018   0.5829     H
N       0.8789   0.8105   0.5298     N
O       0.9044   0.0356   0.0549     O
O       0.9113   0.3391   0.4799     O
H       0.9119   0.1579   0.4732     H
Er     0.91716  0.74684  0.34379    Er
O       0.9179   0.4091    0.048     O
O         0.92   0.5959    0.317     O
O       0.9295   0.4119   0.9472     O
O       0.9327   0.0992   0.6524     O
O       0.9331    0.037   0.9356     O
P       0.9506  0.65444  0.49139     P
O       0.9518   0.7366   0.2385     O
C       0.9526   0.5807   0.2636     C
C       0.9557    0.448   0.9989     C
H       0.9628   0.0695   0.4653     H
H       0.9668   0.1363   0.4106     H
O       0.9684   0.7104   0.4343     O
O       0.9701   0.5076   0.2444     O
Er      0.9738  0.50261   0.8586    Er
C       0.9743    0.664   0.2191     C
C       0.9782   0.1334   0.4534     C
O       0.9892   0.3493   0.8329     O
C       0.9904   0.9991   0.0351     C
