data_I
_chemical_name_common  '/home/zhangsd/repos/MofS-CGCNN/ML/data/TSD/clean_cifs/FIVQIL_clean'
_cell_length_a 10.28260
_cell_length_b 12.69770
_cell_length_c 17.86400
_cell_angle_alpha 90.00000
_cell_angle_beta  102.76100
_cell_angle_gamma 90.00000
_space_group_name_H-M_alt      'P 1'


loop_
_space_group_symop_operation_xyz
  'x, y, z' 

loop_
_atom_site_label
_atom_site_fract_x
_atom_site_fract_y
_atom_site_fract_z
_atom_site_type_symbol
Sc     0.03105  0.11361  0.79189    Sc
O       0.0514  0.98986  0.60625     O
F       0.0533  0.03385  0.22052     F
O       0.0541  0.87307  0.32717     O
O       0.0594  0.45382  0.73786     O
Sc     0.06037  0.52145  0.37252    Sc
O       0.0644   0.6074   0.1633     O
P      0.06465  0.38209  0.80734     P
P      0.08021   0.9535  0.39262     P
O       0.0862  0.26752  0.78453     O
O       0.1035   0.5491  0.60543     O
O       0.1289   0.8431  0.16205     O
O       0.1333   0.8987  0.46887     O
Sc     0.13449  0.85329  0.57684    Sc
O       0.1373  0.37253   0.3561     O
O       0.1556   0.0761  0.89586     O
O       0.1739  0.70601  0.53945     O
O       0.1799    0.528  0.48216     O
O       0.1817  0.22545  0.27346     O
O       0.1833  0.03707  0.37974     O
O       0.1838  0.41256  0.87212     O
O       0.1938  0.41297  0.22971     O
P      0.20051   0.5887  0.55789     P
F       0.2104  0.58579  0.32681     F
P       0.2228  0.33851  0.29917     P
Sc     0.24602   0.0692  0.27905    Sc
Sc     0.25398   0.5692  0.22095    Sc
P       0.2772  0.83851  0.20083     P
F       0.2896  0.08579  0.17319     F
P      0.29949   0.0887  0.94211     P
O       0.3062  0.91297  0.27029     O
O       0.3162  0.91256  0.62788     O
O       0.3167  0.53707  0.12026     O
O       0.3183  0.72545  0.22654     O
O       0.3201    0.028  0.01784     O
O       0.3261  0.20601  0.96055     O
O       0.3444   0.5761  0.60414     O
O       0.3627  0.87253   0.1439     O
Sc     0.36551  0.35329  0.92316    Sc
O       0.3667   0.3987  0.03113     O
O       0.3711   0.3431  0.33795     O
O       0.3965   0.0491  0.89457     O
O       0.4138  0.76752  0.71547     O
P      0.41979   0.4535  0.10738     P
P      0.43535  0.88209  0.69266     P
O       0.4356   0.1074   0.3367     O
Sc     0.43963  0.02145  0.12748    Sc
O       0.4406  0.95382  0.76214     O
O       0.4459  0.37307  0.17283     O
F       0.4467  0.53385  0.27948     F
O       0.4486  0.48986  0.89375     O
Sc     0.46895  0.61361  0.70811    Sc
Sc     0.53105  0.38639  0.29189    Sc
O       0.5514  0.51014  0.10625     O
F       0.5533  0.46615  0.72052     F
O       0.5541  0.62693  0.82717     O
O       0.5594  0.04618  0.23786     O
Sc     0.56037  0.97855  0.87252    Sc
O       0.5644   0.8926   0.6633     O
P      0.56465  0.11791  0.30734     P
P      0.58021   0.5465  0.89262     P
O       0.5862  0.23248  0.28453     O
O       0.6035   0.9509  0.10543     O
O       0.6289   0.6569  0.66205     O
O       0.6333   0.6013  0.96887     O
Sc     0.63449  0.64671  0.07684    Sc
O       0.6373  0.12747   0.8561     O
O       0.6556   0.4239  0.39586     O
O       0.6739  0.79399  0.03945     O
O       0.6799    0.972  0.98216     O
O       0.6817  0.27455  0.77346     O
O       0.6833  0.46293  0.87974     O
O       0.6838  0.08744  0.37212     O
O       0.6938  0.08703  0.72971     O
P      0.70051   0.9113  0.05789     P
F       0.7104  0.91421  0.82681     F
P       0.7228  0.16149  0.79917     P
Sc     0.74602   0.4308  0.77905    Sc
Sc     0.75398   0.9308  0.72095    Sc
P       0.7772  0.66149  0.70083     P
F       0.7896  0.41421  0.67319     F
P      0.79949   0.4113  0.44211     P
O       0.8062  0.58703  0.77029     O
O       0.8162  0.58744  0.12788     O
O       0.8167  0.96293  0.62026     O
O       0.8183  0.77455  0.72654     O
O       0.8201    0.472  0.51784     O
O       0.8261  0.29399  0.46055     O
O       0.8444   0.9239  0.10414     O
O       0.8627  0.62747   0.6439     O
Sc     0.86551  0.14671  0.42316    Sc
O       0.8667   0.1013  0.53113     O
O       0.8711   0.1569  0.83795     O
O       0.8965   0.4509  0.39457     O
O       0.9138  0.73248  0.21547     O
P      0.91979   0.0465  0.60738     P
P      0.93535  0.61791  0.19266     P
O       0.9356   0.3926   0.8367     O
Sc     0.93963  0.47855  0.62748    Sc
O       0.9406  0.54618  0.26214     O
O       0.9459  0.12693  0.67283     O
F       0.9467  0.96615  0.77948     F
O       0.9486  0.01014  0.39375     O
Sc     0.96895  0.88639  0.20811    Sc
