data_I
_chemical_name_common  '/home/zhangsd/repos/MofS-CGCNN/ML/data/TSD/clean_cifs/FOBNAN_clean'
_cell_length_a 31.28000
_cell_length_b 14.73500
_cell_length_c 28.51000
_cell_angle_alpha 90.00000
_cell_angle_beta  120.13000
_cell_angle_gamma 90.00000
_space_group_name_H-M_alt      'P 1'


loop_
_space_group_symop_operation_xyz
  'x, y, z' 

loop_
_atom_site_label
_atom_site_fract_x
_atom_site_fract_y
_atom_site_fract_z
_atom_site_type_symbol
C          0.0   0.1717     0.75     C
C          0.0   0.8283     0.25     C
H       0.0001   0.1327   0.7226     H
H       0.0001   0.8673   0.2226     H
H       0.0026   0.2742   0.8277     H
H       0.0026   0.7258   0.3277     H
H       0.0148   0.3852   0.6291     H
H       0.0148   0.6148   0.1291     H
C       0.0254   0.3098   0.6919     C
C       0.0254   0.6902   0.1919     C
C       0.0355   0.3766   0.6661     C
C       0.0355   0.6234   0.1661     C
H       0.0384   0.0976   0.6623     H
H       0.0384   0.9024   0.1623     H
C       0.0474   0.2264   0.7763     C
C       0.0474   0.7736   0.2763     C
C       0.0567   0.2932   0.7481     C
C       0.0567   0.7068   0.2481     C
H       0.0596   0.0603   0.5994     H
H       0.0596   0.9397   0.0994     H
C       0.0703   0.0777   0.6732     C
C       0.0703   0.9223   0.1732     C
O       0.0733   0.1393   0.8549     O
O       0.0733   0.8607   0.3549     O
C       0.0776    0.434   0.6954     C
C       0.0776    0.566   0.1954     C
C       0.0825   0.2074   0.8297     C
C       0.0825   0.7926   0.3297     C
C       0.0831   0.0559   0.6361     C
C       0.0831   0.9441   0.1361     C
H       0.0834   0.4815   0.6779     H
H       0.0834   0.5185   0.1779     H
H       0.0959   0.0857   0.7533     H
H       0.0959   0.9143   0.2533     H
H       0.0996   0.1179   0.8786     H
H       0.0996   0.8821   0.3786     H
C       0.0998   0.3477    0.776     C
C       0.0998   0.6523    0.276     C
C        0.105   0.0701   0.7279     C
C        0.105   0.9299   0.2279     C
C       0.1085    0.419   0.7479     C
C       0.1085    0.581   0.2479     C
H       0.1228    0.012   0.5763     H
H       0.1228    0.988   0.0763     H
C       0.1264     0.26   0.8571     C
C       0.1264     0.74   0.3571     C
H        0.127   0.2008    0.231     H
H        0.127   0.7992    0.731     H
C       0.1318   0.0261   0.6513     C
C       0.1318   0.9739   0.1513     C
C       0.1339   0.3295   0.8316     C
C       0.1339   0.6705   0.3316     C
H       0.1362   0.4557   0.7667     H
H       0.1362   0.5443   0.2667     H
H       0.1411   0.1737   0.1611     H
H       0.1411   0.8263   0.6611     H
C       0.1438   0.2435   0.2222     C
C       0.1438   0.7565   0.7222     C
C       0.1456   0.0041    0.613     C
C       0.1456   0.9959    0.113     C
H       0.1517   0.3327   0.2776     H
H       0.1517   0.6673   0.7776     H
C       0.1522   0.0404   0.7458     C
C       0.1522   0.9596   0.2458     C
C       0.1527    0.227   0.1811     C
C       0.1527    0.773   0.6811     C
O       0.1591    0.165   0.9341     O
C       0.1591   0.3216   0.2503     C
C       0.1591   0.6784   0.7503     C
O       0.1591    0.835   0.4341     O
H       0.1616   0.3662   0.8505     H
H       0.1616   0.6338   0.3505     H
C       0.1647   0.2377   0.9141     C
C       0.1647   0.7623   0.4141     C
C        0.168   0.0184   0.7077     C
C        0.168   0.9816   0.2077     C
O       0.1738   0.0464   0.0365     O
O       0.1738   0.9536   0.5365     O
H       0.1742   0.0344   0.7828     H
H       0.1742   0.9656   0.2828     H
H       0.1755   0.2204   0.1047     H
H       0.1755   0.7796   0.6047     H
C       0.1794   0.2896   0.1684     C
C       0.1794   0.7104   0.6684     C
C       0.1857   0.3864   0.2398     C
C       0.1857   0.6136   0.7398     C
C       0.1873   0.2737   0.1246     C
C       0.1873   0.7263   0.6246     C
C       0.1912   0.0287   0.1278     C
C       0.1912   0.9713   0.6278     C
H        0.196   0.4396   0.2601     H
H        0.196   0.5604   0.7601     H
C        0.197   0.3711   0.1981     C
C        0.197   0.6289   0.6981     C
O       0.2008   0.2887   0.9388     O
O       0.2008   0.7113   0.4388     O
O       0.2031   0.2393   0.0406     O
O       0.2031   0.7607   0.5406     O
C       0.2053   0.0507   0.0866     C
C       0.2053   0.9493   0.5866     C
C       0.2118   0.3347   0.1107     C
C       0.2118   0.6653   0.6107     C
C       0.2161    0.012   0.2238     C
C       0.2161    0.988   0.7238     C
H       0.2177   0.4439   0.7153     H
H       0.2177   0.5561   0.2153     H
C       0.2189    0.314   0.0639     C
C       0.2189    0.686   0.5639     C
C       0.2247   0.4334   0.1859     C
C       0.2247   0.5666   0.6859     C
C       0.2266   0.0398   0.1844     C
C       0.2266   0.9602   0.6844     C
O       0.2291   0.4231   0.8004     O
O       0.2291   0.5769   0.3004     O
C       0.2302   0.4155   0.1413     C
C       0.2302   0.5845   0.6413     C
H       0.2304   0.3959   0.8262     H
H       0.2304   0.6041   0.3262     H
Dy     0.23194  0.11783  0.01246    Dy
Dy     0.23194  0.88217  0.51246    Dy
H       0.2384   0.0449   0.8935     H
H       0.2384   0.9551   0.3935     H
O       0.2406   0.3717   0.0509     O
O       0.2406   0.6283   0.5509     O
H       0.2411   0.0571   0.3005     H
H       0.2411   0.9429   0.8005     H
C       0.2451   0.4783   0.7174     C
C       0.2451   0.5217   0.2174     C
O       0.2453   0.0225   0.8718     O
O       0.2453   0.9775   0.3718     O
O       0.2488   0.0782   0.1017     O
O       0.2488   0.9218   0.6017     O
O       0.2512   0.4218   0.8983     O
O       0.2512   0.5782   0.3983     O
O       0.2547   0.4775   0.1282     O
O       0.2547   0.5225   0.6282     O
C       0.2549   0.0217   0.2826     C
C       0.2549   0.9783   0.7826     C
H       0.2589   0.4429   0.6995     H
H       0.2589   0.5571   0.1995     H
O       0.2594   0.1283   0.9491     O
O       0.2594   0.8717   0.4491     O
H       0.2616   0.4551   0.1065     H
H       0.2616   0.5449   0.6065     H
Dy     0.26806  0.38217  0.98754    Dy
Dy     0.26806  0.61783  0.48754    Dy
H       0.2696   0.1041   0.1738     H
H       0.2696   0.8959   0.6738     H
C       0.2698   0.0845   0.8587     C
C       0.2698   0.9155   0.3587     C
O       0.2709   0.0769   0.1996     O
O       0.2709   0.9231   0.6996     O
C       0.2734   0.4602   0.8156     C
C       0.2734   0.5398   0.3156     C
C       0.2753   0.0666   0.8141     C
C       0.2753   0.9334   0.3141     C
C       0.2811    0.186   0.9361     C
C       0.2811    0.814   0.4361     C
H       0.2823   0.0561   0.2847     H
H       0.2823   0.9439   0.7847     H
C       0.2839    0.488   0.7762     C
C       0.2839    0.512   0.2762     C
C       0.2882   0.1653   0.8893     C
C       0.2882   0.8347   0.3893     C
C       0.2947   0.4493   0.9134     C
C       0.2947   0.5507   0.4134     C
O       0.2969   0.2607   0.9594     O
O       0.2969   0.7393   0.4594     O
O       0.2992   0.2113   0.0612     O
O       0.2992   0.7887   0.5612     O
C        0.303   0.1289   0.8019     C
C        0.303   0.8711   0.3019     C
H        0.304   0.0604   0.7399     H
H        0.304   0.9396   0.2399     H
C       0.3088   0.4713   0.8722     C
C       0.3088   0.5287   0.3722     C
C       0.3127   0.2263   0.8754     C
C       0.3127   0.7737   0.3754     C
C       0.3143   0.1136   0.7602     C
C       0.3143   0.8864   0.2602     C
C       0.3206   0.2104   0.8316     C
C       0.3206   0.7896   0.3316     C
H       0.3245   0.2796   0.8953     H
H       0.3245   0.7204   0.3953     H
H       0.3258   0.4656   0.2172     H
H       0.3258   0.5344   0.7172     H
O       0.3262   0.4536   0.9635     O
O       0.3262   0.5464   0.4635     O
C        0.332   0.4816   0.2923     C
C        0.332   0.5184   0.7923     C
C       0.3353   0.2623   0.0859     C
C       0.3353   0.7377   0.5859     C
H       0.3384   0.1338   0.1495     H
H       0.3384   0.8662   0.6495     H
C       0.3409   0.1784   0.7497     C
O       0.3409    0.335   0.0659     O
O       0.3409    0.665   0.5659     O
C       0.3409   0.8216   0.2497     C
C       0.3473    0.273   0.8189     C
C       0.3473    0.727   0.3189     C
C       0.3478   0.4596   0.2542     C
C       0.3478   0.5404   0.7542     C
H       0.3483   0.1673   0.7224     H
H       0.3483   0.8327   0.2224     H
C       0.3544   0.4959    0.387     C
C       0.3544   0.5041    0.887     C
C       0.3562   0.2565   0.7778     C
C       0.3562   0.7435   0.2778     C
H       0.3589   0.3263   0.8389     H
H       0.3589   0.6737   0.3389     H
H       0.3638   0.0443   0.2333     H
H       0.3638   0.9557   0.7333     H
C       0.3661   0.1705   0.1684     C
C       0.3661   0.8295   0.6684     C
C       0.3682   0.4739   0.3487     C
C       0.3682   0.5261   0.8487     C
H        0.373   0.2992    0.769     H
H        0.373   0.7008    0.269     H
C       0.3736     0.24   0.1429     C
C       0.3736     0.76   0.6429     C
H       0.3772    0.488   0.4237     H
H       0.3772    0.512   0.9237     H
C       0.3915    0.081   0.2521     C
C       0.3915    0.919   0.7521     C
C        0.395   0.4299   0.2721     C
C        0.395   0.5701   0.7721     C
C       0.4002   0.1523    0.224     C
C       0.4002   0.8477    0.724     C
H       0.4004   0.3821   0.1214     H
H       0.4004   0.6179   0.6214     H
H       0.4041   0.4143   0.2467     H
H       0.4041   0.5857   0.7467     H
H       0.4166   0.0185   0.3221     H
H       0.4166   0.9815   0.8221     H
C       0.4169   0.4441   0.3639     C
C       0.4169   0.5559   0.8639     C
C       0.4175   0.2926   0.1703     C
C       0.4175   0.7074   0.6703     C
C       0.4224    0.066   0.3046     C
C       0.4224    0.934   0.8046     C
O       0.4267   0.3607   0.1451     O
O       0.4267   0.6393   0.6451     O
C       0.4297   0.4223   0.3268     C
C       0.4297   0.5777   0.8268     C
H       0.4404   0.4397   0.4006     H
H       0.4404   0.5603   0.9006     H
C       0.4433   0.2068   0.2519     C
C       0.4433   0.7932   0.7519     C
C       0.4526   0.2736   0.2237     C
C       0.4526   0.7264   0.7237     C
H       0.4616   0.4024   0.3377     H
H       0.4616   0.5976   0.8377     H
C       0.4645   0.1234   0.3339     C
C       0.4645   0.8766   0.8339     C
C       0.4746   0.1902   0.3081     C
C       0.4746   0.8098   0.8081     C
H       0.4852   0.1148   0.3709     H
H       0.4852   0.8852   0.8709     H
H       0.4974   0.2258   0.1723     H
H       0.4974   0.7742   0.6723     H
H       0.4999   0.3673   0.2774     H
H       0.4999   0.6327   0.7774     H
C          0.5   0.3283     0.25     C
C          0.5   0.6717     0.75     C
H       0.5001   0.3673   0.2226     H
H       0.5001   0.6327   0.7226     H
H       0.5026   0.2258   0.3277     H
H       0.5026   0.7742   0.8277     H
H       0.5148   0.1148   0.1291     H
H       0.5148   0.8852   0.6291     H
C       0.5254   0.1902   0.1919     C
C       0.5254   0.8098   0.6919     C
C       0.5355   0.1234   0.1661     C
C       0.5355   0.8766   0.6661     C
H       0.5384   0.4024   0.1623     H
H       0.5384   0.5976   0.6623     H
C       0.5474   0.2736   0.2763     C
C       0.5474   0.7264   0.7763     C
C       0.5567   0.2068   0.2481     C
C       0.5567   0.7932   0.7481     C
H       0.5596   0.4397   0.0994     H
H       0.5596   0.5603   0.5994     H
C       0.5703   0.4223   0.1732     C
C       0.5703   0.5777   0.6732     C
O       0.5733   0.3607   0.3549     O
O       0.5733   0.6393   0.8549     O
C       0.5776    0.066   0.1954     C
C       0.5776    0.934   0.6954     C
C       0.5825   0.2926   0.3297     C
C       0.5825   0.7074   0.8297     C
C       0.5831   0.4441   0.1361     C
C       0.5831   0.5559   0.6361     C
H       0.5834   0.0185   0.1779     H
H       0.5834   0.9815   0.6779     H
H       0.5959   0.4143   0.2533     H
H       0.5959   0.5857   0.7533     H
H       0.5996   0.3821   0.3786     H
H       0.5996   0.6179   0.8786     H
C       0.5998   0.1523    0.276     C
C       0.5998   0.8477    0.776     C
C        0.605   0.4299   0.2279     C
C        0.605   0.5701   0.7279     C
C       0.6085    0.081   0.2479     C
C       0.6085    0.919   0.7479     C
H       0.6228    0.488   0.0763     H
H       0.6228    0.512   0.5763     H
C       0.6264     0.24   0.3571     C
C       0.6264     0.76   0.8571     C
H        0.627   0.2992    0.731     H
H        0.627   0.7008    0.231     H
C       0.6318   0.4739   0.1513     C
C       0.6318   0.5261   0.6513     C
C       0.6339   0.1705   0.3316     C
C       0.6339   0.8295   0.8316     C
H       0.6362   0.0443   0.2667     H
H       0.6362   0.9557   0.7667     H
H       0.6411   0.3263   0.6611     H
H       0.6411   0.6737   0.1611     H
C       0.6438   0.2565   0.7222     C
C       0.6438   0.7435   0.2222     C
C       0.6456   0.4959    0.113     C
C       0.6456   0.5041    0.613     C
H       0.6517   0.1673   0.7776     H
H       0.6517   0.8327   0.2776     H
C       0.6522   0.4596   0.2458     C
C       0.6522   0.5404   0.7458     C
C       0.6527    0.273   0.6811     C
C       0.6527    0.727   0.1811     C
C       0.6591   0.1784   0.7503     C
O       0.6591    0.335   0.4341     O
O       0.6591    0.665   0.9341     O
C       0.6591   0.8216   0.2503     C
H       0.6616   0.1338   0.3505     H
H       0.6616   0.8662   0.8505     H
C       0.6647   0.2623   0.4141     C
C       0.6647   0.7377   0.9141     C
C        0.668   0.4816   0.2077     C
C        0.668   0.5184   0.7077     C
O       0.6738   0.4536   0.5365     O
O       0.6738   0.5464   0.0365     O
H       0.6742   0.4656   0.2828     H
H       0.6742   0.5344   0.7828     H
H       0.6755   0.2796   0.6047     H
H       0.6755   0.7204   0.1047     H
C       0.6794   0.2104   0.6684     C
C       0.6794   0.7896   0.1684     C
C       0.6857   0.1136   0.7398     C
C       0.6857   0.8864   0.2398     C
C       0.6873   0.2263   0.6246     C
C       0.6873   0.7737   0.1246     C
C       0.6912   0.4713   0.6278     C
C       0.6912   0.5287   0.1278     C
H        0.696   0.0604   0.7601     H
H        0.696   0.9396   0.2601     H
C        0.697   0.1289   0.6981     C
C        0.697   0.8711   0.1981     C
O       0.7008   0.2113   0.4388     O
O       0.7008   0.7887   0.9388     O
O       0.7031   0.2607   0.5406     O
O       0.7031   0.7393   0.0406     O
C       0.7053   0.4493   0.5866     C
C       0.7053   0.5507   0.0866     C
C       0.7118   0.1653   0.6107     C
C       0.7118   0.8347   0.1107     C
C       0.7161    0.488   0.7238     C
C       0.7161    0.512   0.2238     C
H       0.7177   0.0561   0.2153     H
H       0.7177   0.9439   0.7153     H
C       0.7189    0.186   0.5639     C
C       0.7189    0.814   0.0639     C
C       0.7247   0.0666   0.6859     C
C       0.7247   0.9334   0.1859     C
C       0.7266   0.4602   0.6844     C
C       0.7266   0.5398   0.1844     C
O       0.7291   0.0769   0.3004     O
O       0.7291   0.9231   0.8004     O
C       0.7302   0.0845   0.6413     C
C       0.7302   0.9155   0.1413     C
H       0.7304   0.1041   0.3262     H
H       0.7304   0.8959   0.8262     H
Dy     0.73194  0.38217  0.51246    Dy
Dy     0.73194  0.61783  0.01246    Dy
H       0.7384   0.4551   0.3935     H
H       0.7384   0.5449   0.8935     H
O       0.7406   0.1283   0.5509     O
O       0.7406   0.8717   0.0509     O
H       0.7411   0.4429   0.8005     H
H       0.7411   0.5571   0.3005     H
C       0.7451   0.0217   0.2174     C
C       0.7451   0.9783   0.7174     C
O       0.7453   0.4775   0.3718     O
O       0.7453   0.5225   0.8718     O
O       0.7488   0.4218   0.6017     O
O       0.7488   0.5782   0.1017     O
O       0.7512   0.0782   0.3983     O
O       0.7512   0.9218   0.8983     O
O       0.7547   0.0225   0.6282     O
O       0.7547   0.9775   0.1282     O
C       0.7549   0.4783   0.7826     C
C       0.7549   0.5217   0.2826     C
H       0.7589   0.0571   0.1995     H
H       0.7589   0.9429   0.6995     H
O       0.7594   0.3717   0.4491     O
O       0.7594   0.6283   0.9491     O
H       0.7616   0.0449   0.6065     H
H       0.7616   0.9551   0.1065     H
Dy     0.76806  0.11783  0.48754    Dy
Dy     0.76806  0.88217  0.98754    Dy
H       0.7696   0.3959   0.6738     H
H       0.7696   0.6041   0.1738     H
C       0.7698   0.4155   0.3587     C
C       0.7698   0.5845   0.8587     C
O       0.7709   0.4231   0.6996     O
O       0.7709   0.5769   0.1996     O
C       0.7734   0.0398   0.3156     C
C       0.7734   0.9602   0.8156     C
C       0.7753   0.4334   0.3141     C
C       0.7753   0.5666   0.8141     C
C       0.7811    0.314   0.4361     C
C       0.7811    0.686   0.9361     C
H       0.7823   0.4439   0.7847     H
H       0.7823   0.5561   0.2847     H
C       0.7839    0.012   0.2762     C
C       0.7839    0.988   0.7762     C
C       0.7882   0.3347   0.3893     C
C       0.7882   0.6653   0.8893     C
C       0.7947   0.0507   0.4134     C
C       0.7947   0.9493   0.9134     C
O       0.7969   0.2393   0.4594     O
O       0.7969   0.7607   0.9594     O
O       0.7992   0.2887   0.5612     O
O       0.7992   0.7113   0.0612     O
C        0.803   0.3711   0.3019     C
C        0.803   0.6289   0.8019     C
H        0.804   0.4396   0.2399     H
H        0.804   0.5604   0.7399     H
C       0.8088   0.0287   0.3722     C
C       0.8088   0.9713   0.8722     C
C       0.8127   0.2737   0.3754     C
C       0.8127   0.7263   0.8754     C
C       0.8143   0.3864   0.2602     C
C       0.8143   0.6136   0.7602     C
C       0.8206   0.2896   0.3316     C
C       0.8206   0.7104   0.8316     C
H       0.8245   0.2204   0.3953     H
H       0.8245   0.7796   0.8953     H
H       0.8258   0.0344   0.7172     H
H       0.8258   0.9656   0.2172     H
O       0.8262   0.0464   0.4635     O
O       0.8262   0.9536   0.9635     O
C        0.832   0.0184   0.7923     C
C        0.832   0.9816   0.2923     C
C       0.8353   0.2377   0.5859     C
C       0.8353   0.7623   0.0859     C
H       0.8384   0.3662   0.6495     H
H       0.8384   0.6338   0.1495     H
O       0.8409    0.165   0.5659     O
C       0.8409   0.3216   0.2497     C
C       0.8409   0.6784   0.7497     C
O       0.8409    0.835   0.0659     O
C       0.8473    0.227   0.3189     C
C       0.8473    0.773   0.8189     C
C       0.8478   0.0404   0.7542     C
C       0.8478   0.9596   0.2542     C
H       0.8483   0.3327   0.2224     H
H       0.8483   0.6673   0.7224     H
C       0.8544   0.0041    0.887     C
C       0.8544   0.9959    0.387     C
C       0.8562   0.2435   0.2778     C
C       0.8562   0.7565   0.7778     C
H       0.8589   0.1737   0.3389     H
H       0.8589   0.8263   0.8389     H
H       0.8638   0.4557   0.7333     H
H       0.8638   0.5443   0.2333     H
C       0.8661   0.3295   0.6684     C
C       0.8661   0.6705   0.1684     C
C       0.8682   0.0261   0.8487     C
C       0.8682   0.9739   0.3487     C
H        0.873   0.2008    0.269     H
H        0.873   0.7992    0.769     H
C       0.8736     0.26   0.6429     C
C       0.8736     0.74   0.1429     C
H       0.8772    0.012   0.9237     H
H       0.8772    0.988   0.4237     H
C       0.8915    0.419   0.7521     C
C       0.8915    0.581   0.2521     C
C        0.895   0.0701   0.7721     C
C        0.895   0.9299   0.2721     C
C       0.9002   0.3477    0.724     C
C       0.9002   0.6523    0.224     C
H       0.9004   0.1179   0.6214     H
H       0.9004   0.8821   0.1214     H
H       0.9041   0.0857   0.7467     H
H       0.9041   0.9143   0.2467     H
H       0.9166   0.4815   0.8221     H
H       0.9166   0.5185   0.3221     H
C       0.9169   0.0559   0.8639     C
C       0.9169   0.9441   0.3639     C
C       0.9175   0.2074   0.6703     C
C       0.9175   0.7926   0.1703     C
C       0.9224    0.434   0.8046     C
C       0.9224    0.566   0.3046     C
O       0.9267   0.1393   0.6451     O
O       0.9267   0.8607   0.1451     O
C       0.9297   0.0777   0.8268     C
C       0.9297   0.9223   0.3268     C
H       0.9404   0.0603   0.9006     H
H       0.9404   0.9397   0.4006     H
C       0.9433   0.2932   0.7519     C
C       0.9433   0.7068   0.2519     C
C       0.9526   0.2264   0.7237     C
C       0.9526   0.7736   0.2237     C
H       0.9616   0.0976   0.8377     H
H       0.9616   0.9024   0.3377     H
C       0.9645   0.3766   0.8339     C
C       0.9645   0.6234   0.3339     C
C       0.9746   0.3098   0.8081     C
C       0.9746   0.6902   0.3081     C
H       0.9852   0.3852   0.8709     H
H       0.9852   0.6148   0.3709     H
H       0.9974   0.2742   0.6723     H
H       0.9974   0.7258   0.1723     H
H       0.9999   0.1327   0.7774     H
H       0.9999   0.8673   0.2774     H
