data_I
_chemical_name_common  '/home/zhangsd/repos/MofS-CGCNN/ML/data/TSD/clean_cifs/FOMWOV_clean'
_cell_length_a 38.59600
_cell_length_b 15.27900
_cell_length_c 23.60000
_cell_angle_alpha 90.00000
_cell_angle_beta  101.29000
_cell_angle_gamma 90.00000
_space_group_name_H-M_alt      'P 1'


loop_
_space_group_symop_operation_xyz
  'x, y, z' 

loop_
_atom_site_label
_atom_site_fract_x
_atom_site_fract_y
_atom_site_fract_z
_atom_site_type_symbol
H       0.0067   0.1534   0.6067     H
H       0.0067   0.8466   0.1067     H
C      0.00882   0.1103   0.5798     C
C      0.00882   0.8897   0.0798     C
H       0.0104   0.3386   0.9922     H
H       0.0104   0.6614   0.4922     H
C      0.01065   0.3109   0.5052     C
C      0.01065   0.6891   0.0052     C
C      0.01206    0.255   0.4607     C
C      0.01206    0.745   0.9607     C
N      0.01504   0.1857   0.1293     N
N      0.01504   0.8143   0.6293     N
C      0.01518   0.1389    0.367     C
C      0.01518   0.8611    0.867     C
O      0.01544   0.0881   0.3282     O
O      0.01544   0.9119   0.8282     O
C      0.01651   0.0188    0.999     C
C      0.01651   0.9812    0.499     C
C      0.01907   0.2391   0.0842     C
C      0.01907   0.7609   0.5842     C
C      0.01998   0.0832   0.9593     C
C      0.01998   0.9168   0.4593     C
H       0.0225   0.2819   0.2202     H
H       0.0225   0.7181   0.7202     H
H       0.0398   0.3637   0.5776     H
H       0.0398   0.6363   0.0776     H
O      0.04005   0.3462   0.3221     O
O      0.04005   0.6538   0.8221     O
C       0.0411   0.3264    0.547     C
C       0.0411   0.6736    0.047     C
C      0.04172   0.2443   0.2234     C
C      0.04172   0.7557   0.7234     C
C      0.04246    0.071   0.5786     C
C      0.04246    0.929   0.0786     C
C      0.04383   0.1855   0.1801     C
C      0.04383   0.8145   0.6801     C
C      0.04397   0.2122   0.4573     C
C      0.04397   0.7878   0.9573     C
C      0.04578   0.0106    0.539     C
C      0.04578   0.9894    0.039     C
C      0.04616   0.1537   0.4119     C
C      0.04616   0.8463   0.9119     C
O      0.04707   0.2717   0.0828     O
O      0.04707   0.7283   0.5828     O
C        0.054   0.1237   0.9597     C
C        0.054   0.8763   0.4597     C
O      0.05796   0.1801   0.9268     O
O      0.05796   0.8199   0.4268     O
H       0.0622   0.0878   0.6058     H
H       0.0622   0.9122   0.1058     H
C       0.0668   0.3089   0.3185     C
C       0.0668   0.6911   0.8185     C
C      0.06838   0.2468   0.2713     C
C      0.06838   0.7532   0.7713     C
C      0.07017    0.126   0.1841     C
C      0.07017    0.874   0.6841     C
H       0.0702   0.0848   0.1551     H
H       0.0702   0.9152   0.6551     H
C      0.07219   0.2888   0.5441     C
C      0.07219   0.7112   0.0441     C
C      0.07485   0.2306      0.5     C
C      0.07485   0.7694      0.0     C
C       0.0777    0.114   0.4094     C
C       0.0777    0.886   0.9094     C
H       0.0791   0.0749   0.3797     H
H       0.0791   0.9251   0.8797     H
C      0.08136   0.0264   0.0386     C
C      0.08136   0.9736   0.5386     C
N      0.08242   0.0908   0.9998     N
N      0.08242   0.9092   0.4998     N
H       0.0931   0.3491   0.3809     H
H       0.0931   0.6509   0.8809     H
O      0.09545   0.3136   0.3558     O
O      0.09545   0.6864   0.8558     O
C      0.09611   0.1877   0.2746     C
C      0.09611   0.8123   0.7746     C
C       0.0969   0.1282   0.2322     C
C       0.0969   0.8718   0.7322     C
C      0.10351   0.3105   0.5884     C
C      0.10351   0.6895   0.0884     C
O      0.10388   0.3608    0.627     O
O      0.10388   0.6392    0.127     O
C      0.10614   0.1898   0.4944     C
C      0.10614   0.8102   0.9944     C
O      0.10763   0.0003   0.5692     O
O      0.10763   0.9997   0.0692     O
C      0.10838   0.1324   0.4517     C
C      0.10838   0.8676   0.9517     C
H       0.1145    0.189   0.3066     H
H       0.1145    0.811   0.8066     H
C      0.11724    0.127   0.9977     C
C      0.11724    0.873   0.4977     C
H       0.1203    0.204   0.0667     H
H       0.1203    0.796   0.5667     H
H       0.1241   0.0562   0.9284     H
H       0.1241   0.9438   0.4284     H
O       0.1244   0.0018   0.7094     O
O       0.1244   0.9982   0.2094     O
C       0.1267   0.0615   0.2394     C
C       0.1267   0.9385   0.7394     C
H       0.1297   0.1053   0.4501     H
H       0.1297   0.8947   0.9501     H
C      0.13239   0.1857   0.0384     C
C      0.13239   0.8143   0.5384     C
N      0.13421   0.2645   0.5833     N
N      0.13421   0.7355   0.0833     N
C      0.13454   0.0975   0.9554     C
C      0.13454   0.9025   0.4554     C
C      0.13757   0.2091   0.5381     C
C      0.13757   0.7909   0.0381     C
O      0.15213   0.0779   0.2786     O
O      0.15213   0.9221   0.7786     O
H       0.1598   0.1716   0.6717     H
H       0.1598   0.8284   0.1717     H
O      0.16563   0.1769   0.5363     O
O      0.16563   0.8231   0.0363     O
C      0.16572   0.2183   0.0378     C
C      0.16572   0.7817   0.5378     C
C       0.1659   0.2797   0.6277     C
C       0.1659   0.7203   0.1277     C
O      0.16765   0.3087   0.1185     O
O      0.16765   0.6913   0.6185     O
C      0.16767   0.1304    0.954     C
C      0.16767   0.8696    0.454     C
O      0.17253   0.0427   0.8737     O
O      0.17253   0.9573   0.3737     O
C       0.1742     0.22   0.6704     C
C       0.1742     0.78   0.1704     C
H       0.1793   0.3922   0.5952     H
H       0.1793   0.6078   0.0952     H
C      0.18301   0.1887   0.9951     C
C      0.18301   0.8113   0.4951     C
C      0.18316   0.2805   0.0818     C
C      0.18316   0.7195   0.5818     C
C      0.18606   0.3515   0.6246     C
C      0.18606   0.6485   0.1246     C
C      0.18668   0.0986   0.9086     C
C      0.18668   0.9014   0.4086     C
Zn     0.18682  0.00384  0.80468    Zn
Zn     0.18682  0.99616  0.30468    Zn
O      0.19257   0.1053  0.76049     O
O      0.19257   0.8947  0.26049     O
C      0.20455   0.2319   0.7122     C
C      0.20455   0.7681   0.2122     C
H       0.2056   0.2092   0.9946     H
H       0.2056   0.7908   0.4946     H
C      0.21391   0.1672   0.7605     C
C      0.21391   0.8328   0.2605     C
O      0.21411   0.3015  0.07949     O
O      0.21411   0.6985  0.57949     O
O      0.21646   0.1298  0.90931     O
C      0.21646   0.3638    0.665     C
C      0.21646   0.6362    0.165     C
O      0.21646   0.8702  0.40931     O
O      0.22394   0.4899  0.13819     O
O      0.22394   0.5101  0.63819     O
C      0.22564   0.3033   0.7087     C
C      0.22564   0.6967   0.2087     C
O      0.22956    0.064   0.3137     O
O      0.22956    0.936   0.8137     O
C      0.23834   0.4435    0.663     C
C      0.23834   0.5565    0.163     C
O      0.24125   0.1793  0.79768     O
O      0.24125   0.8207  0.29768     O
Zn     0.24397  0.37902  0.12826    Zn
Zn     0.24397  0.62098  0.62826    Zn
H       0.2463   0.3109    0.736     H
H       0.2463   0.6891    0.236     H
H       0.2537   0.1891    0.264     H
H       0.2537   0.8109    0.764     H
Zn     0.25603  0.12098  0.87174    Zn
Zn     0.25603  0.87902  0.37174    Zn
O      0.25875   0.3207  0.20232     O
O      0.25875   0.6793  0.70232     O
C      0.26166   0.0565    0.337     C
C      0.26166   0.9435    0.837     C
O      0.27044    0.436   0.6863     O
O      0.27044    0.564   0.1863     O
C      0.27436   0.1967   0.2913     C
C      0.27436   0.8033   0.7913     C
O      0.27606   0.0101  0.86181     O
O      0.27606   0.9899  0.36181     O
C      0.28354   0.1362    0.335     C
O      0.28354   0.3702  0.09069     O
O      0.28354   0.6298  0.59069     O
C      0.28354   0.8638    0.835     C
O      0.28589   0.1985  0.92051     O
O      0.28589   0.8015  0.42051     O
C      0.28609   0.3328   0.2395     C
C      0.28609   0.6672   0.7395     C
H       0.2944   0.2908   0.0054     H
H       0.2944   0.7092   0.5054     H
C      0.29545   0.2681   0.2878     C
C      0.29545   0.7319   0.7878     C
O      0.30743   0.3947  0.23951     O
O      0.30743   0.6053  0.73951     O
Zn     0.31318  0.49616  0.19532    Zn
Zn     0.31318  0.50384  0.69532    Zn
C      0.31332   0.4014   0.0914     C
C      0.31332   0.5986   0.5914     C
C      0.31394   0.1485   0.3754     C
C      0.31394   0.8515   0.8754     C
C      0.31684   0.2195   0.9182     C
C      0.31684   0.7805   0.4182     C
C      0.31699   0.3113   0.0049     C
C      0.31699   0.6887   0.5049     C
H       0.3207   0.1078   0.4048     H
H       0.3207   0.8922   0.9048     H
C       0.3258     0.28   0.3296     C
C       0.3258     0.72   0.8296     C
O      0.32747   0.4573   0.1263     O
O      0.32747   0.5427   0.6263     O
C      0.33233   0.3696    0.046     C
C      0.33233   0.6304    0.546     C
O      0.33235   0.1913   0.8815     O
O      0.33235   0.8087   0.3815     O
C       0.3341   0.2203   0.3723     C
C       0.3341   0.7797   0.8723     C
C      0.33428   0.2817   0.9622     C
C      0.33428   0.7183   0.4622     C
O      0.33437   0.3231   0.4637     O
O      0.33437   0.6769   0.9637     O
H       0.3402   0.3284   0.3283     H
H       0.3402   0.6716   0.8283     H
O      0.34787   0.4221   0.7214     O
O      0.34787   0.5779   0.2214     O
C      0.36243   0.2909   0.4619     C
C      0.36243   0.7091   0.9619     C
C      0.36546   0.4025   0.0446     C
C      0.36546   0.5975   0.5446     C
N      0.36579   0.2355   0.4167     N
N      0.36579   0.7645   0.9167     N
C      0.36761   0.3143   0.9616     C
C      0.36761   0.6857   0.4616     C
H       0.3703   0.3947   0.5499     H
H       0.3703   0.6053   0.0499     H
C       0.3733   0.4385   0.7606     C
C       0.3733   0.5615   0.2606     C
O       0.3756   0.4982   0.2906     O
O       0.3756   0.5018   0.7906     O
H       0.3759   0.4438   0.0716     H
H       0.3759   0.5562   0.5716     H
H       0.3797    0.296   0.9333     H
H       0.3797    0.704   0.4333     H
C      0.38276    0.373   0.0023     C
C      0.38276    0.627   0.5023     C
H       0.3855    0.311   0.6934     H
H       0.3855    0.689   0.1934     H
C      0.39162   0.3676   0.5483     C
C      0.39162   0.6324   0.0483     C
O      0.39237   0.4997   0.4308     O
O      0.39237   0.5003   0.9308     O
C      0.39386   0.3102   0.5056     C
C      0.39386   0.6898   0.0056     C
O      0.39612   0.1392    0.373     O
O      0.39612   0.8608    0.873     O
C      0.39649   0.1895   0.4116     C
C      0.39649   0.8105   0.9116     C
C       0.4031   0.3718   0.7678     C
C       0.4031   0.6282   0.2678     C
C      0.40389   0.3123   0.7254     C
C      0.40389   0.6877   0.2254     C
O      0.40455   0.1864   0.6442     O
O      0.40455   0.8136   0.1442     O
H       0.4069   0.1509   0.6191     H
H       0.4069   0.8491   0.1191     H
N      0.41758   0.4092   0.0002     N
N      0.41758   0.5908   0.5002     N
C      0.41864   0.4736   0.9614     C
C      0.41864   0.5264   0.4614     C
H       0.4209   0.4251   0.6203     H
H       0.4209   0.5749   0.1203     H
C       0.4223    0.386   0.5906     C
C       0.4223    0.614   0.0906     C
C      0.42515   0.2694      0.5     C
C      0.42515   0.7306      0.0     C
C      0.42781   0.2112   0.4559     C
C      0.42781   0.7888   0.9559     C
H       0.4298   0.4152   0.8449     H
H       0.4298   0.5848   0.3449     H
C      0.42983    0.374   0.8159     C
C      0.42983    0.626   0.3159     C
C      0.43162   0.2532   0.7287     C
C      0.43162   0.7468   0.2287     C
C       0.4332   0.1911   0.6815     C
C       0.4332   0.8089   0.1815     C
H       0.4378   0.4122   0.3942     H
H       0.4378   0.5878   0.8942     H
O      0.44204   0.3199   0.0732     O
O      0.44204   0.6801   0.5732     O
C        0.446   0.3763   0.0403     C
C        0.446   0.6237   0.5403     C
O      0.45293   0.2283   0.9172     O
O      0.45293   0.7717   0.4172     O
C      0.45384   0.3463   0.5881     C
C      0.45384   0.6537   0.0881     C
C      0.45422   0.4894    0.461     C
C      0.45422   0.5106    0.961     C
C      0.45603   0.2878   0.5427     C
C      0.45603   0.7122   0.0427     C
C      0.45617   0.3145   0.8199     C
C      0.45617   0.6855   0.3199     C
C      0.45754    0.429   0.4214     C
C      0.45754    0.571   0.9214     C
C      0.45828   0.2557   0.7766     C
C      0.45828   0.7443   0.2766     C
C       0.4589   0.1736    0.453     C
C       0.4589   0.8264    0.953     C
O      0.45995   0.1538   0.6779     O
O      0.45995   0.8462   0.1779     O
H       0.4602   0.1363   0.4224     H
H       0.4602   0.8637   0.9224     H
H       0.4775   0.2181   0.7798     H
H       0.4775   0.7819   0.2798     H
C      0.48002   0.4168   0.0407     C
C      0.48002   0.5832   0.5407     C
C      0.48093   0.2609   0.9158     C
C      0.48093   0.7391   0.4158     C
C      0.48349   0.4812    0.001     C
C      0.48349   0.5188    0.501     C
O      0.48456   0.4119   0.6718     O
O      0.48456   0.5881   0.1718     O
C      0.48482   0.3611    0.633     C
C      0.48482   0.6389    0.133     C
N      0.48496   0.3143   0.8707     N
N      0.48496   0.6857   0.3707     N
C      0.48794    0.245   0.5393     C
C      0.48794    0.755   0.0393     C
C      0.48935   0.1891   0.4948     C
C      0.48935   0.8109   0.9948     C
H       0.4896   0.1614   0.0078     H
H       0.4896   0.8386   0.5078     H
C      0.49118   0.3897   0.4202     C
C      0.49118   0.6103   0.9202     C
H       0.4933   0.3466   0.3933     H
H       0.4933   0.6534   0.8933     H
H       0.5067   0.3466   0.1067     H
H       0.5067   0.6534   0.6067     H
C      0.50882   0.3897   0.0798     C
C      0.50882   0.6103   0.5798     C
H       0.5104   0.1614   0.4922     H
H       0.5104   0.8386   0.9922     H
C      0.51065   0.1891   0.0052     C
C      0.51065   0.8109   0.5052     C
C      0.51206    0.245   0.9607     C
C      0.51206    0.755   0.4607     C
N      0.51504   0.3143   0.6293     N
N      0.51504   0.6857   0.1293     N
C      0.51518   0.3611    0.867     C
C      0.51518   0.6389    0.367     C
O      0.51544   0.4119   0.8282     O
O      0.51544   0.5881   0.3282     O
C      0.51651   0.4812    0.499     C
C      0.51651   0.5188    0.999     C
C      0.51907   0.2609   0.5842     C
C      0.51907   0.7391   0.0842     C
C      0.51998   0.4168   0.4593     C
C      0.51998   0.5832   0.9593     C
H       0.5225   0.2181   0.7202     H
H       0.5225   0.7819   0.2202     H
H       0.5398   0.1363   0.0776     H
H       0.5398   0.8637   0.5776     H
O      0.54005   0.1538   0.8221     O
O      0.54005   0.8462   0.3221     O
C       0.5411   0.1736    0.047     C
C       0.5411   0.8264    0.547     C
C      0.54172   0.2557   0.7234     C
C      0.54172   0.7443   0.2234     C
C      0.54246    0.429   0.0786     C
C      0.54246    0.571   0.5786     C
C      0.54383   0.3145   0.6801     C
C      0.54383   0.6855   0.1801     C
C      0.54397   0.2878   0.9573     C
C      0.54397   0.7122   0.4573     C
C      0.54578   0.4894    0.039     C
C      0.54578   0.5106    0.539     C
C      0.54616   0.3463   0.9119     C
C      0.54616   0.6537   0.4119     C
O      0.54707   0.2283   0.5828     O
O      0.54707   0.7717   0.0828     O
C        0.554   0.3763   0.4597     C
C        0.554   0.6237   0.9597     C
O      0.55796   0.3199   0.4268     O
O      0.55796   0.6801   0.9268     O
H       0.5622   0.4122   0.1058     H
H       0.5622   0.5878   0.6058     H
C       0.5668   0.1911   0.8185     C
C       0.5668   0.8089   0.3185     C
C      0.56838   0.2532   0.7713     C
C      0.56838   0.7468   0.2713     C
C      0.57017    0.374   0.6841     C
C      0.57017    0.626   0.1841     C
H       0.5702   0.4152   0.6551     H
H       0.5702   0.5848   0.1551     H
C      0.57219   0.2112   0.0441     C
C      0.57219   0.7888   0.5441     C
C      0.57485   0.2694      0.0     C
C      0.57485   0.7306      0.5     C
C       0.5777    0.386   0.9094     C
C       0.5777    0.614   0.4094     C
H       0.5791   0.4251   0.8797     H
H       0.5791   0.5749   0.3797     H
C      0.58136   0.4736   0.5386     C
C      0.58136   0.5264   0.0386     C
N      0.58242   0.4092   0.4998     N
N      0.58242   0.5908   0.9998     N
H       0.5931   0.1509   0.8809     H
H       0.5931   0.8491   0.3809     H
O      0.59545   0.1864   0.8558     O
O      0.59545   0.8136   0.3558     O
C      0.59611   0.3123   0.7746     C
C      0.59611   0.6877   0.2746     C
C       0.5969   0.3718   0.7322     C
C       0.5969   0.6282   0.2322     C
C      0.60351   0.1895   0.0884     C
C      0.60351   0.8105   0.5884     C
O      0.60388   0.1392    0.127     O
O      0.60388   0.8608    0.627     O
C      0.60614   0.3102   0.9944     C
C      0.60614   0.6898   0.4944     C
O      0.60763   0.4997   0.0692     O
O      0.60763   0.5003   0.5692     O
C      0.60838   0.3676   0.9517     C
C      0.60838   0.6324   0.4517     C
H       0.6145    0.311   0.8066     H
H       0.6145    0.689   0.3066     H
C      0.61724    0.373   0.4977     C
C      0.61724    0.627   0.9977     C
H       0.6203    0.296   0.5667     H
H       0.6203    0.704   0.0667     H
H       0.6241   0.4438   0.4284     H
H       0.6241   0.5562   0.9284     H
O       0.6244   0.4982   0.2094     O
O       0.6244   0.5018   0.7094     O
C       0.6267   0.4385   0.7394     C
C       0.6267   0.5615   0.2394     C
H       0.6297   0.3947   0.9501     H
H       0.6297   0.6053   0.4501     H
C      0.63239   0.3143   0.5384     C
C      0.63239   0.6857   0.0384     C
N      0.63421   0.2355   0.0833     N
N      0.63421   0.7645   0.5833     N
C      0.63454   0.4025   0.4554     C
C      0.63454   0.5975   0.9554     C
C      0.63757   0.2909   0.0381     C
C      0.63757   0.7091   0.5381     C
O      0.65213   0.4221   0.7786     O
O      0.65213   0.5779   0.2786     O
H       0.6598   0.3284   0.1717     H
H       0.6598   0.6716   0.6717     H
O      0.66563   0.3231   0.0363     O
O      0.66563   0.6769   0.5363     O
C      0.66572   0.2817   0.5378     C
C      0.66572   0.7183   0.0378     C
C       0.6659   0.2203   0.1277     C
C       0.6659   0.7797   0.6277     C
O      0.66765   0.1913   0.6185     O
O      0.66765   0.8087   0.1185     O
C      0.66767   0.3696    0.454     C
C      0.66767   0.6304    0.954     C
O      0.67253   0.4573   0.3737     O
O      0.67253   0.5427   0.8737     O
C       0.6742     0.28   0.1704     C
C       0.6742     0.72   0.6704     C
H       0.6793   0.1078   0.0952     H
H       0.6793   0.8922   0.5952     H
C      0.68301   0.3113   0.4951     C
C      0.68301   0.6887   0.9951     C
C      0.68316   0.2195   0.5818     C
C      0.68316   0.7805   0.0818     C
C      0.68606   0.1485   0.1246     C
C      0.68606   0.8515   0.6246     C
C      0.68668   0.4014   0.4086     C
C      0.68668   0.5986   0.9086     C
Zn     0.68682  0.49616  0.30468    Zn
Zn     0.68682  0.50384  0.80468    Zn
O      0.69257   0.3947  0.26049     O
O      0.69257   0.6053  0.76049     O
C      0.70455   0.2681   0.2122     C
C      0.70455   0.7319   0.7122     C
H       0.7056   0.2908   0.4946     H
H       0.7056   0.7092   0.9946     H
C      0.71391   0.3328   0.2605     C
C      0.71391   0.6672   0.7605     C
O      0.71411   0.1985  0.57949     O
O      0.71411   0.8015  0.07949     O
C      0.71646   0.1362    0.165     C
O      0.71646   0.3702  0.40931     O
O      0.71646   0.6298  0.90931     O
C      0.71646   0.8638    0.665     C
O      0.72394   0.0101  0.63819     O
O      0.72394   0.9899  0.13819     O
C      0.72564   0.1967   0.2087     C
C      0.72564   0.8033   0.7087     C
O      0.72956    0.436   0.8137     O
O      0.72956    0.564   0.3137     O
C      0.73834   0.0565    0.163     C
C      0.73834   0.9435    0.663     C
O      0.74125   0.3207  0.29768     O
O      0.74125   0.6793  0.79768     O
Zn     0.74397  0.12098  0.62826    Zn
Zn     0.74397  0.87902  0.12826    Zn
H       0.7463   0.1891    0.236     H
H       0.7463   0.8109    0.736     H
H       0.7537   0.3109    0.764     H
H       0.7537   0.6891    0.264     H
Zn     0.75603  0.37902  0.37174    Zn
Zn     0.75603  0.62098  0.87174    Zn
O      0.75875   0.1793  0.70232     O
O      0.75875   0.8207  0.20232     O
C      0.76166   0.4435    0.837     C
C      0.76166   0.5565    0.337     C
O      0.77044    0.064   0.1863     O
O      0.77044    0.936   0.6863     O
C      0.77436   0.3033   0.7913     C
C      0.77436   0.6967   0.2913     C
O      0.77606   0.4899  0.36181     O
O      0.77606   0.5101  0.86181     O
O      0.78354   0.1298  0.59069     O
C      0.78354   0.3638    0.835     C
C      0.78354   0.6362    0.335     C
O      0.78354   0.8702  0.09069     O
O      0.78589   0.3015  0.42051     O
O      0.78589   0.6985  0.92051     O
C      0.78609   0.1672   0.7395     C
C      0.78609   0.8328   0.2395     C
H       0.7944   0.2092   0.5054     H
H       0.7944   0.7908   0.0054     H
C      0.79545   0.2319   0.7878     C
C      0.79545   0.7681   0.2878     C
O      0.80743   0.1053  0.73951     O
O      0.80743   0.8947  0.23951     O
Zn     0.81318  0.00384  0.69532    Zn
Zn     0.81318  0.99616  0.19532    Zn
C      0.81332   0.0986   0.5914     C
C      0.81332   0.9014   0.0914     C
C      0.81394   0.3515   0.8754     C
C      0.81394   0.6485   0.3754     C
C      0.81684   0.2805   0.4182     C
C      0.81684   0.7195   0.9182     C
C      0.81699   0.1887   0.5049     C
C      0.81699   0.8113   0.0049     C
H       0.8207   0.3922   0.9048     H
H       0.8207   0.6078   0.4048     H
C       0.8258     0.22   0.8296     C
C       0.8258     0.78   0.3296     C
O      0.82747   0.0427   0.6263     O
O      0.82747   0.9573   0.1263     O
C      0.83233   0.1304    0.546     C
C      0.83233   0.8696    0.046     C
O      0.83235   0.3087   0.3815     O
O      0.83235   0.6913   0.8815     O
C       0.8341   0.2797   0.8723     C
C       0.8341   0.7203   0.3723     C
C      0.83428   0.2183   0.4622     C
C      0.83428   0.7817   0.9622     C
O      0.83437   0.1769   0.9637     O
O      0.83437   0.8231   0.4637     O
H       0.8402   0.1716   0.8283     H
H       0.8402   0.8284   0.3283     H
O      0.84787   0.0779   0.2214     O
O      0.84787   0.9221   0.7214     O
C      0.86243   0.2091   0.9619     C
C      0.86243   0.7909   0.4619     C
C      0.86546   0.0975   0.5446     C
C      0.86546   0.9025   0.0446     C
N      0.86579   0.2645   0.9167     N
N      0.86579   0.7355   0.4167     N
C      0.86761   0.1857   0.4616     C
C      0.86761   0.8143   0.9616     C
H       0.8703   0.1053   0.0499     H
H       0.8703   0.8947   0.5499     H
C       0.8733   0.0615   0.2606     C
C       0.8733   0.9385   0.7606     C
O       0.8756   0.0018   0.7906     O
O       0.8756   0.9982   0.2906     O
H       0.8759   0.0562   0.5716     H
H       0.8759   0.9438   0.0716     H
H       0.8797    0.204   0.4333     H
H       0.8797    0.796   0.9333     H
C      0.88276    0.127   0.5023     C
C      0.88276    0.873   0.0023     C
H       0.8855    0.189   0.1934     H
H       0.8855    0.811   0.6934     H
C      0.89162   0.1324   0.0483     C
C      0.89162   0.8676   0.5483     C
O      0.89237   0.0003   0.9308     O
O      0.89237   0.9997   0.4308     O
C      0.89386   0.1898   0.0056     C
C      0.89386   0.8102   0.5056     C
O      0.89612   0.3608    0.873     O
O      0.89612   0.6392    0.373     O
C      0.89649   0.3105   0.9116     C
C      0.89649   0.6895   0.4116     C
C       0.9031   0.1282   0.2678     C
C       0.9031   0.8718   0.7678     C
C      0.90389   0.1877   0.2254     C
C      0.90389   0.8123   0.7254     C
O      0.90455   0.3136   0.1442     O
O      0.90455   0.6864   0.6442     O
H       0.9069   0.3491   0.1191     H
H       0.9069   0.6509   0.6191     H
N      0.91758   0.0908   0.5002     N
N      0.91758   0.9092   0.0002     N
C      0.91864   0.0264   0.4614     C
C      0.91864   0.9736   0.9614     C
H       0.9209   0.0749   0.1203     H
H       0.9209   0.9251   0.6203     H
C       0.9223    0.114   0.0906     C
C       0.9223    0.886   0.5906     C
C      0.92515   0.2306      0.0     C
C      0.92515   0.7694      0.5     C
C      0.92781   0.2888   0.9559     C
C      0.92781   0.7112   0.4559     C
H       0.9298   0.0848   0.3449     H
H       0.9298   0.9152   0.8449     H
C      0.92983    0.126   0.3159     C
C      0.92983    0.874   0.8159     C
C      0.93162   0.2468   0.2287     C
C      0.93162   0.7532   0.7287     C
C       0.9332   0.3089   0.1815     C
C       0.9332   0.6911   0.6815     C
H       0.9378   0.0878   0.8942     H
H       0.9378   0.9122   0.3942     H
O      0.94204   0.1801   0.5732     O
O      0.94204   0.8199   0.0732     O
C        0.946   0.1237   0.5403     C
C        0.946   0.8763   0.0403     C
O      0.95293   0.2717   0.4172     O
O      0.95293   0.7283   0.9172     O
C      0.95384   0.1537   0.0881     C
C      0.95384   0.8463   0.5881     C
C      0.95422   0.0106    0.961     C
C      0.95422   0.9894    0.461     C
C      0.95603   0.2122   0.0427     C
C      0.95603   0.7878   0.5427     C
C      0.95617   0.1855   0.3199     C
C      0.95617   0.8145   0.8199     C
C      0.95754    0.071   0.9214     C
C      0.95754    0.929   0.4214     C
C      0.95828   0.2443   0.2766     C
C      0.95828   0.7557   0.7766     C
C       0.9589   0.3264    0.953     C
C       0.9589   0.6736    0.453     C
O      0.95995   0.3462   0.1779     O
O      0.95995   0.6538   0.6779     O
H       0.9602   0.3637   0.9224     H
H       0.9602   0.6363   0.4224     H
H       0.9775   0.2819   0.2798     H
H       0.9775   0.7181   0.7798     H
C      0.98002   0.0832   0.5407     C
C      0.98002   0.9168   0.0407     C
C      0.98093   0.2391   0.4158     C
C      0.98093   0.7609   0.9158     C
C      0.98349   0.0188    0.501     C
C      0.98349   0.9812    0.001     C
O      0.98456   0.0881   0.1718     O
O      0.98456   0.9119   0.6718     O
C      0.98482   0.1389    0.133     C
C      0.98482   0.8611    0.633     C
N      0.98496   0.1857   0.3707     N
N      0.98496   0.8143   0.8707     N
C      0.98794    0.255   0.0393     C
C      0.98794    0.745   0.5393     C
C      0.98935   0.3109   0.9948     C
C      0.98935   0.6891   0.4948     C
H       0.9896   0.3386   0.5078     H
H       0.9896   0.6614   0.0078     H
C      0.99118   0.1103   0.9202     C
C      0.99118   0.8897   0.4202     C
H       0.9933   0.1534   0.8933     H
H       0.9933   0.8466   0.3933     H
