data_I
_chemical_name_common  '/home/zhangsd/repos/MofS-CGCNN/ML/data/TSD/clean_cifs/FONKEA_clean'
_cell_length_a 29.77800
_cell_length_b  6.67540
_cell_length_c 19.47820
_cell_angle_alpha 90.00000
_cell_angle_beta  113.62300
_cell_angle_gamma 90.00000
_space_group_name_H-M_alt      'P 1'


loop_
_space_group_symop_operation_xyz
  'x, y, z' 

loop_
_atom_site_label
_atom_site_fract_x
_atom_site_fract_y
_atom_site_fract_z
_atom_site_type_symbol
Cd         0.0  0.46223     0.25    Cd
Cd         0.0  0.53777     0.75    Cd
O      0.02292   0.3015    0.159     O
O      0.02292   0.6985    0.659     O
O      0.02305   0.3691    0.659     O
O      0.02305   0.6309    0.159     O
C      0.03383   0.4657   0.1377     C
C      0.03383   0.5343   0.6377     C
H       0.0479   0.2493    0.553     H
H       0.0479   0.7507    0.053     H
C       0.0624   0.4667   0.0896     C
C       0.0624   0.5333   0.5896     C
C       0.0662   0.3621   0.5526     C
C       0.0662   0.6379   0.0526     C
O      0.07637    0.377   0.8322     O
O      0.07637    0.623   0.3322     O
O      0.07929   0.2968   0.3278     O
O      0.07929   0.7032   0.8278     O
H       0.0874   0.1846   0.1132     H
H       0.0874   0.8154   0.6132     H
C       0.0903   0.3017   0.0893     C
C       0.0903   0.6983   0.5893     C
C        0.097   0.3573   0.5149     C
C        0.097   0.6427   0.0149     C
H       0.0978   0.2437   0.4878     H
H       0.0978   0.7563   0.9878     H
C      0.09947   0.4611   0.3537     C
C      0.09947   0.5389   0.8537     C
Cd     0.10338  0.04146  0.85327    Cd
Cd     0.10338  0.95854  0.35327    Cd
C       0.1224   0.3081    0.054     C
C       0.1224   0.6919    0.554     C
C       0.1266   0.4795   0.0169     C
C       0.1266   0.5205   0.5169     C
H       0.1413   0.1963   0.0551     H
H       0.1413   0.8037   0.5551     H
C       0.1517   0.4689   0.4083     C
C       0.1517   0.5311   0.9083     C
C       0.1641    0.494   0.9842     C
C       0.1641    0.506   0.4842     C
O      0.16506   0.0002   0.4685     O
O      0.16506   0.9998   0.9685     O
H       0.1792   0.4209    0.331     H
H       0.1792   0.5791    0.831     H
O      0.18629   0.0505   0.8746     O
O      0.18629   0.9495   0.3746     O
C       0.1878   0.4476   0.3815     C
C       0.1878   0.5524   0.8815     C
C      0.19761   0.0198   0.9429     C
C      0.19761   0.9802   0.4429     C
C       0.2136   0.4768   0.0315     C
C       0.2136   0.5232   0.5315     C
H       0.2224   0.4521   0.0822     H
H       0.2224   0.5479   0.5822     H
C       0.2369   0.4658   0.4296     C
C       0.2369   0.5342   0.9296     C
H       0.2389   0.0481   0.5888     H
H       0.2389   0.9519   0.0888     H
C       0.2496   0.4956   0.0045     C
C       0.2496   0.5044   0.5045     C
C       0.2504   0.0044   0.9955     C
C       0.2504   0.9956   0.4955     C
H       0.2611   0.4519   0.4112     H
H       0.2611   0.5481   0.9112     H
C       0.2631   0.0342   0.5704     C
C       0.2631   0.9658   0.0704     C
H       0.2776   0.0479   0.9178     H
H       0.2776   0.9521   0.4178     H
C       0.2864   0.0232   0.9685     C
C       0.2864   0.9768   0.4685     C
C      0.30239   0.4802   0.0571     C
C      0.30239   0.5198   0.5571     C
C       0.3122   0.0524   0.6185     C
C       0.3122   0.9476   0.1185     C
O      0.31371   0.4495   0.1254     O
O      0.31371   0.5505   0.6254     O
H       0.3208   0.0791    0.669     H
H       0.3208   0.9209    0.169     H
O      0.33494   0.4998   0.5315     O
O      0.33494   0.5002   0.0315     O
C       0.3359    0.006   0.0158     C
C       0.3359    0.994   0.5158     C
C       0.3483   0.0311   0.5917     C
C       0.3483   0.9689   0.0917     C
H       0.3587   0.3037   0.9449     H
H       0.3587   0.6963   0.4449     H
C       0.3734   0.0205   0.9831     C
C       0.3734   0.9795   0.4831     C
C       0.3776   0.1919    0.946     C
C       0.3776   0.8081    0.446     C
Cd     0.39662  0.45854  0.14673    Cd
Cd     0.39662  0.54146  0.64673    Cd
C      0.40053   0.0389   0.6463     C
C      0.40053   0.9611   0.1463     C
H       0.4022   0.2563   0.5122     H
H       0.4022   0.7437   0.0122     H
C        0.403   0.1427   0.4851     C
C        0.403   0.8573   0.9851     C
C       0.4097   0.1983   0.9107     C
C       0.4097   0.8017   0.4107     C
H       0.4126   0.3154   0.8868     H
H       0.4126   0.6846   0.3868     H
O      0.42071   0.2032   0.6722     O
O      0.42071   0.7968   0.1722     O
O      0.42363    0.123   0.1678     O
O      0.42363    0.877   0.6678     O
C       0.4338   0.1379   0.4474     C
C       0.4338   0.8621   0.9474     C
C       0.4376   0.0333   0.9104     C
C       0.4376   0.9667   0.4104     C
H       0.4521   0.2507    0.447     H
H       0.4521   0.7493    0.947     H
C      0.46617   0.0343   0.8623     C
C      0.46617   0.9657   0.3623     C
O      0.47695   0.1309    0.341     O
O      0.47695   0.8691    0.841     O
O      0.47708   0.1985    0.841     O
O      0.47708   0.8015    0.341     O
Cd         0.5  0.03777     0.75    Cd
Cd         0.5  0.96223     0.25    Cd
O      0.52292   0.1985    0.659     O
O      0.52292   0.8015    0.159     O
O      0.52305   0.1309    0.159     O
O      0.52305   0.8691    0.659     O
C      0.53383   0.0343   0.6377     C
C      0.53383   0.9657   0.1377     C
H       0.5479   0.2507    0.053     H
H       0.5479   0.7493    0.553     H
C       0.5624   0.0333   0.5896     C
C       0.5624   0.9667   0.0896     C
C       0.5662   0.1379   0.0526     C
C       0.5662   0.8621   0.5526     C
O      0.57637    0.123   0.3322     O
O      0.57637    0.877   0.8322     O
O      0.57929   0.2032   0.8278     O
O      0.57929   0.7968   0.3278     O
H       0.5874   0.3154   0.6132     H
H       0.5874   0.6846   0.1132     H
C       0.5903   0.1983   0.5893     C
C       0.5903   0.8017   0.0893     C
C        0.597   0.1427   0.0149     C
C        0.597   0.8573   0.5149     C
H       0.5978   0.2563   0.9878     H
H       0.5978   0.7437   0.4878     H
C      0.59947   0.0389   0.8537     C
C      0.59947   0.9611   0.3537     C
Cd     0.60338  0.45854  0.35327    Cd
Cd     0.60338  0.54146  0.85327    Cd
C       0.6224   0.1919    0.554     C
C       0.6224   0.8081    0.054     C
C       0.6266   0.0205   0.5169     C
C       0.6266   0.9795   0.0169     C
H       0.6413   0.3037   0.5551     H
H       0.6413   0.6963   0.0551     H
C       0.6517   0.0311   0.9083     C
C       0.6517   0.9689   0.4083     C
C       0.6641    0.006   0.4842     C
C       0.6641    0.994   0.9842     C
O      0.66506   0.4998   0.9685     O
O      0.66506   0.5002   0.4685     O
H       0.6792   0.0791    0.831     H
H       0.6792   0.9209    0.331     H
O      0.68629   0.4495   0.3746     O
O      0.68629   0.5505   0.8746     O
C       0.6878   0.0524   0.8815     C
C       0.6878   0.9476   0.3815     C
C      0.69761   0.4802   0.4429     C
C      0.69761   0.5198   0.9429     C
C       0.7136   0.0232   0.5315     C
C       0.7136   0.9768   0.0315     C
H       0.7224   0.0479   0.5822     H
H       0.7224   0.9521   0.0822     H
C       0.7369   0.0342   0.9296     C
C       0.7369   0.9658   0.4296     C
H       0.7389   0.4519   0.0888     H
H       0.7389   0.5481   0.5888     H
C       0.7496   0.0044   0.5045     C
C       0.7496   0.9956   0.0045     C
C       0.7504   0.4956   0.4955     C
C       0.7504   0.5044   0.9955     C
H       0.7611   0.0481   0.9112     H
H       0.7611   0.9519   0.4112     H
C       0.7631   0.4658   0.0704     C
C       0.7631   0.5342   0.5704     C
H       0.7776   0.4521   0.4178     H
H       0.7776   0.5479   0.9178     H
C       0.7864   0.4768   0.4685     C
C       0.7864   0.5232   0.9685     C
C      0.80239   0.0198   0.5571     C
C      0.80239   0.9802   0.0571     C
C       0.8122   0.4476   0.1185     C
C       0.8122   0.5524   0.6185     C
O      0.81371   0.0505   0.6254     O
O      0.81371   0.9495   0.1254     O
H       0.8208   0.4209    0.169     H
H       0.8208   0.5791    0.669     H
O      0.83494   0.0002   0.0315     O
O      0.83494   0.9998   0.5315     O
C       0.8359    0.494   0.5158     C
C       0.8359    0.506   0.0158     C
C       0.8483   0.4689   0.0917     C
C       0.8483   0.5311   0.5917     C
H       0.8587   0.1963   0.4449     H
H       0.8587   0.8037   0.9449     H
C       0.8734   0.4795   0.4831     C
C       0.8734   0.5205   0.9831     C
C       0.8776   0.3081    0.446     C
C       0.8776   0.6919    0.946     C
Cd     0.89662  0.04146  0.64673    Cd
Cd     0.89662  0.95854  0.14673    Cd
C      0.90053   0.4611   0.1463     C
C      0.90053   0.5389   0.6463     C
H       0.9022   0.2437   0.0122     H
H       0.9022   0.7563   0.5122     H
C        0.903   0.3573   0.9851     C
C        0.903   0.6427   0.4851     C
C       0.9097   0.3017   0.4107     C
C       0.9097   0.6983   0.9107     C
H       0.9126   0.1846   0.3868     H
H       0.9126   0.8154   0.8868     H
O      0.92071   0.2968   0.1722     O
O      0.92071   0.7032   0.6722     O
O      0.92363    0.377   0.6678     O
O      0.92363    0.623   0.1678     O
C       0.9338   0.3621   0.9474     C
C       0.9338   0.6379   0.4474     C
C       0.9376   0.4667   0.4104     C
C       0.9376   0.5333   0.9104     C
H       0.9521   0.2493    0.947     H
H       0.9521   0.7507    0.447     H
C      0.96617   0.4657   0.3623     C
C      0.96617   0.5343   0.8623     C
O      0.97695   0.3691    0.841     O
O      0.97695   0.6309    0.341     O
O      0.97708   0.3015    0.341     O
O      0.97708   0.6985    0.841     O
