data_I
_chemical_name_common  '/home/zhangsd/repos/MofS-CGCNN/ML/data/TSD/clean_cifs/FOPBAP_clean'
_cell_length_a 16.64600
_cell_length_b 29.78300
_cell_length_c 17.27400
_cell_angle_alpha 90.00000
_cell_angle_beta  90.00000
_cell_angle_gamma 90.00000
_space_group_name_H-M_alt      'P 1'


loop_
_space_group_symop_operation_xyz
  'x, y, z' 

loop_
_atom_site_label
_atom_site_fract_x
_atom_site_fract_y
_atom_site_fract_z
_atom_site_type_symbol
N          0.0   0.1226     0.25     N
N          0.0   0.3781     0.25     N
N          0.0   0.6219     0.75     N
N          0.0   0.8774     0.75     N
C       0.0022   0.4777   0.7032     C
C       0.0022   0.5223   0.2968     C
Cd     0.00417  0.25017  0.38406    Cd
Cd     0.00417  0.74983  0.61594    Cd
C       0.0052   0.0188   0.7927     C
C       0.0052   0.9812   0.2073     C
N       0.0069   0.1945    0.211     N
N       0.0069   0.8055    0.789     N
C       0.0083   0.1514   0.1921     C
C       0.0083   0.8486   0.8079     C
N       0.0084   0.3063   0.2891     N
N       0.0084   0.6937   0.7109     N
H       0.0087   0.2196   0.6818     H
H       0.0087   0.7804   0.3182     H
H       0.0091   0.2722    0.682     H
H       0.0091   0.7278    0.318     H
C       0.0102   0.3496   0.3055     C
C       0.0102   0.6504   0.6945     C
H       0.0145    0.072   0.1272     H
H       0.0145    0.928   0.8728     H
H       0.0146   0.0471   0.6871     H
H       0.0146   0.9529   0.3129     H
H       0.0187   0.4496    0.817     H
H       0.0187   0.5504    0.183     H
H       0.0206   0.4274   0.3721     H
H       0.0206   0.5726   0.6279     H
C       0.0214   0.1383   0.1102     C
C       0.0214   0.8617   0.8898     C
C       0.0234   0.0934    0.089     C
C       0.0234   0.9066    0.911     C
C       0.0237   0.2458   0.7117     C
C       0.0237   0.7542   0.2883     C
Cd     0.02545      0.0      0.0    Cd
C       0.0269   0.3619   0.3897     C
C       0.0269   0.6381   0.6103     C
H        0.028   0.0049   0.3144     H
H        0.028   0.9951   0.6856     H
Cd     0.02831      0.5      0.5    Cd
C       0.0295    0.406   0.4105     C
C       0.0295    0.594   0.5895     C
H       0.0301   0.4979   0.1825     H
H       0.0301   0.5021   0.8175     H
N       0.0344   0.1701   0.0599     N
N       0.0344   0.8299   0.9401     N
N       0.0373   0.0794    0.018     N
N       0.0373   0.9206    0.982     N
N       0.0411   0.3297   0.4384     N
N       0.0411   0.6703   0.5616     N
N       0.0439   0.4205   0.4812     N
N       0.0439   0.5795   0.5188     N
C       0.0481   0.1569   0.9865     C
C       0.0481   0.8431   0.0135     C
C        0.051   0.1123   0.9668     C
C        0.051   0.8877   0.0332     C
H       0.0558   0.1786   0.9484     H
H       0.0558   0.8214   0.0516     H
C       0.0574   0.3431   0.5127     C
C       0.0574   0.6569   0.4873     C
C       0.0602   0.3876   0.5323     C
C       0.0602   0.6124   0.4677     C
H       0.0629   0.1047   0.9159     H
H       0.0629   0.8953   0.0841     H
H       0.0668   0.3215   0.5506     H
H       0.0668   0.6785   0.4494     H
H        0.074   0.3955   0.5827     H
H        0.074   0.6045   0.4173     H
C        0.092   0.4837   0.6783     C
C        0.092   0.5163   0.3217     C
O       0.0923    0.265   0.0156     O
O       0.0923    0.735   0.9844     O
C       0.0925    0.012   0.8212     C
C       0.0925    0.988   0.1788     C
O       0.0992   0.0049   0.8962     O
O       0.0992   0.9951   0.1038     O
O       0.1003   0.4925   0.6055     O
O       0.1003   0.5075   0.3945     O
O       0.1112   0.2318   0.4626     O
O       0.1112   0.7682   0.5374     O
C       0.1124   0.2456   0.7235     C
C       0.1124   0.7544   0.2765     C
O        0.142   0.2613   0.1306     O
O        0.142   0.7387   0.8694     O
O       0.1451   0.2249   0.7809     O
O       0.1451   0.7751   0.2191     O
O       0.1483   0.0116   0.7769     O
O       0.1483   0.4782   0.7231     O
O       0.1483   0.5218   0.2769     O
O       0.1483   0.9884   0.2231     O
C       0.1539   0.2659   0.0582     C
C       0.1539   0.7341   0.9418     C
O       0.1546   0.2653   0.6756     O
O       0.1546   0.7347   0.3244     O
O       0.1556   0.2455   0.3464     O
O       0.1556   0.7545   0.6536     O
C       0.1703   0.2365   0.4166     C
C       0.1703   0.7635   0.5834     C
H       0.1808   0.3594   0.1534     H
H       0.1808   0.6406   0.8466     H
H       0.1857   0.4344   0.1914     H
H       0.1857   0.5656   0.8086     H
H       0.1875   0.1498    0.326     H
H       0.1875   0.8502    0.674     H
H       0.1921   0.0759   0.2936     H
H       0.1921   0.9241   0.7064     H
C       0.1937   0.3667   0.2043     C
C       0.1937   0.6333   0.7957     C
C        0.196   0.4121   0.2278     C
C        0.196   0.5879   0.7722     C
C       0.1976   0.1416    0.275     C
C       0.1976   0.8584    0.725     C
C       0.2003   0.0971    0.255     C
C       0.2003   0.9029    0.745     C
N       0.2096   0.1741   0.2202     N
N       0.2096   0.8259   0.7798     N
N       0.2103   0.3337   0.2554     N
N       0.2103   0.6663   0.7446     N
N       0.2124   0.4239   0.3003     N
N       0.2124   0.5761   0.6997     N
N       0.2137   0.0828   0.1841     N
N       0.2137   0.9172   0.8159     N
H       0.2161   0.2413   0.9298     H
H       0.2161   0.7587   0.0702     H
H        0.221   0.2934   0.9192     H
H        0.221   0.7066   0.0808     H
Cd     0.22313  0.25439  0.23511    Cd
Cd     0.22313  0.74561  0.76489    Cd
C       0.2244   0.1604   0.1485     C
C       0.2244   0.8396   0.8515     C
C       0.2247   0.1158   0.1292     C
C       0.2247   0.8842   0.8708     C
C       0.2261   0.3899   0.3509     C
C       0.2261   0.6101   0.6491     C
C       0.2265   0.3454   0.3286     C
C       0.2265   0.6546   0.6714     C
H       0.2271   0.2463   0.5538     H
H       0.2271   0.7537   0.4462     H
H       0.2348   0.1816   0.1103     H
H       0.2348   0.8184   0.8897     H
C       0.2361   0.2739   0.0276     C
C       0.2361   0.7261   0.9724     C
H       0.2382   0.3233   0.3648     H
H       0.2382   0.6767   0.6352     H
C       0.2396   0.0994    0.052     C
C       0.2396   0.9006    0.948     C
C       0.2407   0.4023   0.4311     C
C       0.2407   0.5977   0.5689     C
N       0.2444   0.4462    0.455     N
N       0.2444   0.5538    0.545     N
N       0.2451   0.0554   0.0329     N
N       0.2451   0.9446   0.9671     N
C       0.2456    0.268   0.9451     C
C       0.2456    0.732   0.0549     C
H       0.2482   0.1957   0.5407     H
H       0.2482   0.8043   0.4593     H
N       0.2494   0.1274   0.9893     N
N       0.2494   0.8726   0.0107     N
Cd     0.24955  0.00356  0.13423    Cd
Cd     0.24955  0.99644  0.86577    Cd
Cd     0.25045  0.49644  0.63423    Cd
Cd     0.25045  0.50356  0.36577    Cd
N       0.2506   0.3726   0.4893     N
N       0.2506   0.6274   0.5107     N
H       0.2518   0.3043   0.0407     H
H       0.2518   0.6957   0.9593     H
C       0.2544    0.232   0.4451     C
C       0.2544    0.768   0.5549     C
N       0.2549   0.4446   0.5329     N
N       0.2549   0.5554   0.4671     N
N       0.2556   0.0538    0.955     N
N       0.2556   0.9462    0.045     N
C       0.2593   0.0977   0.9311     C
C       0.2593   0.9023   0.0689     C
C       0.2604   0.4006    0.552     C
C       0.2604   0.5994    0.448     C
H       0.2618   0.1767   0.8648     H
H       0.2618   0.8233   0.1352     H
C       0.2639   0.2261   0.5276     C
C       0.2639   0.7739   0.4724     C
H       0.2652   0.3184   0.6103     H
H       0.2652   0.6816   0.3897     H
H       0.2729   0.2537   0.0538     H
H       0.2729   0.7463   0.9462     H
C       0.2735   0.1546   0.8286     C
C       0.2735   0.8454   0.1714     C
C       0.2739   0.1101   0.8509     C
C       0.2739   0.8899   0.1491     C
C       0.2753   0.3842   0.6292     C
C       0.2753   0.6158   0.3708     C
C       0.2756   0.3396   0.6485     C
C       0.2756   0.6604   0.3515     C
Cd     0.27687  0.24561  0.73511    Cd
Cd     0.27687  0.75439  0.26489    Cd
H        0.279   0.2066   0.4192     H
H        0.279   0.7934   0.5808     H
H       0.2839   0.2587   0.4298     H
H       0.2839   0.7413   0.5702     H
N       0.2863   0.4172   0.6841     N
N       0.2863   0.5828   0.3159     N
N       0.2876   0.0761   0.8003     N
N       0.2876   0.9239   0.1997     N
N       0.2897   0.1663   0.7554     N
N       0.2897   0.8337   0.2446     N
N       0.2904   0.3259   0.7202     N
N       0.2904   0.6741   0.2798     N
C       0.2997   0.4029    0.755     C
C       0.2997   0.5971    0.245     C
C       0.3024   0.3584    0.775     C
C       0.3024   0.6416    0.225     C
C        0.304   0.0879   0.7278     C
C        0.304   0.9121   0.2722     C
C       0.3063   0.1333   0.7043     C
C       0.3063   0.8667   0.2957     C
H       0.3079   0.4241   0.7936     H
H       0.3079   0.5759   0.2064     H
H       0.3125   0.3502    0.826     H
H       0.3125   0.6498    0.174     H
H       0.3143   0.0656   0.6914     H
H       0.3143   0.9344   0.3086     H
H       0.3192   0.1406   0.6534     H
H       0.3192   0.8594   0.3466     H
C       0.3297   0.2635   0.9166     C
C       0.3297   0.7365   0.0834     C
O       0.3444   0.2545   0.8464     O
O       0.3444   0.7455   0.1536     O
O       0.3454   0.2347   0.1756     O
O       0.3454   0.7653   0.8244     O
C       0.3461   0.2341   0.5582     C
C       0.3461   0.7659   0.4418     C
O       0.3517   0.0218   0.2231     O
O       0.3517   0.4884   0.2769     O
O       0.3517   0.5116   0.7231     O
O       0.3517   0.9782   0.7769     O
O       0.3549   0.2751   0.2809     O
O       0.3549   0.7249   0.7191     O
O        0.358   0.2387   0.6306     O
O        0.358   0.7613   0.3694     O
C       0.3876   0.2544   0.2235     C
C       0.3876   0.7456   0.7765     C
O       0.3888   0.2682   0.9626     O
O       0.3888   0.7318   0.0374     O
O       0.3997   0.0075   0.1055     O
O       0.3997   0.9925   0.8945     O
O       0.4008   0.4951   0.3962     O
O       0.4008   0.5049   0.6038     O
C       0.4075    0.488   0.3212     C
C       0.4075    0.512   0.6788     C
O       0.4077    0.235   0.5156     O
O       0.4077    0.765   0.4844     O
C        0.408   0.0163   0.1783     C
C        0.408   0.9837   0.8217     C
H        0.426   0.1045   0.0827     H
H        0.426   0.8955   0.9173     H
H       0.4332   0.1785   0.0506     H
H       0.4332   0.8215   0.9494     H
H       0.4371   0.3953   0.4159     H
H       0.4371   0.6047   0.5841     H
C       0.4398   0.1124   0.0323     C
C       0.4398   0.8876   0.9677     C
C       0.4426   0.1569   0.0127     C
C       0.4426   0.8431   0.9873     C
H       0.4442   0.3214   0.4484     H
H       0.4442   0.6786   0.5516     H
C        0.449   0.3877   0.4668     C
C        0.449   0.6123   0.5332     C
C       0.4519   0.3431   0.4865     C
C       0.4519   0.6569   0.5135     C
N       0.4561   0.0795   0.9812     N
N       0.4561   0.9205   0.0188     N
N       0.4589   0.1703   0.9384     N
N       0.4589   0.8297   0.0616     N
N       0.4627   0.4206    0.518     N
N       0.4627   0.5794    0.482     N
N       0.4656   0.3299   0.5599     N
N       0.4656   0.6701   0.4401     N
H       0.4699   0.0021   0.6825     H
H       0.4699   0.9979   0.3175     H
C       0.4705    0.094   0.9105     C
C       0.4705    0.906   0.0895     C
Cd     0.47169      0.0      0.0    Cd
H        0.472   0.4951   0.8144     H
H        0.472   0.5049   0.1856     H
C       0.4731   0.1381   0.8897     C
C       0.4731   0.8619   0.1103     C
Cd     0.47455      0.5      0.5    Cd
C       0.4763   0.2542   0.2117     C
C       0.4763   0.7458   0.7883     C
C       0.4766   0.4066    0.589     C
C       0.4766   0.5934    0.411     C
C       0.4786   0.3617   0.6102     C
C       0.4786   0.6383   0.3898     C
H       0.4794   0.0726   0.8721     H
H       0.4794   0.9274   0.1279     H
H       0.4813   0.0504    0.317     H
H       0.4813   0.9496    0.683     H
H       0.4854   0.4529   0.1871     H
H       0.4854   0.5471   0.8129     H
H       0.4855    0.428   0.6272     H
H       0.4855    0.572   0.3728     H
C       0.4898   0.1504   0.8055     C
C       0.4898   0.8496   0.1945     C
H       0.4909   0.2278    0.182     H
H       0.4909   0.7722    0.818     H
H       0.4913   0.2804   0.1818     H
H       0.4913   0.7196   0.8182     H
N       0.4916   0.1937   0.7891     N
N       0.4916   0.8063   0.2109     N
C       0.4917   0.3486   0.6921     C
C       0.4917   0.6514   0.3079     C
N       0.4931   0.3055    0.711     N
N       0.4931   0.6945    0.289     N
C       0.4948   0.4812   0.2927     C
C       0.4948   0.5188   0.7073     C
Cd     0.49583  0.24983  0.88406    Cd
Cd     0.49583  0.75017  0.11594    Cd
C       0.4978   0.0223   0.2032     C
C       0.4978   0.9777   0.7968     C
N          0.5   0.1219     0.75     N
N          0.5   0.3774     0.75     N
N          0.5   0.6226     0.25     N
N          0.5   0.8781     0.25     N
C       0.5022   0.0223   0.2968     C
C       0.5022   0.9777   0.7032     C
Cd     0.50417  0.24983  0.61594    Cd
Cd     0.50417  0.75017  0.38406    Cd
C       0.5052   0.4812   0.2073     C
C       0.5052   0.5188   0.7927     C
N       0.5069   0.3055    0.789     N
N       0.5069   0.6945    0.211     N
C       0.5083   0.3486   0.8079     C
C       0.5083   0.6514   0.1921     C
N       0.5084   0.1937   0.7109     N
N       0.5084   0.8063   0.2891     N
H       0.5087   0.2804   0.3182     H
H       0.5087   0.7196   0.6818     H
H       0.5091   0.2278    0.318     H
H       0.5091   0.7722    0.682     H
C       0.5102   0.1504   0.6945     C
C       0.5102   0.8496   0.3055     C
H       0.5145    0.428   0.8728     H
H       0.5145    0.572   0.1272     H
H       0.5146   0.4529   0.3129     H
H       0.5146   0.5471   0.6871     H
H       0.5187   0.0504    0.183     H
H       0.5187   0.9496    0.817     H
H       0.5206   0.0726   0.6279     H
H       0.5206   0.9274   0.3721     H
C       0.5214   0.3617   0.8898     C
C       0.5214   0.6383   0.1102     C
C       0.5234   0.4066    0.911     C
C       0.5234   0.5934    0.089     C
C       0.5237   0.2542   0.2883     C
C       0.5237   0.7458   0.7117     C
Cd     0.52545      0.5      0.0    Cd
C       0.5269   0.1381   0.6103     C
C       0.5269   0.8619   0.3897     C
H        0.528   0.4951   0.6856     H
H        0.528   0.5049   0.3144     H
Cd     0.52831      0.0      0.5    Cd
C       0.5295    0.094   0.5895     C
C       0.5295    0.906   0.4105     C
H       0.5301   0.0021   0.8175     H
H       0.5301   0.9979   0.1825     H
N       0.5344   0.3299   0.9401     N
N       0.5344   0.6701   0.0599     N
N       0.5373   0.4206    0.982     N
N       0.5373   0.5794    0.018     N
N       0.5411   0.1703   0.5616     N
N       0.5411   0.8297   0.4384     N
N       0.5439   0.0795   0.5188     N
N       0.5439   0.9205   0.4812     N
C       0.5481   0.3431   0.0135     C
C       0.5481   0.6569   0.9865     C
C        0.551   0.3877   0.0332     C
C        0.551   0.6123   0.9668     C
H       0.5558   0.3214   0.0516     H
H       0.5558   0.6786   0.9484     H
C       0.5574   0.1569   0.4873     C
C       0.5574   0.8431   0.5127     C
C       0.5602   0.1124   0.4677     C
C       0.5602   0.8876   0.5323     C
H       0.5629   0.3953   0.0841     H
H       0.5629   0.6047   0.9159     H
H       0.5668   0.1785   0.4494     H
H       0.5668   0.8215   0.5506     H
H        0.574   0.1045   0.4173     H
H        0.574   0.8955   0.5827     H
C        0.592   0.0163   0.3217     C
C        0.592   0.9837   0.6783     C
O       0.5923    0.235   0.9844     O
O       0.5923    0.765   0.0156     O
C       0.5925    0.488   0.1788     C
C       0.5925    0.512   0.8212     C
O       0.5992   0.4951   0.1038     O
O       0.5992   0.5049   0.8962     O
O       0.6003   0.0075   0.3945     O
O       0.6003   0.9925   0.6055     O
O       0.6112   0.2682   0.5374     O
O       0.6112   0.7318   0.4626     O
C       0.6124   0.2544   0.2765     C
C       0.6124   0.7456   0.7235     C
O        0.642   0.2387   0.8694     O
O        0.642   0.7613   0.1306     O
O       0.6451   0.2751   0.2191     O
O       0.6451   0.7249   0.7809     O
O       0.6483   0.0218   0.2769     O
O       0.6483   0.4884   0.2231     O
O       0.6483   0.5116   0.7769     O
O       0.6483   0.9782   0.7231     O
C       0.6539   0.2341   0.9418     C
C       0.6539   0.7659   0.0582     C
O       0.6546   0.2347   0.3244     O
O       0.6546   0.7653   0.6756     O
O       0.6556   0.2545   0.6536     O
O       0.6556   0.7455   0.3464     O
C       0.6703   0.2635   0.5834     C
C       0.6703   0.7365   0.4166     C
H       0.6808   0.1406   0.8466     H
H       0.6808   0.8594   0.1534     H
H       0.6857   0.0656   0.8086     H
H       0.6857   0.9344   0.1914     H
H       0.6875   0.3502    0.674     H
H       0.6875   0.6498    0.326     H
H       0.6921   0.4241   0.7064     H
H       0.6921   0.5759   0.2936     H
C       0.6937   0.1333   0.7957     C
C       0.6937   0.8667   0.2043     C
C        0.696   0.0879   0.7722     C
C        0.696   0.9121   0.2278     C
C       0.6976   0.3584    0.725     C
C       0.6976   0.6416    0.275     C
C       0.7003   0.4029    0.745     C
C       0.7003   0.5971    0.255     C
N       0.7096   0.3259   0.7798     N
N       0.7096   0.6741   0.2202     N
N       0.7103   0.1663   0.7446     N
N       0.7103   0.8337   0.2554     N
N       0.7124   0.0761   0.6997     N
N       0.7124   0.9239   0.3003     N
N       0.7137   0.4172   0.8159     N
N       0.7137   0.5828   0.1841     N
H       0.7161   0.2587   0.0702     H
H       0.7161   0.7413   0.9298     H
H        0.721   0.2066   0.0808     H
H        0.721   0.7934   0.9192     H
Cd     0.72313  0.24561  0.76489    Cd
Cd     0.72313  0.75439  0.23511    Cd
C       0.7244   0.3396   0.8515     C
C       0.7244   0.6604   0.1485     C
C       0.7247   0.3842   0.8708     C
C       0.7247   0.6158   0.1292     C
C       0.7261   0.1101   0.6491     C
C       0.7261   0.8899   0.3509     C
C       0.7265   0.1546   0.6714     C
C       0.7265   0.8454   0.3286     C
H       0.7271   0.2537   0.4462     H
H       0.7271   0.7463   0.5538     H
H       0.7348   0.3184   0.8897     H
H       0.7348   0.6816   0.1103     H
C       0.7361   0.2261   0.9724     C
C       0.7361   0.7739   0.0276     C
H       0.7382   0.1767   0.6352     H
H       0.7382   0.8233   0.3648     H
C       0.7396   0.4006    0.948     C
C       0.7396   0.5994    0.052     C
C       0.7407   0.0977   0.5689     C
C       0.7407   0.9023   0.4311     C
N       0.7444   0.0538    0.545     N
N       0.7444   0.9462    0.455     N
N       0.7451   0.4446   0.9671     N
N       0.7451   0.5554   0.0329     N
C       0.7456    0.232   0.0549     C
C       0.7456    0.768   0.9451     C
H       0.7482   0.3043   0.4593     H
H       0.7482   0.6957   0.5407     H
N       0.7494   0.3726   0.0107     N
N       0.7494   0.6274   0.9893     N
Cd     0.74955  0.49644  0.86577    Cd
Cd     0.74955  0.50356  0.13423    Cd
Cd     0.75045  0.00356  0.36577    Cd
Cd     0.75045  0.99644  0.63423    Cd
N       0.7506   0.1274   0.5107     N
N       0.7506   0.8726   0.4893     N
H       0.7518   0.1957   0.9593     H
H       0.7518   0.8043   0.0407     H
C       0.7544    0.268   0.5549     C
C       0.7544    0.732   0.4451     C
N       0.7549   0.0554   0.4671     N
N       0.7549   0.9446   0.5329     N
N       0.7556   0.4462    0.045     N
N       0.7556   0.5538    0.955     N
C       0.7593   0.4023   0.0689     C
C       0.7593   0.5977   0.9311     C
C       0.7604   0.0994    0.448     C
C       0.7604   0.9006    0.552     C
H       0.7618   0.3233   0.1352     H
H       0.7618   0.6767   0.8648     H
C       0.7639   0.2739   0.4724     C
C       0.7639   0.7261   0.5276     C
H       0.7652   0.1816   0.3897     H
H       0.7652   0.8184   0.6103     H
H       0.7729   0.2463   0.9462     H
H       0.7729   0.7537   0.0538     H
C       0.7735   0.3454   0.1714     C
C       0.7735   0.6546   0.8286     C
C       0.7739   0.3899   0.1491     C
C       0.7739   0.6101   0.8509     C
C       0.7753   0.1158   0.3708     C
C       0.7753   0.8842   0.6292     C
C       0.7756   0.1604   0.3515     C
C       0.7756   0.8396   0.6485     C
Cd     0.77687  0.25439  0.26489    Cd
Cd     0.77687  0.74561  0.73511    Cd
H        0.779   0.2934   0.5808     H
H        0.779   0.7066   0.4192     H
H       0.7839   0.2413   0.5702     H
H       0.7839   0.7587   0.4298     H
N       0.7863   0.0828   0.3159     N
N       0.7863   0.9172   0.6841     N
N       0.7876   0.4239   0.1997     N
N       0.7876   0.5761   0.8003     N
N       0.7897   0.3337   0.2446     N
N       0.7897   0.6663   0.7554     N
N       0.7904   0.1741   0.2798     N
N       0.7904   0.8259   0.7202     N
C       0.7997   0.0971    0.245     C
C       0.7997   0.9029    0.755     C
C       0.8024   0.1416    0.225     C
C       0.8024   0.8584    0.775     C
C        0.804   0.4121   0.2722     C
C        0.804   0.5879   0.7278     C
C       0.8063   0.3667   0.2957     C
C       0.8063   0.6333   0.7043     C
H       0.8079   0.0759   0.2064     H
H       0.8079   0.9241   0.7936     H
H       0.8125   0.1498    0.174     H
H       0.8125   0.8502    0.826     H
H       0.8143   0.4344   0.3086     H
H       0.8143   0.5656   0.6914     H
H       0.8192   0.3594   0.3466     H
H       0.8192   0.6406   0.6534     H
C       0.8297   0.2365   0.0834     C
C       0.8297   0.7635   0.9166     C
O       0.8444   0.2455   0.1536     O
O       0.8444   0.7545   0.8464     O
O       0.8454   0.2653   0.8244     O
O       0.8454   0.7347   0.1756     O
C       0.8461   0.2659   0.4418     C
C       0.8461   0.7341   0.5582     C
O       0.8517   0.0116   0.7231     O
O       0.8517   0.4782   0.7769     O
O       0.8517   0.5218   0.2231     O
O       0.8517   0.9884   0.2769     O
O       0.8549   0.2249   0.7191     O
O       0.8549   0.7751   0.2809     O
O        0.858   0.2613   0.3694     O
O        0.858   0.7387   0.6306     O
C       0.8876   0.2456   0.7765     C
C       0.8876   0.7544   0.2235     C
O       0.8888   0.2318   0.0374     O
O       0.8888   0.7682   0.9626     O
O       0.8997   0.4925   0.8945     O
O       0.8997   0.5075   0.1055     O
O       0.9008   0.0049   0.6038     O
O       0.9008   0.9951   0.3962     O
C       0.9075    0.012   0.6788     C
C       0.9075    0.988   0.3212     C
O       0.9077    0.265   0.4844     O
O       0.9077    0.735   0.5156     O
C        0.908   0.4837   0.8217     C
C        0.908   0.5163   0.1783     C
H        0.926   0.3955   0.9173     H
H        0.926   0.6045   0.0827     H
H       0.9332   0.3215   0.9494     H
H       0.9332   0.6785   0.0506     H
H       0.9371   0.1047   0.5841     H
H       0.9371   0.8953   0.4159     H
C       0.9398   0.3876   0.9677     C
C       0.9398   0.6124   0.0323     C
C       0.9426   0.3431   0.9873     C
C       0.9426   0.6569   0.0127     C
H       0.9442   0.1786   0.5516     H
H       0.9442   0.8214   0.4484     H
C        0.949   0.1123   0.5332     C
C        0.949   0.8877   0.4668     C
C       0.9519   0.1569   0.5135     C
C       0.9519   0.8431   0.4865     C
N       0.9561   0.4205   0.0188     N
N       0.9561   0.5795   0.9812     N
N       0.9589   0.3297   0.0616     N
N       0.9589   0.6703   0.9384     N
N       0.9627   0.0794    0.482     N
N       0.9627   0.9206    0.518     N
N       0.9656   0.1701   0.4401     N
N       0.9656   0.8299   0.5599     N
H       0.9699   0.4979   0.3175     H
H       0.9699   0.5021   0.6825     H
C       0.9705    0.406   0.0895     C
C       0.9705    0.594   0.9105     C
Cd     0.97169      0.5      0.0    Cd
H        0.972   0.0049   0.1856     H
H        0.972   0.9951   0.8144     H
C       0.9731   0.3619   0.1103     C
C       0.9731   0.6381   0.8897     C
Cd     0.97455      0.0      0.5    Cd
C       0.9763   0.2458   0.7883     C
C       0.9763   0.7542   0.2117     C
C       0.9766   0.0934    0.411     C
C       0.9766   0.9066    0.589     C
C       0.9786   0.1383   0.3898     C
C       0.9786   0.8617   0.6102     C
H       0.9794   0.4274   0.1279     H
H       0.9794   0.5726   0.8721     H
H       0.9813   0.4496    0.683     H
H       0.9813   0.5504    0.317     H
H       0.9854   0.0471   0.8129     H
H       0.9854   0.9529   0.1871     H
H       0.9855    0.072   0.3728     H
H       0.9855    0.928   0.6272     H
C       0.9898   0.3496   0.1945     C
C       0.9898   0.6504   0.8055     C
H       0.9909   0.2722    0.818     H
H       0.9909   0.7278    0.182     H
H       0.9913   0.2196   0.8182     H
H       0.9913   0.7804   0.1818     H
N       0.9916   0.3063   0.2109     N
N       0.9916   0.6937   0.7891     N
C       0.9917   0.1514   0.3079     C
C       0.9917   0.8486   0.6921     C
N       0.9931   0.1945    0.289     N
N       0.9931   0.8055    0.711     N
C       0.9948   0.0188   0.7073     C
C       0.9948   0.9812   0.2927     C
Cd     0.99583  0.25017  0.11594    Cd
Cd     0.99583  0.74983  0.88406    Cd
C       0.9978   0.4777   0.7968     C
C       0.9978   0.5223   0.2032     C
