data_I
_chemical_name_common  '/home/zhangsd/repos/MofS-CGCNN/ML/data/TSD/clean_cifs/FORQIN_clean'
_cell_length_a 30.57300
_cell_length_b 15.73300
_cell_length_c 22.01300
_cell_angle_alpha 90.00000
_cell_angle_beta  132.96500
_cell_angle_gamma 90.00000
_space_group_name_H-M_alt      'P 1'


loop_
_space_group_symop_operation_xyz
  'x, y, z' 

loop_
_atom_site_label
_atom_site_fract_x
_atom_site_fract_y
_atom_site_fract_z
_atom_site_type_symbol
H       0.0123   0.1405   0.9599     H
H       0.0123   0.8595   0.4599     H
O       0.0194    0.284    0.613     O
O       0.0194    0.716    0.113     O
C       0.0351   0.2932   0.9296     C
C       0.0351   0.7068   0.4296     C
C       0.0533   0.1487   0.9941     C
C       0.0533   0.8513   0.4941     C
O       0.0603   0.3561   0.9308     O
O       0.0603   0.6439   0.4308     O
C       0.0755    0.222   0.9877     C
C       0.0755    0.778   0.4877     C
H       0.0806   0.0376   0.0585     H
H       0.0806   0.9624   0.5585     H
C       0.0941   0.0875   0.0533     C
C       0.0941   0.9125   0.5533     C
Nd     0.11004  0.36398  0.67437    Nd
Nd     0.11004  0.63602  0.17437    Nd
O       0.1229   0.3844   0.7963     O
O       0.1229   0.6156   0.2963     O
N       0.1335   0.2347   0.0352     N
N       0.1335   0.7653   0.5352     N
O       0.1342     0.47   0.6183     O
O       0.1342     0.53   0.1183     O
C       0.1505   0.4465   0.8472     C
C       0.1505   0.5535   0.3472     C
C       0.1549    0.102   0.1042     C
C       0.1549    0.898   0.6042     C
O       0.1589   0.4528    0.911     O
O       0.1589   0.5472    0.411     O
C       0.1615   0.4608   0.1533     C
C       0.1615   0.5392   0.6533     C
N       0.1619   0.4982   0.2584     N
N       0.1619   0.5018   0.7584     N
Nd     0.16918  0.37218  0.01468    Nd
Nd     0.16918  0.62782  0.51468    Nd
O       0.1726   0.4043    0.125     O
O       0.1726   0.5957    0.625     O
C       0.1734   0.1773   0.0938     C
C       0.1734   0.8227   0.5938     C
C       0.1745   0.4878   0.3285     C
C       0.1745   0.5122   0.8285     C
H       0.1827   0.0625   0.1443     H
H       0.1827   0.9375   0.6443     H
C       0.1841   0.4455   0.2381     C
C       0.1841   0.5545   0.7381     C
C       0.2134   0.4241   0.3831     C
C       0.2134   0.5759   0.8831     C
H       0.2215   0.4161   0.4318     H
H       0.2215   0.5839   0.9318     H
O       0.2231   0.3481   0.7961     O
O       0.2231   0.6519   0.2961     O
C       0.2257   0.3833   0.2923     C
C       0.2257   0.6167   0.7923     C
H       0.2324   0.1686   0.5964     H
H       0.2324   0.8314   0.0964     H
C       0.2386   0.2011   0.1476     C
C       0.2386   0.7989   0.6476     C
C       0.2402   0.3727   0.3659     C
C       0.2402   0.6273   0.8659     C
H       0.2432   0.3499   0.2789     H
H       0.2432   0.6501   0.7789     H
O       0.2477     0.27   0.1283     O
O       0.2477     0.73   0.6283     O
O       0.2523     0.23   0.8717     O
O       0.2523     0.77   0.3717     O
H       0.2568   0.1501   0.7211     H
H       0.2568   0.8499   0.2211     H
C       0.2598   0.1273   0.6341     C
C       0.2598   0.8727   0.1341     C
C       0.2614   0.2989   0.8524     C
C       0.2614   0.7011   0.3524     C
H       0.2676   0.3314   0.4036     H
H       0.2676   0.6686   0.9036     H
C       0.2743   0.1167   0.7077     C
C       0.2743   0.8833   0.2077     C
O       0.2769   0.1519   0.2039     O
O       0.2769   0.8481   0.7039     O
H       0.2785   0.0839   0.5682     H
H       0.2785   0.9161   0.0682     H
C       0.2866   0.0759   0.6169     C
C       0.2866   0.9241   0.1169     C
C       0.3159   0.0545   0.7619     C
C       0.3159   0.9455   0.2619     C
H       0.3173   0.4375   0.8557     H
H       0.3173   0.5625   0.3557     H
C       0.3255   0.0122   0.6715     C
C       0.3255   0.9878   0.1715     C
C       0.3266   0.3227   0.9062     C
C       0.3266   0.6773   0.4062     C
O       0.3274   0.0957    0.875     O
O       0.3274   0.9043    0.375     O
Nd     0.33082  0.12782  0.98532    Nd
Nd     0.33082  0.87218  0.48532    Nd
N       0.3381   0.0018   0.7416     N
N       0.3381   0.9982   0.2416     N
C       0.3385   0.0392   0.8467     C
C       0.3385   0.9608   0.3467     C
O       0.3411   0.0472    0.089     O
O       0.3411   0.9528    0.589     O
C       0.3451    0.398   0.8958     C
C       0.3451    0.602   0.3958     C
C       0.3495   0.0535   0.1528     C
C       0.3495   0.9465   0.6528     C
O       0.3658     0.03   0.3817     O
O       0.3658     0.97   0.8817     O
N       0.3665   0.2653   0.9648     N
N       0.3665   0.7347   0.4648     N
O       0.3771   0.1156   0.2037     O
O       0.3771   0.8844   0.7037     O
Nd     0.38996  0.13602  0.32563    Nd
Nd     0.38996  0.86398  0.82563    Nd
C       0.4059   0.4125   0.9467     C
C       0.4059   0.5875   0.4467     C
H       0.4194   0.4624   0.9415     H
H       0.4194   0.5376   0.4415     H
C       0.4245    0.278   0.0123     C
C       0.4245    0.722   0.5123     C
O       0.4397   0.1439   0.0692     O
O       0.4397   0.8561   0.5692     O
C       0.4467   0.3513   0.0059     C
C       0.4467   0.6487   0.5059     C
C       0.4649   0.2068   0.0704     C
C       0.4649   0.7932   0.5704     C
O       0.4806    0.216    0.387     O
O       0.4806    0.784    0.887     O
H       0.4877   0.3595   0.0401     H
H       0.4877   0.6405   0.5401     H
H       0.5123   0.3595   0.4599     H
H       0.5123   0.6405   0.9599     H
O       0.5194    0.216    0.113     O
O       0.5194    0.784    0.613     O
C       0.5351   0.2068   0.4296     C
C       0.5351   0.7932   0.9296     C
C       0.5533   0.3513   0.4941     C
C       0.5533   0.6487   0.9941     C
O       0.5603   0.1439   0.4308     O
O       0.5603   0.8561   0.9308     O
C       0.5755    0.278   0.4877     C
C       0.5755    0.722   0.9877     C
H       0.5806   0.4624   0.5585     H
H       0.5806   0.5376   0.0585     H
C       0.5941   0.4125   0.5533     C
C       0.5941   0.5875   0.0533     C
Nd     0.61004  0.13602  0.17437    Nd
Nd     0.61004  0.86398  0.67437    Nd
O       0.6229   0.1156   0.2963     O
O       0.6229   0.8844   0.7963     O
N       0.6335   0.2653   0.5352     N
N       0.6335   0.7347   0.0352     N
O       0.6342     0.03   0.1183     O
O       0.6342     0.97   0.6183     O
C       0.6505   0.0535   0.3472     C
C       0.6505   0.9465   0.8472     C
C       0.6549    0.398   0.6042     C
C       0.6549    0.602   0.1042     C
O       0.6589   0.0472    0.411     O
O       0.6589   0.9528    0.911     O
C       0.6615   0.0392   0.6533     C
C       0.6615   0.9608   0.1533     C
N       0.6619   0.0018   0.7584     N
N       0.6619   0.9982   0.2584     N
Nd     0.66918  0.12782  0.51468    Nd
Nd     0.66918  0.87218  0.01468    Nd
O       0.6726   0.0957    0.625     O
O       0.6726   0.9043    0.125     O
C       0.6734   0.3227   0.5938     C
C       0.6734   0.6773   0.0938     C
C       0.6745   0.0122   0.8285     C
C       0.6745   0.9878   0.3285     C
H       0.6827   0.4375   0.6443     H
H       0.6827   0.5625   0.1443     H
C       0.6841   0.0545   0.7381     C
C       0.6841   0.9455   0.2381     C
C       0.7134   0.0759   0.8831     C
C       0.7134   0.9241   0.3831     C
H       0.7215   0.0839   0.9318     H
H       0.7215   0.9161   0.4318     H
O       0.7231   0.1519   0.2961     O
O       0.7231   0.8481   0.7961     O
C       0.7257   0.1167   0.7923     C
C       0.7257   0.8833   0.2923     C
H       0.7324   0.3314   0.0964     H
H       0.7324   0.6686   0.5964     H
C       0.7386   0.2989   0.6476     C
C       0.7386   0.7011   0.1476     C
C       0.7402   0.1273   0.8659     C
C       0.7402   0.8727   0.3659     C
H       0.7432   0.1501   0.7789     H
H       0.7432   0.8499   0.2789     H
O       0.7477     0.23   0.6283     O
O       0.7477     0.77   0.1283     O
O       0.7523     0.27   0.3717     O
O       0.7523     0.73   0.8717     O
H       0.7568   0.3499   0.2211     H
H       0.7568   0.6501   0.7211     H
C       0.7598   0.3727   0.1341     C
C       0.7598   0.6273   0.6341     C
C       0.7614   0.2011   0.3524     C
C       0.7614   0.7989   0.8524     C
H       0.7676   0.1686   0.9036     H
H       0.7676   0.8314   0.4036     H
C       0.7743   0.3833   0.2077     C
C       0.7743   0.6167   0.7077     C
O       0.7769   0.3481   0.7039     O
O       0.7769   0.6519   0.2039     O
H       0.7785   0.4161   0.0682     H
H       0.7785   0.5839   0.5682     H
C       0.7866   0.4241   0.1169     C
C       0.7866   0.5759   0.6169     C
C       0.8159   0.4455   0.2619     C
C       0.8159   0.5545   0.7619     C
H       0.8173   0.0625   0.3557     H
H       0.8173   0.9375   0.8557     H
C       0.8255   0.4878   0.1715     C
C       0.8255   0.5122   0.6715     C
C       0.8266   0.1773   0.4062     C
C       0.8266   0.8227   0.9062     C
O       0.8274   0.4043    0.375     O
O       0.8274   0.5957    0.875     O
Nd     0.83082  0.37218  0.48532    Nd
Nd     0.83082  0.62782  0.98532    Nd
N       0.8381   0.4982   0.2416     N
N       0.8381   0.5018   0.7416     N
C       0.8385   0.4608   0.3467     C
C       0.8385   0.5392   0.8467     C
O       0.8411   0.4528    0.589     O
O       0.8411   0.5472    0.089     O
C       0.8451    0.102   0.3958     C
C       0.8451    0.898   0.8958     C
C       0.8495   0.4465   0.6528     C
C       0.8495   0.5535   0.1528     C
O       0.8658     0.47   0.8817     O
O       0.8658     0.53   0.3817     O
N       0.8665   0.2347   0.4648     N
N       0.8665   0.7653   0.9648     N
O       0.8771   0.3844   0.7037     O
O       0.8771   0.6156   0.2037     O
Nd     0.88996  0.36398  0.82563    Nd
Nd     0.88996  0.63602  0.32563    Nd
C       0.9059   0.0875   0.4467     C
C       0.9059   0.9125   0.9467     C
H       0.9194   0.0376   0.4415     H
H       0.9194   0.9624   0.9415     H
C       0.9245    0.222   0.5123     C
C       0.9245    0.778   0.0123     C
O       0.9397   0.3561   0.5692     O
O       0.9397   0.6439   0.0692     O
C       0.9467   0.1487   0.5059     C
C       0.9467   0.8513   0.0059     C
C       0.9649   0.2932   0.5704     C
C       0.9649   0.7068   0.0704     C
O       0.9806    0.284    0.887     O
O       0.9806    0.716    0.387     O
H       0.9877   0.1405   0.5401     H
H       0.9877   0.8595   0.0401     H
