data_I
_chemical_name_common  '/home/zhangsd/repos/MofS-CGCNN/ML/data/TSD/clean_cifs/FULQOT_clean'
_cell_length_a 10.80380
_cell_length_b 17.53870
_cell_length_c 17.72830
_cell_angle_alpha 104.79300
_cell_angle_beta  90.00000
_cell_angle_gamma 90.00000
_space_group_name_H-M_alt      'P 1'


loop_
_space_group_symop_operation_xyz
  'x, y, z' 

loop_
_atom_site_label
_atom_site_fract_x
_atom_site_fract_y
_atom_site_fract_z
_atom_site_type_symbol
H       0.0419   0.0815   0.3021     H
H        0.052     0.25    0.475     H
O       0.0556   0.1365   0.5659     O
O        0.063   0.0109   0.4262     O
O       0.0722   0.4204   0.4312     O
Gd     0.07362  0.61167  0.48728    Gd
O       0.0737   0.8438   0.6013     O
H       0.0787   0.2659   0.6881     H
O       0.0829   0.4479   0.5997     O
O       0.0908   0.6799   0.3902     O
O        0.105   0.2833   0.5041     O
O        0.108   0.7177    0.597     O
C       0.1137    0.054   0.2788     C
Gd     0.11505  0.91689  0.51302    Gd
C       0.1195   0.7894   0.6277     C
H       0.1237   0.0876   0.1745     H
C       0.1355   0.1095   0.6062     C
C       0.1356   0.2387   0.7127     C
C       0.1456   0.4419   0.3855     C
H       0.1476   0.2746   0.3387     H
C       0.1609   0.0576    0.206     C
C       0.1616   0.5021   0.6119     C
C       0.1624   0.7345   0.3834     C
C       0.1653   0.9894    0.388     C
H       0.1721   0.3239   0.8173     H
C       0.1742   0.1635   0.6806     C
O       0.1772   0.5121   0.3914     O
O       0.1777   0.0413   0.5883     O
O        0.182   0.7974   0.4334     O
C       0.1824    0.007   0.3117     C
O       0.1861   0.5474   0.5693     O
C        0.189    0.272   0.7866     C
C         0.19   0.8111   0.7017     C
C       0.1916    0.301   0.3064     C
S       0.1935  0.46644   0.7542     S
C       0.1995   0.3805   0.3202     C
S      0.21534  0.90838  0.74989     S
S      0.22241  0.63197  0.24012     S
C       0.2331   0.7212   0.3082     C
C       0.2356    0.514   0.6852     C
H        0.238   0.7063   0.7204     H
C       0.2433   0.7621   0.7384     C
O       0.2437   0.9502   0.4129     O
O       0.2563   0.4502   0.9129     O
C       0.2567   0.2621   0.2384     C
H        0.262   0.2063   0.2204     H
C       0.2644    0.014   0.1852     C
C       0.2669   0.2212   0.8082     C
S      0.27759  0.13197  0.74012     S
S      0.28466  0.40838  0.24989     S
C       0.3005   0.8805   0.8202     C
S       0.3065  0.96644   0.2542     S
C       0.3084    0.801   0.8064     C
C         0.31   0.3111   0.2017     C
C        0.311    0.772   0.2866     C
O       0.3139   0.0474   0.0693     O
C       0.3176    0.507   0.8117     C
O        0.318   0.2974   0.9334     O
O       0.3223   0.5413   0.0883     O
O       0.3228   0.0121   0.8914     O
C       0.3258   0.6635   0.1806     C
H       0.3279   0.8239   0.3173     H
C       0.3347   0.4894    0.888     C
C       0.3376   0.2345   0.8834     C
C       0.3384   0.0021   0.1119     C
C       0.3391   0.5576    0.706     C
H       0.3524   0.7746   0.8387     H
C       0.3544   0.9419   0.8855     C
C       0.3644   0.7387   0.2127     C
C       0.3645   0.6095   0.1062     C
H       0.3763   0.5876   0.6745     H
C       0.3805   0.2894   0.1277     C
Gd     0.38495  0.41689  0.01302    Gd
C       0.3863    0.554   0.7788     C
O        0.392   0.2177    0.097     O
O        0.395   0.7833   0.0041     O
O       0.4092   0.1799   0.8902     O
O       0.4171   0.9479   0.0997     O
H       0.4213   0.7659   0.1881     H
O       0.4263   0.3438   0.1013     O
Gd     0.42638  0.11167  0.98728    Gd
O       0.4278   0.9204   0.9312     O
O        0.437   0.5109   0.9262     O
O       0.4444   0.6365   0.0659     O
H        0.448     0.75    0.975     H
H       0.4581   0.5815   0.8021     H
H       0.5419   0.4185   0.1979     H
H        0.552     0.25    0.025     H
O       0.5556   0.3635   0.9341     O
O        0.563   0.4891   0.0738     O
O       0.5722   0.0796   0.0688     O
Gd     0.57362  0.88833  0.01272    Gd
O       0.5737   0.6562   0.8987     O
H       0.5787   0.2341   0.8119     H
O       0.5829   0.0521   0.9003     O
O       0.5908   0.8201   0.1098     O
O        0.605   0.2167   0.9959     O
O        0.608   0.7823    0.903     O
C       0.6137    0.446   0.2212     C
Gd     0.61505  0.58311  0.98698    Gd
C       0.6195   0.7106   0.8723     C
H       0.6237   0.4124   0.3255     H
C       0.6355   0.3905   0.8938     C
C       0.6356   0.2613   0.7873     C
C       0.6456   0.0581   0.1145     C
H       0.6476   0.2254   0.1613     H
C       0.6609   0.4424    0.294     C
C       0.6616   0.9979   0.8881     C
C       0.6624   0.7655   0.1166     C
C       0.6653   0.5106    0.112     C
H       0.6721   0.1761   0.6827     H
C       0.6742   0.3365   0.8194     C
O       0.6772   0.9879   0.1086     O
O       0.6777   0.4587   0.9117     O
O        0.682   0.7026   0.0666     O
C       0.6824    0.493   0.1883     C
O       0.6861   0.9526   0.9307     O
C        0.689    0.228   0.7134     C
C         0.69   0.6889   0.7983     C
C       0.6916    0.199   0.1936     C
S       0.6935  0.03356   0.7458     S
C       0.6995   0.1195   0.1798     C
S      0.71534  0.59162  0.75011     S
S      0.72241  0.86803  0.25988     S
C       0.7331   0.7788   0.1918     C
C       0.7356    0.986   0.8148     C
H        0.738   0.7937   0.7796     H
C       0.7433   0.7379   0.7616     C
O       0.7437   0.5498   0.0871     O
O       0.7563   0.0498   0.5871     O
C       0.7567   0.2379   0.2616     C
H        0.762   0.2937   0.2796     H
C       0.7644    0.486   0.3148     C
C       0.7669   0.2788   0.6918     C
S      0.77759  0.36803  0.75988     S
S      0.78466  0.09162  0.25011     S
C       0.8005   0.6195   0.6798     C
S       0.8065  0.53356   0.2458     S
C       0.8084    0.699   0.6936     C
C         0.81   0.1889   0.2983     C
C        0.811    0.728   0.2134     C
O       0.8139   0.4526   0.4307     O
C       0.8176    0.993   0.6883     C
O        0.818   0.2026   0.5666     O
O       0.8223   0.9587   0.4117     O
O       0.8228   0.4879   0.6086     O
C       0.8258   0.8365   0.3194     C
H       0.8279   0.6761   0.1827     H
C       0.8347   0.0106    0.612     C
C       0.8376   0.2655   0.6166     C
C       0.8384   0.4979   0.3881     C
C       0.8391   0.9424    0.794     C
H       0.8524   0.7254   0.6613     H
C       0.8544   0.5581   0.6145     C
C       0.8644   0.7613   0.2873     C
C       0.8645   0.8905   0.3938     C
H       0.8763   0.9124   0.8255     H
C       0.8805   0.2106   0.3723     C
Gd     0.88495  0.08311  0.48698    Gd
C       0.8863    0.946   0.7212     C
O        0.892   0.2823    0.403     O
O        0.895   0.7167   0.4959     O
O       0.9092   0.3201   0.6098     O
O       0.9171   0.5521   0.4003     O
H       0.9213   0.7341   0.3119     H
O       0.9263   0.1562   0.3987     O
Gd     0.92638  0.38833  0.51272    Gd
O       0.9278   0.5796   0.5688     O
O        0.937   0.9891   0.5738     O
O       0.9444   0.8635   0.4341     O
H        0.948     0.75    0.525     H
H       0.9581   0.9185   0.6979     H
