data_I
_chemical_name_common  '/home/zhangsd/repos/MofS-CGCNN/ML/data/TSD/clean_cifs/FUNBAS_clean'
_cell_length_a 11.52100
_cell_length_b 14.00800
_cell_length_c 15.70100
_cell_angle_alpha 96.67900
_cell_angle_beta  90.00000
_cell_angle_gamma 90.00000
_space_group_name_H-M_alt      'P 1'


loop_
_space_group_symop_operation_xyz
  'x, y, z' 

loop_
_atom_site_label
_atom_site_fract_x
_atom_site_fract_y
_atom_site_fract_z
_atom_site_type_symbol
C        0.001    0.902     0.04     C
C        0.002    0.599    0.011     C
C        0.018    0.001     0.02     C
H       0.0202   0.8254   0.7253     H
C        0.025    0.705    0.431     C
C        0.032    0.719    0.585     C
H       0.0337   0.5972   0.2828     H
C        0.085    0.852    0.001     C
N        0.094   0.0553   0.9857     N
Zn      0.0952   0.1957  0.98308    Zn
Zn      0.0956   0.4046   0.0021    Zn
N        0.097   0.5499   0.0062     N
C        0.101    0.745   0.0023     C
C        0.149    0.698    0.589     C
C         0.15    0.725    0.434     C
H       0.1595   0.5844   0.6893     H
H         0.16   0.8343   0.3146     H
C         0.19    0.006    0.957     C
C        0.196    0.889    0.977     C
C        0.197    0.685    0.012     C
C        0.201    0.601   0.0019     C
C        0.214    0.708    0.507     C
C        0.214    0.784    0.299     C
C        0.216    0.632    0.708     C
C        0.227    0.712     0.35     C
O        0.229    0.385   0.0862     O
O       0.2291   0.2232   0.0674     O
O        0.232    0.376   0.9197     O
C        0.232    0.707    0.667     C
O       0.2338    0.209   0.9036     O
C         0.24    0.313    0.114     C
C        0.246    0.296    0.869     C
H        0.251   0.0352   0.9286     H
H       0.2645   0.8323   0.1928     H
H        0.265   0.8522   0.9724     H
H       0.2678   0.7168   0.0285     H
H       0.2717   0.5715   0.8136     H
H       0.2721   0.5678   0.9912     H
H       0.2758   0.4372   0.2516     H
C        0.277    0.784     0.23     C
C        0.283    0.623     0.78     C
H       0.2872   0.1547    0.736     H
H       0.2964   0.7034   0.5044     H
C        0.299    0.779    0.699     C
H       0.3016   0.8358    0.672     H
C        0.304    0.638    0.328     C
H       0.3105   0.5875   0.3633     H
C        0.319    0.297    0.806     C
C       0.3254   0.3839   0.2563     C
C        0.328    0.212    0.729     C
C       0.3307    0.309     0.19     C
C         0.36    0.773    0.765     C
C        0.362    0.714    0.211     C
H       0.3684   0.1678   0.6097     H
C        0.374    0.639    0.252     C
C        0.374    0.696    0.803     C
C        0.386    0.215    0.657     C
H        0.389   0.4319   0.3747     H
C       0.3927   0.3807   0.3294     C
H       0.3986   0.8298   0.7897     H
C        0.399    0.363    0.788     C
H       0.3991   0.2776   0.4834     H
C       0.4033    0.231   0.1969     C
H       0.4044   0.4197   0.8273     H
H       0.4069   0.1799   0.1516     H
H       0.4174   0.2612   0.0014     H
H       0.4265   0.5879    0.234     H
H       0.4328   0.4351    0.979     H
C        0.437    0.694    0.884     C
H        0.441   0.1214   0.9262     H
C        0.446    0.717    0.125     C
H        0.452   0.9612   0.9625     H
C        0.464    0.276    0.647     C
C       0.4652   0.3027   0.3363     C
C       0.4706   0.2279     0.27     C
C        0.474    0.356    0.719     C
C        0.481    0.284    0.487     C
O       0.4833    0.636   0.0953     O
O       0.4834    0.784   0.1123     O
O        0.486     0.61   0.8988     O
C        0.489    0.295   0.9973     C
O       0.4912   0.7653   0.9146     O
C        0.501    0.098     0.96     C
C        0.502    0.401    0.989     C
C        0.518    0.999     0.98     C
H       0.5202   0.1746   0.2747     H
C        0.525    0.295    0.569     C
C        0.532    0.281    0.415     C
H       0.5337   0.4028   0.7172     H
C        0.585    0.148    0.999     C
N        0.594   0.9447   0.0143     N
Zn      0.5952   0.8043  0.01692    Zn
Zn      0.5956   0.5954   0.9979    Zn
N        0.597   0.4501   0.9938     N
C        0.601    0.255   0.9977     C
C        0.649    0.302    0.411     C
C         0.65    0.275    0.566     C
H       0.6595   0.4156   0.3107     H
H         0.66   0.1657   0.6854     H
C         0.69    0.994    0.043     C
C        0.696    0.111    0.023     C
C        0.697    0.315    0.988     C
C        0.701    0.399   0.9981     C
C        0.714    0.216    0.701     C
C        0.714    0.292    0.493     C
C        0.716    0.368    0.292     C
C        0.727    0.288     0.65     C
O        0.729    0.615   0.9138     O
O       0.7291   0.7768   0.9326     O
C        0.732    0.293    0.333     C
O        0.732    0.624   0.0803     O
O       0.7338    0.791   0.0964     O
C         0.74    0.687    0.886     C
C        0.746    0.704    0.131     C
H        0.751   0.9648   0.0714     H
H       0.7645   0.1677   0.8072     H
H        0.765   0.1478   0.0276     H
H       0.7678   0.2832   0.9715     H
H       0.7717   0.4285   0.1864     H
H       0.7721   0.4322   0.0088     H
H       0.7758   0.5628   0.7484     H
C        0.777    0.216     0.77     C
C        0.783    0.377     0.22     C
H       0.7872   0.8453    0.264     H
H       0.7964   0.2966   0.4956     H
C        0.799    0.221    0.301     C
H       0.8016   0.1642    0.328     H
C        0.804    0.362    0.672     C
H       0.8105   0.4125   0.6367     H
C        0.819    0.703    0.194     C
C       0.8254   0.6161   0.7437     C
C        0.828    0.788    0.271     C
C       0.8307    0.691     0.81     C
C         0.86    0.227    0.235     C
C        0.862    0.286    0.789     C
H       0.8684   0.8322   0.3903     H
C        0.874    0.304    0.197     C
C        0.874    0.361    0.748     C
C        0.886    0.785    0.343     C
H        0.889   0.5681   0.6253     H
C       0.8927   0.6193   0.6706     C
H       0.8986   0.1702   0.2103     H
C        0.899    0.637    0.212     C
H       0.8991   0.7224   0.5166     H
C       0.9033    0.769   0.8031     C
H       0.9044   0.5803   0.1727     H
H       0.9069   0.8201   0.8484     H
H       0.9174   0.7388   0.9986     H
H       0.9265   0.4121    0.766     H
H       0.9328   0.5649    0.021     H
C        0.937    0.306    0.116     C
H        0.941   0.8786   0.0738     H
C        0.946    0.283    0.875     C
H        0.952   0.0388   0.0375     H
C        0.964    0.724    0.353     C
C       0.9652   0.6973   0.6637     C
C       0.9706   0.7721     0.73     C
C        0.974    0.644    0.281     C
C        0.981    0.716    0.513     C
O       0.9833    0.364   0.9047     O
O       0.9834    0.216   0.8877     O
O        0.986     0.39   0.1012     O
C        0.989    0.705   0.0027     C
O       0.9912   0.2347   0.0854     O
