data_I
_chemical_name_common  '/home/zhangsd/repos/MofS-CGCNN/ML/data/TSD/clean_cifs/FUNCAT_clean'
_cell_length_a 11.58570
_cell_length_b 15.67400
_cell_length_c 18.11800
_cell_angle_alpha 90.00000
_cell_angle_beta  90.00000
_cell_angle_gamma 90.00000
_space_group_name_H-M_alt      'P 1'


loop_
_space_group_symop_operation_xyz
  'x, y, z' 

loop_
_atom_site_label
_atom_site_fract_x
_atom_site_fract_y
_atom_site_fract_z
_atom_site_type_symbol
C      0.02617  0.25244  0.91003     C
C       0.0271   0.7038  0.86007     C
C      0.03059  0.31465  0.85554     C
C       0.0344   0.7633   0.8029     C
H         0.04   0.1245   0.0676     H
C        0.045   0.1649    0.105     C
C       0.0539   0.8137   0.2196     C
H       0.0548   0.8462   0.2626     H
H       0.0619    0.996   0.1762     H
C       0.0635   0.7043    0.094     C
C       0.0663   0.2882   0.2045     C
H       0.0684   0.6686   0.0531     H
H       0.0741   0.2613   0.9505     H
H       0.0756   0.3304   0.2401     H
H       0.0862    0.753   0.7647     H
H       0.0865   0.4793   0.5222     H
H       0.0886   0.4876   0.6474     H
H       0.0898   0.4773   0.1824     H
H       0.0926   0.4914   0.0584     H
C      0.09973  0.39363  0.85096     C
C       0.1059   0.6288   0.8596     C
O       0.1149   0.4252   0.7899     O
C       0.1235  0.83358  0.16036     C
C       0.1268  0.14854  0.16041     C
C       0.1316    0.777  0.10116     C
O        0.139   0.4218   0.9235     O
C       0.1409   0.9938   0.1673     C
C       0.1415   0.2193   0.2055     C
O        0.146  0.60345  0.91613     O
O       0.1461   0.6093  0.80213     O
N       0.1502  0.47881   0.3923     N
C       0.1569  0.48788  0.54571     C
C       0.1577  0.49252  0.62163     C
N       0.1593   0.4756  0.32108     N
C       0.1605  0.48764  0.15973     C
C       0.1625  0.49489  0.08348     C
H       0.1855   0.7885   0.0644     H
C       0.1892   0.9144   0.1631     C
C       0.1939   0.0673   0.1601     C
H       0.2041   0.2205   0.2377     H
Zn     0.25074  0.50719  0.77415    Zn
C      0.25391   0.4952  0.50273     C
C      0.25486  0.49058  0.42146     C
N      0.25537  0.50392  0.65879     N
Zn     0.25777  0.50573  0.93552    Zn
C      0.25873  0.48766  0.28633     C
C        0.259  0.49491   0.2051     C
N      0.25926  0.50664   0.0431     N
C       0.3082   0.9101   0.1577     C
H       0.3109   0.2089   0.0586     H
C       0.3156   0.0741    0.145     C
H       0.3374   0.7856   0.2469     H
C       0.3522  0.50647  0.54447     C
C       0.3528  0.51102   0.6204     C
C       0.3551   0.5128   0.0848     C
O       0.3556   0.4045  0.79379     O
N       0.3563  0.49806  0.38899     N
C       0.3566  0.50625  0.16084     C
N       0.3598  0.49464  0.31812     N
C       0.3708    0.215   0.0924     C
C       0.3729   0.9918   0.1472     C
O       0.3821  0.41358  0.91116     O
C       0.3849  0.77694   0.2062     C
C       0.3868  0.83547  0.14802     C
C         0.39   0.1507  0.14238     C
O       0.3947   0.5866   0.7835     O
O       0.3955   0.5855   0.9184     O
C       0.4006   0.6268   0.8483     C
C       0.4065   0.3832   0.8555     C
H       0.4175   0.7615    0.939     H
H       0.4212   0.3313   0.0563     H
H       0.4222   0.5192   0.6452     H
H       0.4224   0.5113   0.5199     H
H        0.425   0.5221   0.0608     H
H       0.4278   0.5097   0.1843     H
H       0.4302   0.2662   0.7503     H
C       0.4369   0.2883   0.0902     C
H       0.4525   0.6669   0.2409     H
H       0.4527   0.9898    0.142     H
C       0.4558  0.70517   0.2017     C
C       0.4596   0.8213   0.0879     C
H       0.4634   0.8593   0.0485     H
C       0.4679   0.1626   0.1999     C
C       0.4705   0.7656   0.9006     C
H       0.4752   0.1233   0.2381     H
C       0.4782  0.70238  0.84665     C
C       0.4836  0.25565  0.78754     C
C       0.4869   0.3119  0.84747     C
C      0.52617  0.74756  0.08997     C
C       0.5271   0.2962  0.13993     C
C      0.53059  0.68535  0.14446     C
C       0.5344   0.2367   0.1971     C
H         0.54   0.8755   0.9324     H
C        0.545   0.8351    0.895     C
C       0.5539   0.1863   0.7804     C
H       0.5548   0.1538   0.7374     H
H       0.5619    0.004   0.8238     H
C       0.5635   0.2957    0.906     C
C       0.5663   0.7118   0.7955     C
H       0.5684   0.3314   0.9469     H
H       0.5741   0.7387   0.0495     H
H       0.5756   0.6696   0.7599     H
H       0.5862    0.247   0.2353     H
H       0.5865   0.5207   0.4778     H
H       0.5886   0.5124   0.3526     H
H       0.5898   0.5227   0.8176     H
H       0.5926   0.5086   0.9416     H
C      0.59973  0.60637  0.14904     C
C       0.6059   0.3712   0.1404     C
O       0.6149   0.5748   0.2101     O
C       0.6235  0.16642  0.83964     C
C       0.6268  0.85146  0.83959     C
C       0.6316    0.223  0.89884     C
O        0.639   0.5782   0.0765     O
C       0.6409   0.0062   0.8327     C
C       0.6415   0.7807   0.7945     C
O        0.646  0.39655  0.08387     O
O       0.6461   0.3907  0.19787     O
N       0.6502  0.52119   0.6077     N
C       0.6569  0.51212  0.45429     C
C       0.6577  0.50748  0.37837     C
N       0.6593   0.5244  0.67892     N
C       0.6605  0.51236  0.84027     C
C       0.6625  0.50511  0.91652     C
H       0.6855   0.2115   0.9356     H
C       0.6892   0.0856   0.8369     C
C       0.6939   0.9327   0.8399     C
H       0.7041   0.7795   0.7623     H
Zn     0.75074  0.49281  0.22585    Zn
C      0.75391   0.5048  0.49727     C
C      0.75486  0.50942  0.57854     C
N      0.75537  0.49608  0.34121     N
Zn     0.75777  0.49427  0.06448    Zn
C      0.75873  0.51234  0.71367     C
C        0.759  0.50509   0.7949     C
N      0.75926  0.49336   0.9569     N
C       0.8082   0.0899   0.8423     C
H       0.8109   0.7911   0.9414     H
C       0.8156   0.9259    0.855     C
H       0.8374   0.2144   0.7531     H
C       0.8522  0.49353  0.45553     C
C       0.8528  0.48898   0.3796     C
C       0.8551   0.4872   0.9152     C
O       0.8556   0.5955  0.20621     O
N       0.8563  0.50194  0.61101     N
C       0.8566  0.49375  0.83916     C
N       0.8598  0.50536  0.68188     N
C       0.8708    0.785   0.9076     C
C       0.8729   0.0082   0.8528     C
O       0.8821  0.58642  0.08884     O
C       0.8849  0.22306   0.7938     C
C       0.8868  0.16453  0.85198     C
C         0.89   0.8493  0.85762     C
O       0.8947   0.4134   0.2165     O
O       0.8955   0.4145   0.0816     O
C       0.9006   0.3732   0.1517     C
C       0.9065   0.6168   0.1445     C
H       0.9175   0.2385    0.061     H
H       0.9212   0.6687   0.9437     H
H       0.9222   0.4808   0.3548     H
H       0.9224   0.4887   0.4801     H
H        0.925   0.4779   0.9392     H
H       0.9278   0.4903   0.8157     H
H       0.9302   0.7338   0.2497     H
C       0.9369   0.7117   0.9098     C
H       0.9525   0.3331   0.7591     H
H       0.9527   0.0102    0.858     H
C       0.9558  0.29483   0.7983     C
C       0.9596   0.1787   0.9121     C
H       0.9634   0.1407   0.9515     H
C       0.9679   0.8374   0.8001     C
C       0.9705   0.2344   0.0994     C
H       0.9752   0.8767   0.7619     H
C       0.9782  0.29762  0.15335     C
C       0.9836  0.74435  0.21246     C
C       0.9869   0.6881  0.15253     C
