data_I
_chemical_name_common  '/home/zhangsd/repos/MofS-CGCNN/ML/data/TSD/clean_cifs/FUNCEX_clean'
_cell_length_a 11.61510
_cell_length_b 15.64800
_cell_length_c 18.16300
_cell_angle_alpha 90.00000
_cell_angle_beta  93.20200
_cell_angle_gamma 90.00000
_space_group_name_H-M_alt      'P 1'


loop_
_space_group_symop_operation_xyz
  'x, y, z' 

loop_
_atom_site_label
_atom_site_fract_x
_atom_site_fract_y
_atom_site_fract_z
_atom_site_type_symbol
C      0.00128      0.0   0.4301     C
C      0.00279      0.0   0.3471     C
N      0.00566      0.0   0.1893     N
Zn     0.00762      0.0  0.08107    Zn
C       0.0902      0.0   0.7747     C
C       0.0954      0.0   0.6992     C
N       0.0998      0.0   0.5387     N
C       0.1031      0.0   0.2327     C
N       0.1031      0.0   0.4672     N
C       0.1059      0.0   0.3098     C
O       0.1162   0.0909   0.9374     O
O       0.1162   0.9091   0.9374     O
O       0.1297   0.0911   0.0605     O
O       0.1297   0.9089   0.0605     O
C       0.1515   0.1156    0.999     C
C       0.1515   0.8844    0.999     C
H       0.1598      0.0   0.8026     H
H       0.1671      0.0   0.6789     H
H        0.173      0.0   0.2101     H
H       0.1765      0.0   0.3366     H
Br     0.21933      0.5  0.00062    Br
C       0.2352   0.1941      0.0     C
C       0.2352   0.8059      0.0     C
H        0.242    0.202     0.89     H
H        0.242    0.798     0.89     H
H       0.2576   0.2046   0.1112     H
H       0.2576   0.7954   0.1112     H
C       0.2657   0.2281   0.9343     C
C       0.2657   0.7719   0.9343     C
C       0.2759   0.2285   0.0665     C
C       0.2759   0.7715   0.0665     C
C       0.3336   0.3033   0.9345     C
C       0.3336   0.6967   0.9345     C
C       0.3489   0.3041   0.0632     C
C       0.3489   0.6959   0.0632     C
H       0.3512   0.3283   0.8902     H
H       0.3512   0.6717   0.8902     H
C       0.3734   0.3393   0.0001     C
C       0.3734   0.6607   0.0001     C
H        0.379   0.3282   0.1069     H
H        0.379   0.6718   0.1069     H
C       0.3844      0.5   0.9971     C
C       0.4374   0.4223   0.0005     C
C       0.4374   0.5777   0.0005     C
C       0.5626   0.4223   0.9995     C
C       0.5626   0.5777   0.9995     C
C       0.6156      0.5   0.0029     C
H        0.621   0.3282   0.8931     H
H        0.621   0.6718   0.8931     H
C       0.6266   0.3393   0.9999     C
C       0.6266   0.6607   0.9999     C
H       0.6488   0.3283   0.1098     H
H       0.6488   0.6717   0.1098     H
C       0.6511   0.3041   0.9368     C
C       0.6511   0.6959   0.9368     C
C       0.6664   0.3033   0.0655     C
C       0.6664   0.6967   0.0655     C
C       0.7241   0.2285   0.9335     C
C       0.7241   0.7715   0.9335     C
C       0.7343   0.2281   0.0657     C
C       0.7343   0.7719   0.0657     C
H       0.7424   0.2046   0.8888     H
H       0.7424   0.7954   0.8888     H
H        0.758    0.202     0.11     H
H        0.758    0.798     0.11     H
C       0.7648   0.1941     -0.0     C
C       0.7648   0.8059     -0.0     C
Br     0.78067      0.5  0.99938    Br
H       0.8235      0.0   0.6634     H
H        0.827      0.0   0.7899     H
H       0.8329      0.0   0.3211     H
H       0.8402      0.0   0.1974     H
C       0.8485   0.1156    0.001     C
C       0.8485   0.8844    0.001     C
O       0.8703   0.0911   0.9395     O
O       0.8703   0.9089   0.9395     O
O       0.8838   0.0909   0.0626     O
O       0.8838   0.9091   0.0626     O
C       0.8941      0.0   0.6902     C
N       0.8969      0.0   0.5328     N
C       0.8969      0.0   0.7673     C
N       0.9002      0.0   0.4613     N
C       0.9046      0.0   0.3008     C
C       0.9098      0.0   0.2253     C
Zn     0.99238      0.0  0.91893    Zn
N      0.99434      0.0   0.8107     N
C      0.99721      0.0   0.6529     C
C      0.99872      0.0   0.5699     C
