data_I
_chemical_name_common  '/home/zhangsd/repos/MofS-CGCNN/ML/data/TSD/clean_cifs/FUNGAY_clean'
_cell_length_a 28.64570
_cell_length_b 12.54400
_cell_length_c 21.60160
_cell_angle_alpha 90.00000
_cell_angle_beta  103.19500
_cell_angle_gamma 90.00000
_space_group_name_H-M_alt      'P 1'


loop_
_space_group_symop_operation_xyz
  'x, y, z' 

loop_
_atom_site_label
_atom_site_fract_x
_atom_site_fract_y
_atom_site_fract_z
_atom_site_type_symbol
C      0.00849   0.4601  0.35113     C
C      0.00849   0.5399  0.85113     C
C      0.01354   0.3538  0.37111     C
C      0.01354   0.6462  0.87111     C
H       0.0213   0.2133   0.1386     H
H       0.0213   0.7867   0.6386     H
C      0.02392   0.2841  0.15175     C
C      0.02392   0.7159  0.65175     C
C      0.03212   0.4935  0.19156     C
C      0.03212   0.5065  0.69156     C
H       0.0328   0.4914   0.8669     H
H       0.0328   0.5086   0.3669     H
H       0.0338   0.4423   0.4993     H
H       0.0338   0.5577   0.9993     H
H       0.0348    0.436   0.7052     H
H       0.0348    0.564   0.2052     H
N      0.05528   0.3176  0.41338     N
N      0.05528   0.6824  0.91338     N
C      0.06522   0.3182  0.19393     C
C      0.06522   0.6818  0.69393     C
C      0.06626    0.447   0.4998     C
C      0.06626    0.553   0.9998     C
H       0.0684   0.2166   0.3137     H
H       0.0684   0.7834   0.8137     H
C      0.06892    0.423  0.21416     C
C      0.06892    0.577  0.71416     C
C      0.07216   0.2116  0.40753     C
C      0.07216   0.7884  0.90753     C
C       0.0765   0.1734  0.34956     C
C       0.0765   0.8266  0.84956     C
H       0.0816   0.1739   0.5002     H
H       0.0816   0.8261   0.0002     H
H       0.0825   0.4472   0.0711     H
H       0.0825   0.5528   0.5711     H
C      0.08467    0.148  0.46103     C
C      0.08467    0.852  0.96103     C
C      0.08502   0.3872  0.45716     C
C      0.08502   0.6128  0.95716     C
H       0.0903   0.2708   0.2085     H
H       0.0903   0.7292   0.7085     H
C      0.09297   0.0708  0.34431     C
C      0.09297   0.9292  0.84431     C
C      0.09532    0.487   0.0426     C
C      0.09532    0.513   0.5426     C
H       0.0958   0.0447    0.305     H
H       0.0958   0.9553    0.805     H
C      0.10166   0.0461  0.45632     C
C      0.10166   0.9539  0.95632     C
C       0.1051   0.0078  0.39765     C
C       0.1051   0.9922  0.89765     C
H       0.1107   0.0036   0.4924     H
H       0.1107   0.9964   0.9924     H
N      0.11154  0.45772  0.25753     N
N      0.11154  0.54228  0.75753     N
N       0.1131   0.1803  0.92744     N
N       0.1131   0.8197  0.42744     N
H       0.1135   0.3824   0.7516     H
H       0.1135   0.6176   0.2516     H
N      0.12368   0.0967  0.89284     N
N      0.12368   0.9033  0.39284     N
C      0.12864   0.4442  0.76967     C
C      0.12864   0.5558  0.26967     C
C      0.13299    0.396   0.4586     C
C      0.13299    0.604   0.9586     C
C      0.13924   0.2574  0.91148     C
C      0.13924   0.7426  0.41148     C
H       0.1395   0.3262   0.9277     H
H       0.1395   0.6738   0.4277     H
C      0.14298   0.4796  0.04352     C
C      0.14298   0.5204  0.54352     C
N      0.14329    0.386   0.2915     N
N      0.14329    0.614   0.7915     N
H        0.146   0.3568   0.4301     H
H        0.146   0.6432   0.9301     H
C      0.15485   0.1273  0.85953     C
C      0.15485   0.8727  0.35953     C
C       0.1623   0.4626  0.50187     C
C       0.1623   0.5374  0.00187     C
N      0.16312   0.3962  0.14692     N
N      0.16312   0.6038  0.64692     N
N      0.16548   0.2291  0.87003     N
N      0.16548   0.7709  0.37003     N
H       0.1674   0.0834   0.8327     H
H       0.1674   0.9166   0.3327     H
N      0.17036   0.4472  0.81125     N
N      0.17036   0.5528  0.31125     N
N      0.17299   0.4118  0.08911     N
N      0.17299   0.5882  0.58911     N
C      0.17737   0.4481  0.32255     C
C      0.17737   0.5519  0.82255     C
H       0.1788   0.1833   0.6267     H
H       0.1788   0.8167   0.1267     H
H       0.1911   0.1562   0.5263     H
H       0.1911   0.8438   0.0263     H
O      0.19471  0.24407  0.74154     O
O      0.19471  0.75593  0.24154     O
H       0.1948   0.4679   0.5026     H
H       0.1948   0.5321   0.0026     H
C      0.19716   0.3303   0.1741     C
C      0.19716   0.6697   0.6741     C
H       0.1985   0.1426   0.4351     H
H       0.1985   0.8574   0.9351     H
H       0.1998    0.305   0.2152     H
H       0.1998    0.695   0.7152     H
C      0.20353   0.2192  0.61428     C
C      0.20353   0.7808  0.11428     C
H       0.2045   0.4217   0.3505     H
H       0.2045   0.5783   0.8505     H
C      0.21074   0.2035   0.5536     C
C      0.21074   0.7965   0.0536     C
H       0.2112   0.1164   0.3353     H
H       0.2112   0.8836   0.8353     H
C      0.21212   0.3567  0.08618     C
C      0.21212   0.6433  0.58618     C
Co     0.21807  0.31672  0.83777    Co
Co     0.21807  0.68328  0.33777    Co
C      0.22392   0.1773  0.42346     C
C      0.22392   0.8227  0.92346     C
C      0.22478   0.3013  0.72225     C
C      0.22478   0.6987  0.22225     C
H       0.2264   0.3571   0.0516     H
H       0.2264   0.6429   0.5516     H
N      0.22788   0.3017  0.13866     N
N      0.22788   0.6983  0.63866     N
C      0.23132   0.1621  0.36322     C
C      0.23132   0.8379  0.86322     C
C      0.23224   0.2868  0.65632     C
C      0.23224   0.7132  0.15632     C
C      0.24668    0.257  0.53296     C
C      0.24668    0.743  0.03296     C
O       0.2499  0.36729  0.75978     O
O       0.2499  0.63271  0.25978     O
O       0.2501  0.13271  0.24022     O
O       0.2501  0.86729  0.74022     O
C      0.25332    0.243  0.46704     C
C      0.25332    0.757  0.96704     C
C      0.26776   0.2132  0.34368     C
C      0.26776   0.7868  0.84368     C
C      0.26868   0.3379  0.63678     C
C      0.26868   0.6621  0.13678     C
N      0.27212   0.1983  0.86134     N
N      0.27212   0.8017  0.36134     N
H       0.2736   0.1429   0.9484     H
H       0.2736   0.8571   0.4484     H
C      0.27522   0.1987  0.27775     C
C      0.27522   0.8013  0.77775     C
C      0.27608   0.3227  0.57654     C
C      0.27608   0.6773  0.07654     C
Co     0.28193  0.18328  0.16223    Co
Co     0.28193  0.81672  0.66223    Co
C      0.28788   0.1433  0.91382     C
C      0.28788   0.8567  0.41382     C
H       0.2888   0.3836   0.6647     H
H       0.2888   0.6164   0.1647     H
C      0.28926   0.2965   0.4464     C
C      0.28926   0.7035   0.9464     C
H       0.2955   0.0783   0.6495     H
H       0.2955   0.9217   0.1495     H
C      0.29647   0.2808  0.38572     C
C      0.29647   0.7192  0.88572     C
H       0.3002    0.195   0.7848     H
H       0.3002    0.805   0.2848     H
H       0.3015   0.3574   0.5649     H
H       0.3015   0.6426   0.0649     H
C      0.30284   0.1697   0.8259     C
C      0.30284   0.8303   0.3259     C
H       0.3052   0.0321   0.4974     H
H       0.3052   0.9679   0.9974     H
O      0.30529  0.25593  0.25846     O
O      0.30529  0.74407  0.75846     O
H       0.3089   0.3438   0.4737     H
H       0.3089   0.6562   0.9737     H
H       0.3212   0.3167   0.3733     H
H       0.3212   0.6833   0.8733     H
C      0.32263   0.0519  0.67745     C
C      0.32263   0.9481  0.17745     C
N      0.32701   0.0882  0.91089     N
N      0.32701   0.9118  0.41089     N
N      0.32964   0.0528  0.18875     N
N      0.32964   0.9472  0.68875     N
H       0.3326   0.4166   0.1673     H
H       0.3326   0.5834   0.6673     H
N      0.33452   0.2709  0.12997     N
N      0.33452   0.7291  0.62997     N
N      0.33688   0.1038  0.85308     N
N      0.33688   0.8962  0.35308     N
C       0.3377   0.0374  0.49813     C
C       0.3377   0.9626  0.99813     C
C      0.34515   0.3727  0.14047     C
C      0.34515   0.6273  0.64047     C
H        0.354   0.1432   0.5699     H
H        0.354   0.8568   0.0699     H
N      0.35671    0.114   0.7085     N
N      0.35671    0.886   0.2085     N
C      0.35702   0.0204  0.95648     C
C      0.35702   0.9796  0.45648     C
H       0.3605   0.1738   0.0723     H
H       0.3605   0.8262   0.5723     H
C      0.36076   0.2426  0.08852     C
C      0.36076   0.7574  0.58852     C
C      0.36701    0.104   0.5414     C
C      0.36701    0.896   0.0414     C
C      0.37136   0.0558  0.23033     C
C      0.37136   0.9442  0.73033     C
N      0.37632   0.4033  0.10716     N
N      0.37632   0.5967  0.60716     N
H       0.3865   0.1176   0.2484     H
H       0.3865   0.8824   0.7484     H
N       0.3869   0.3197  0.07256     N
N       0.3869   0.6803  0.57256     N
N      0.38846  0.04228  0.74247     N
N      0.38846  0.95772  0.24247     N
H       0.3893   0.4964   0.5076     H
H       0.3893   0.5036   0.0076     H
C       0.3949   0.4922  0.60235     C
C       0.3949   0.5078  0.10235     C
C      0.39834   0.4539  0.54368     C
C      0.39834   0.5461  0.04368     C
H       0.4042   0.4553    0.695     H
H       0.4042   0.5447    0.195     H
C      0.40468    0.013   0.9574     C
C      0.40468    0.987   0.4574     C
C      0.40703   0.4292  0.65569     C
C      0.40703   0.5708  0.15569     C
H       0.4097   0.2292   0.7915     H
H       0.4097   0.7708   0.2915     H
C      0.41498   0.1128  0.54284     C
C      0.41498   0.8872  0.04284     C
C      0.41533    0.352  0.53897     C
C      0.41533    0.648  0.03897     C
H       0.4175   0.0528   0.9289     H
H       0.4175   0.9472   0.4289     H
H       0.4184   0.3261   0.4998     H
H       0.4184   0.6739   0.9998     H
C       0.4235   0.3266  0.65044     C
C       0.4235   0.6734  0.15044     C
C      0.42784   0.2884  0.59247     C
C      0.42784   0.7116  0.09247     C
C      0.43108    0.077  0.78584     C
C      0.43108    0.923  0.28584     C
H       0.4316   0.2834   0.6863     H
H       0.4316   0.7166   0.1863     H
C      0.43374    0.053   0.5002     C
C      0.43374    0.947   0.0002     C
C      0.43478   0.1818  0.80607     C
C      0.43478   0.8182  0.30607     C
N      0.44472   0.1824  0.58662     N
N      0.44472   0.8176  0.08662     N
H       0.4652    0.064   0.2948     H
H       0.4652    0.936   0.7948     H
H       0.4662   0.0577   0.5007     H
H       0.4662   0.9423   0.0007     H
H       0.4672   0.0086   0.1331     H
H       0.4672   0.9914   0.6331     H
C      0.46788   0.0065  0.80844     C
C      0.46788   0.9935  0.30844     C
C      0.47608   0.2159  0.84825     C
C      0.47608   0.7841  0.34825     C
H       0.4787   0.2867   0.8614     H
H       0.4787   0.7133   0.3614     H
C      0.48646   0.1462  0.62889     C
C      0.48646   0.8538  0.12889     C
C      0.49151   0.0399  0.64887     C
C      0.49151   0.9601  0.14887     C
C      0.50849   0.0399  0.85113     C
C      0.50849   0.9601  0.35113     C
C      0.51354   0.1462  0.87111     C
C      0.51354   0.8538  0.37111     C
H       0.5213   0.2867   0.6386     H
H       0.5213   0.7133   0.1386     H
C      0.52392   0.2159  0.65175     C
C      0.52392   0.7841  0.15175     C
C      0.53212   0.0065  0.69156     C
C      0.53212   0.9935  0.19156     C
H       0.5328   0.0086   0.3669     H
H       0.5328   0.9914   0.8669     H
H       0.5338   0.0577   0.9993     H
H       0.5338   0.9423   0.4993     H
H       0.5348    0.064   0.2052     H
H       0.5348    0.936   0.7052     H
N      0.55528   0.1824  0.91338     N
N      0.55528   0.8176  0.41338     N
C      0.56522   0.1818  0.69393     C
C      0.56522   0.8182  0.19393     C
C      0.56626    0.053   0.9998     C
C      0.56626    0.947   0.4998     C
H       0.5684   0.2834   0.8137     H
H       0.5684   0.7166   0.3137     H
C      0.56892    0.077  0.71416     C
C      0.56892    0.923  0.21416     C
C      0.57216   0.2884  0.90753     C
C      0.57216   0.7116  0.40753     C
C       0.5765   0.3266  0.84956     C
C       0.5765   0.6734  0.34956     C
H       0.5816   0.3261   0.0002     H
H       0.5816   0.6739   0.5002     H
H       0.5825   0.0528   0.5711     H
H       0.5825   0.9472   0.0711     H
C      0.58467    0.352  0.96103     C
C      0.58467    0.648  0.46103     C
C      0.58502   0.1128  0.95716     C
C      0.58502   0.8872  0.45716     C
H       0.5903   0.2292   0.7085     H
H       0.5903   0.7708   0.2085     H
C      0.59297   0.4292  0.84431     C
C      0.59297   0.5708  0.34431     C
C      0.59532    0.013   0.5426     C
C      0.59532    0.987   0.0426     C
H       0.5958   0.4553    0.805     H
H       0.5958   0.5447    0.305     H
C      0.60166   0.4539  0.95632     C
C      0.60166   0.5461  0.45632     C
C       0.6051   0.4922  0.89765     C
C       0.6051   0.5078  0.39765     C
H       0.6107   0.4964   0.9924     H
H       0.6107   0.5036   0.4924     H
N      0.61154  0.04228  0.75753     N
N      0.61154  0.95772  0.25753     N
N       0.6131   0.3197  0.42744     N
N       0.6131   0.6803  0.92744     N
H       0.6135   0.1176   0.2516     H
H       0.6135   0.8824   0.7516     H
N      0.62368   0.4033  0.39284     N
N      0.62368   0.5967  0.89284     N
C      0.62864   0.0558  0.26967     C
C      0.62864   0.9442  0.76967     C
C      0.63299    0.104   0.9586     C
C      0.63299    0.896   0.4586     C
C      0.63924   0.2426  0.41148     C
C      0.63924   0.7574  0.91148     C
H       0.6395   0.1738   0.4277     H
H       0.6395   0.8262   0.9277     H
C      0.64298   0.0204  0.54352     C
C      0.64298   0.9796  0.04352     C
N      0.64329    0.114   0.7915     N
N      0.64329    0.886   0.2915     N
H        0.646   0.1432   0.9301     H
H        0.646   0.8568   0.4301     H
C      0.65485   0.3727  0.35953     C
C      0.65485   0.6273  0.85953     C
C       0.6623   0.0374  0.00187     C
C       0.6623   0.9626  0.50187     C
N      0.66312   0.1038  0.64692     N
N      0.66312   0.8962  0.14692     N
N      0.66548   0.2709  0.37003     N
N      0.66548   0.7291  0.87003     N
H       0.6674   0.4166   0.3327     H
H       0.6674   0.5834   0.8327     H
N      0.67036   0.0528  0.31125     N
N      0.67036   0.9472  0.81125     N
N      0.67299   0.0882  0.58911     N
N      0.67299   0.9118  0.08911     N
C      0.67737   0.0519  0.82255     C
C      0.67737   0.9481  0.32255     C
H       0.6788   0.3167   0.1267     H
H       0.6788   0.6833   0.6267     H
H       0.6911   0.3438   0.0263     H
H       0.6911   0.6562   0.5263     H
O      0.69471  0.25593  0.24154     O
O      0.69471  0.74407  0.74154     O
H       0.6948   0.0321   0.0026     H
H       0.6948   0.9679   0.5026     H
C      0.69716   0.1697   0.6741     C
C      0.69716   0.8303   0.1741     C
H       0.6985   0.3574   0.9351     H
H       0.6985   0.6426   0.4351     H
H       0.6998    0.195   0.7152     H
H       0.6998    0.805   0.2152     H
C      0.70353   0.2808  0.11428     C
C      0.70353   0.7192  0.61428     C
H       0.7045   0.0783   0.8505     H
H       0.7045   0.9217   0.3505     H
C      0.71074   0.2965   0.0536     C
C      0.71074   0.7035   0.5536     C
H       0.7112   0.3836   0.8353     H
H       0.7112   0.6164   0.3353     H
C      0.71212   0.1433  0.58618     C
C      0.71212   0.8567  0.08618     C
Co     0.71807  0.18328  0.33777    Co
Co     0.71807  0.81672  0.83777    Co
C      0.72392   0.3227  0.92346     C
C      0.72392   0.6773  0.42346     C
C      0.72478   0.1987  0.22225     C
C      0.72478   0.8013  0.72225     C
H       0.7264   0.1429   0.5516     H
H       0.7264   0.8571   0.0516     H
N      0.72788   0.1983  0.63866     N
N      0.72788   0.8017  0.13866     N
C      0.73132   0.3379  0.86322     C
C      0.73132   0.6621  0.36322     C
C      0.73224   0.2132  0.15632     C
C      0.73224   0.7868  0.65632     C
C      0.74668    0.243  0.03296     C
C      0.74668    0.757  0.53296     C
O       0.7499  0.13271  0.25978     O
O       0.7499  0.86729  0.75978     O
O       0.7501  0.36729  0.74022     O
O       0.7501  0.63271  0.24022     O
C      0.75332    0.257  0.96704     C
C      0.75332    0.743  0.46704     C
C      0.76776   0.2868  0.84368     C
C      0.76776   0.7132  0.34368     C
C      0.76868   0.1621  0.13678     C
C      0.76868   0.8379  0.63678     C
N      0.77212   0.3017  0.36134     N
N      0.77212   0.6983  0.86134     N
H       0.7736   0.3571   0.4484     H
H       0.7736   0.6429   0.9484     H
C      0.77522   0.3013  0.77775     C
C      0.77522   0.6987  0.27775     C
C      0.77608   0.1773  0.07654     C
C      0.77608   0.8227  0.57654     C
Co     0.78193  0.31672  0.66223    Co
Co     0.78193  0.68328  0.16223    Co
C      0.78788   0.3567  0.41382     C
C      0.78788   0.6433  0.91382     C
H       0.7888   0.1164   0.1647     H
H       0.7888   0.8836   0.6647     H
C      0.78926   0.2035   0.9464     C
C      0.78926   0.7965   0.4464     C
H       0.7955   0.4217   0.1495     H
H       0.7955   0.5783   0.6495     H
C      0.79647   0.2192  0.88572     C
C      0.79647   0.7808  0.38572     C
H       0.8002    0.305   0.2848     H
H       0.8002    0.695   0.7848     H
H       0.8015   0.1426   0.0649     H
H       0.8015   0.8574   0.5649     H
C      0.80284   0.3303   0.3259     C
C      0.80284   0.6697   0.8259     C
H       0.8052   0.4679   0.9974     H
H       0.8052   0.5321   0.4974     H
O      0.80529  0.24407  0.75846     O
O      0.80529  0.75593  0.25846     O
H       0.8089   0.1562   0.9737     H
H       0.8089   0.8438   0.4737     H
H       0.8212   0.1833   0.8733     H
H       0.8212   0.8167   0.3733     H
C      0.82263   0.4481  0.17745     C
C      0.82263   0.5519  0.67745     C
N      0.82701   0.4118  0.41089     N
N      0.82701   0.5882  0.91089     N
N      0.82964   0.4472  0.68875     N
N      0.82964   0.5528  0.18875     N
H       0.8326   0.0834   0.6673     H
H       0.8326   0.9166   0.1673     H
N      0.83452   0.2291  0.62997     N
N      0.83452   0.7709  0.12997     N
N      0.83688   0.3962  0.35308     N
N      0.83688   0.6038  0.85308     N
C       0.8377   0.4626  0.99813     C
C       0.8377   0.5374  0.49813     C
C      0.84515   0.1273  0.64047     C
C      0.84515   0.8727  0.14047     C
H        0.854   0.3568   0.0699     H
H        0.854   0.6432   0.5699     H
N      0.85671    0.386   0.2085     N
N      0.85671    0.614   0.7085     N
C      0.85702   0.4796  0.45648     C
C      0.85702   0.5204  0.95648     C
H       0.8605   0.3262   0.5723     H
H       0.8605   0.6738   0.0723     H
C      0.86076   0.2574  0.58852     C
C      0.86076   0.7426  0.08852     C
C      0.86701    0.396   0.0414     C
C      0.86701    0.604   0.5414     C
C      0.87136   0.4442  0.73033     C
C      0.87136   0.5558  0.23033     C
N      0.87632   0.0967  0.60716     N
N      0.87632   0.9033  0.10716     N
H       0.8865   0.3824   0.7484     H
H       0.8865   0.6176   0.2484     H
N       0.8869   0.1803  0.57256     N
N       0.8869   0.8197  0.07256     N
N      0.88846  0.45772  0.24247     N
N      0.88846  0.54228  0.74247     N
H       0.8893   0.0036   0.0076     H
H       0.8893   0.9964   0.5076     H
C       0.8949   0.0078  0.10235     C
C       0.8949   0.9922  0.60235     C
C      0.89834   0.0461  0.04368     C
C      0.89834   0.9539  0.54368     C
H       0.9042   0.0447    0.195     H
H       0.9042   0.9553    0.695     H
C      0.90468    0.487   0.4574     C
C      0.90468    0.513   0.9574     C
C      0.90703   0.0708  0.15569     C
C      0.90703   0.9292  0.65569     C
H       0.9097   0.2708   0.2915     H
H       0.9097   0.7292   0.7915     H
C      0.91498   0.3872  0.04284     C
C      0.91498   0.6128  0.54284     C
C      0.91533    0.148  0.03897     C
C      0.91533    0.852  0.53897     C
H       0.9175   0.4472   0.4289     H
H       0.9175   0.5528   0.9289     H
H       0.9184   0.1739   0.9998     H
H       0.9184   0.8261   0.4998     H
C       0.9235   0.1734  0.15044     C
C       0.9235   0.8266  0.65044     C
C      0.92784   0.2116  0.09247     C
C      0.92784   0.7884  0.59247     C
C      0.93108    0.423  0.28584     C
C      0.93108    0.577  0.78584     C
H       0.9316   0.2166   0.1863     H
H       0.9316   0.7834   0.6863     H
C      0.93374    0.447   0.0002     C
C      0.93374    0.553   0.5002     C
C      0.93478   0.3182  0.30607     C
C      0.93478   0.6818  0.80607     C
N      0.94472   0.3176  0.08662     N
N      0.94472   0.6824  0.58662     N
H       0.9652    0.436   0.7948     H
H       0.9652    0.564   0.2948     H
H       0.9662   0.4423   0.0007     H
H       0.9662   0.5577   0.5007     H
H       0.9672   0.4914   0.6331     H
H       0.9672   0.5086   0.1331     H
C      0.96788   0.4935  0.30844     C
C      0.96788   0.5065  0.80844     C
C      0.97608   0.2841  0.34825     C
C      0.97608   0.7159  0.84825     C
H       0.9787   0.2133   0.3614     H
H       0.9787   0.7867   0.8614     H
C      0.98646   0.3538  0.12889     C
C      0.98646   0.6462  0.62889     C
C      0.99151   0.4601  0.14887     C
C      0.99151   0.5399  0.64887     C
