data_I
_chemical_name_common  '/home/zhangsd/repos/MofS-CGCNN/ML/data/TSD/clean_cifs/FUTZOK_clean'
_cell_length_a 10.57700
_cell_length_b 10.57700
_cell_length_c 14.76810
_cell_angle_alpha 90.59750
_cell_angle_beta  90.59750
_cell_angle_gamma 105.75400
_space_group_name_H-M_alt      'P 1'


loop_
_space_group_symop_operation_xyz
  'x, y, z' 

loop_
_atom_site_label
_atom_site_fract_x
_atom_site_fract_y
_atom_site_fract_z
_atom_site_type_symbol
C       0.0141   0.6543   0.7307     C
N       0.0267   0.4733     0.25     N
H       0.0391   0.6749   0.1594     H
O       0.0495   0.2043   0.7199     O
C       0.0534   0.7556   0.2862     C
N       0.0591   0.2591   0.2688     N
Gd     0.07261  0.17523  0.55746    Gd
O       0.0902    0.024    0.421     O
O       0.0926   0.8242   0.5542     O
O       0.1051   0.7509   0.3615     O
C       0.1107   0.7217   0.1991     C
N        0.143   0.7014   0.7096     N
H       0.1456   0.0532   0.2554     H
C       0.1536      0.9   0.6154     C
C       0.1543   0.5141   0.2307     C
H       0.1554   0.8028   0.1695     H
H       0.1749   0.5391   0.6594     H
H       0.1765   0.8855   0.7529     H
C       0.1805   0.1163   0.3884     C
O       0.1823   0.0245   0.6151     O
C       0.1858   0.3142     0.25     C
C       0.1987   0.8413      0.7     C
N       0.2014    0.643   0.2096     N
C       0.2203   0.1057     0.29     C
C       0.2217   0.6107   0.6991     C
O       0.2363   0.2139    0.436     O
N       0.2409   0.4409   0.2312     N
O       0.2509   0.6051   0.8615     O
C       0.2556   0.5534   0.7862     C
N       0.2656   0.2344     0.25     N
O       0.2861   0.2637    0.064     O
H       0.2896   0.0618   0.2875     H
H       0.2936   0.8594    0.699     H
O       0.2957   0.4505   0.7801     O
H       0.3028   0.6554   0.6695     H
O       0.3242   0.5926   0.0542     O
Gd     0.32477  0.42739  0.94254    Gd
C       0.3413   0.6987      0.2     C
H       0.3594   0.7936    0.199     H
C       0.3837   0.3195   0.1116     C
H       0.3855   0.6765   0.2529     H
C       0.3943   0.2797     0.21     C
C          0.4   0.6536   0.1154     C
H       0.4382   0.2104   0.2125     H
H       0.4468   0.3544   0.2446     H
O       0.4755   0.3177   0.8849     O
O        0.476   0.4098    0.079     O
O        0.524   0.5902    0.921     O
O       0.5245   0.6823   0.1151     O
H       0.5532   0.6456   0.7554     H
H       0.5618   0.7896   0.7875     H
C          0.6   0.3464   0.8846     C
C       0.6057   0.7203     0.79     C
H       0.6145   0.3235   0.7471     H
C       0.6163   0.6805   0.8884     C
H       0.6406   0.2064    0.801     H
C       0.6587   0.3013      0.8     C
Gd     0.67523  0.57261  0.05746    Gd
O       0.6758   0.4074   0.9458     O
H       0.6972   0.3446   0.3305     H
O       0.7043   0.5495   0.2199     O
H       0.7064   0.1406    0.301     H
H       0.7104   0.9382   0.7125     H
O       0.7139   0.7363    0.936     O
N       0.7344   0.7656     0.75     N
C       0.7444   0.4466   0.2138     C
O       0.7491   0.3949   0.1385     O
N       0.7591   0.5591   0.7688     N
O       0.7637   0.7861    0.564     O
C       0.7783   0.3893   0.3009     C
C       0.7797   0.8943     0.71     C
N       0.7986    0.357   0.7904     N
C       0.8013   0.1587      0.3     C
C       0.8142   0.6858     0.75     C
O       0.8177   0.9755   0.3849     O
C       0.8195   0.8837   0.6116     C
H       0.8235   0.1145   0.2471     H
H       0.8251   0.4609   0.3406     H
H       0.8446   0.1972   0.8305     H
C       0.8457   0.4859   0.7693     C
C       0.8464      0.1   0.3846     C
H       0.8544   0.9468   0.7446     H
N        0.857   0.2986   0.2904     N
C       0.8893   0.2783   0.8009     C
O       0.8949   0.2491   0.6385     O
O       0.9074   0.1758   0.4458     O
O       0.9098    0.976    0.579     O
Gd     0.92739  0.82477  0.44254    Gd
N       0.9409   0.7409   0.7312     N
C       0.9466   0.2444   0.7138     C
O       0.9505   0.7957   0.2801     O
H       0.9609   0.3251   0.8406     H
N       0.9733   0.5267     0.75     N
C       0.9859   0.3457   0.2693     C
