data_I
_chemical_name_common  '/home/zhangsd/repos/MofS-CGCNN/ML/data/TSD/clean_cifs/FUWFIO_clean'
_cell_length_a 14.04400
_cell_length_b 20.29700
_cell_length_c 23.63500
_cell_angle_alpha 90.00000
_cell_angle_beta  90.00000
_cell_angle_gamma 90.00000
_space_group_name_H-M_alt      'P 1'


loop_
_space_group_symop_operation_xyz
  'x, y, z' 

loop_
_atom_site_label
_atom_site_fract_x
_atom_site_fract_y
_atom_site_fract_z
_atom_site_type_symbol
C       0.0121   0.2143   0.5165     C
C       0.0121   0.2857   0.9835     C
N       0.0139     0.25     0.75     N
N       0.0204    0.204   0.4168     N
N       0.0204    0.296   0.0832     N
H       0.0299   0.2253   0.8298     H
H       0.0299   0.2747   0.6702     H
N       0.0392   0.7475   0.7207     N
N       0.0392   0.7525   0.7793     N
H       0.0436   0.2234   0.5502     H
H       0.0436   0.2766   0.9498     H
C        0.059   0.2206   0.4667     C
C        0.059   0.2794   0.0333     C
C        0.063   0.2356   0.7969     C
C        0.063   0.2644   0.7031     C
C       0.0646   0.6832   0.9195     C
C       0.0646   0.8168   0.5805     C
C       0.0807   0.6947   0.0179     C
C       0.0807   0.8053   0.4821     C
H       0.0923   0.6708   0.8853     H
H       0.0923   0.8292   0.6147     H
N       0.0938   0.7039   0.1218     N
N       0.0938   0.7961   0.3782     N
Cd     0.10001   0.2307  0.33136    Cd
Cd     0.10001   0.2693  0.16864    Cd
N        0.113   0.1573   0.1435     N
N        0.113   0.3427   0.3565     N
N       0.1154    0.109   0.1819     N
N       0.1154    0.391   0.3181     N
N       0.1186   0.1361   0.0929     N
N       0.1186   0.3639   0.4071     N
C       0.1189   0.0552   0.1501     C
C       0.1189   0.4448   0.3499     C
H       0.1207   0.2372   0.4672     H
H       0.1207   0.2628   0.0328     H
C       0.1221   0.6766   0.9681     C
C       0.1221   0.8234   0.5319     C
N       0.1251   0.0713   0.0959     N
N       0.1251   0.4287   0.4041     N
C       0.1258   0.5129   0.3287     C
C       0.1258   0.9871   0.1713     C
H       0.1268   0.0046   0.2572     H
H       0.1268   0.4954   0.2428     H
N       0.1275   0.7494   0.7973     N
N       0.1275   0.7506   0.7027     N
C       0.1288   0.5285     0.27     C
C       0.1288   0.9715     0.23     C
H       0.1312   0.6004   0.2162     H
H       0.1312   0.8996   0.2838     H
C        0.134   0.6964   0.0695     C
C        0.134   0.8036   0.4305     C
H       0.1345   0.5581   0.4046     H
H       0.1345   0.9419   0.0954     H
C       0.1346   0.5653   0.3658     C
C       0.1346   0.5916   0.2547     C
C       0.1346   0.9084   0.2453     C
C       0.1346   0.9347   0.1342     C
C       0.1436   0.6295   0.3443     C
C       0.1436   0.8705   0.1557     C
N       0.1447   0.6433   0.2886     N
N       0.1447   0.8567   0.2114     N
H       0.1491   0.6642   0.3698     H
H       0.1491   0.8358   0.1302     H
Cd     0.15567     0.75     0.25    Cd
C       0.1594   0.2356    0.798     C
C       0.1594   0.2644    0.702     C
N       0.1675   0.7072   0.1568     N
N       0.1675   0.7928   0.3432     N
C       0.1804     0.75     0.75     C
H       0.1842   0.6609   0.9663     H
H       0.1842   0.8391   0.5337     H
O       0.1845     0.25     0.25     O
H       0.1899   0.2257   0.8319     H
H       0.1899   0.2743   0.6681     H
C       0.2161     0.25     0.75     C
N       0.2294   0.6938   0.0737     N
N       0.2294   0.8062   0.4263     N
N       0.2496   0.2023   0.3719     N
N       0.2496   0.2977   0.1281     N
N       0.2504   0.7023   0.1281     N
N       0.2504   0.7977   0.3719     N
N       0.2706   0.1938   0.4263     N
N       0.2706   0.3062   0.0737     N
C       0.2839     0.75     0.75     C
H       0.3101   0.7257   0.6681     H
H       0.3101   0.7743   0.8319     H
O       0.3155     0.75     0.25     O
H       0.3158   0.1609   0.5337     H
H       0.3158   0.3391   0.9663     H
C       0.3196     0.25     0.75     C
N       0.3325   0.2072   0.3432     N
N       0.3325   0.2928   0.1568     N
C       0.3406   0.7356    0.702     C
C       0.3406   0.7644    0.798     C
Cd     0.34433     0.25     0.25    Cd
H       0.3509   0.1642   0.1302     H
H       0.3509   0.3358   0.3698     H
N       0.3553   0.1433   0.2114     N
N       0.3553   0.3567   0.2886     N
C       0.3564   0.1295   0.1557     C
C       0.3564   0.3705   0.3443     C
C       0.3654   0.0653   0.1342     C
C       0.3654   0.0916   0.2453     C
C       0.3654   0.4084   0.2547     C
C       0.3654   0.4347   0.3658     C
H       0.3655   0.0581   0.0954     H
H       0.3655   0.4419   0.4046     H
C        0.366   0.1964   0.4305     C
C        0.366   0.3036   0.0695     C
H       0.3688   0.1004   0.2838     H
H       0.3688   0.3996   0.2162     H
C       0.3712   0.0285     0.23     C
C       0.3712   0.4715     0.27     C
N       0.3725   0.2494   0.7027     N
N       0.3725   0.2506   0.7973     N
H       0.3732   0.5046   0.2428     H
H       0.3732   0.9954   0.2572     H
C       0.3742   0.0129   0.1713     C
C       0.3742   0.4871   0.3287     C
N       0.3749   0.5713   0.4041     N
N       0.3749   0.9287   0.0959     N
C       0.3779   0.1766   0.5319     C
C       0.3779   0.3234   0.9681     C
H       0.3793   0.7372   0.0328     H
H       0.3793   0.7628   0.4672     H
C       0.3811   0.5552   0.3499     C
C       0.3811   0.9448   0.1501     C
N       0.3814   0.6361   0.4071     N
N       0.3814   0.8639   0.0929     N
N       0.3846    0.609   0.3181     N
N       0.3846    0.891   0.1819     N
N        0.387   0.6573   0.3565     N
N        0.387   0.8427   0.1435     N
Cd     0.39999   0.7307  0.16864    Cd
Cd     0.39999   0.7693  0.33136    Cd
N       0.4062   0.2039   0.3782     N
N       0.4062   0.2961   0.1218     N
H       0.4077   0.1708   0.6147     H
H       0.4077   0.3292   0.8853     H
C       0.4193   0.1947   0.4821     C
C       0.4193   0.3053   0.0179     C
C       0.4354   0.1832   0.5805     C
C       0.4354   0.3168   0.9195     C
C        0.437   0.7356   0.7031     C
C        0.437   0.7644   0.7969     C
C        0.441   0.7206   0.0333     C
C        0.441   0.7794   0.4667     C
H       0.4564   0.7234   0.9498     H
H       0.4564   0.7766   0.5502     H
N       0.4608   0.2475   0.7793     N
N       0.4608   0.2525   0.7207     N
H       0.4701   0.7253   0.6702     H
H       0.4701   0.7747   0.8298     H
N       0.4796    0.704   0.0832     N
N       0.4796    0.796   0.4168     N
N       0.4861     0.75     0.75     N
C       0.4879   0.7143   0.9835     C
C       0.4879   0.7857   0.5165     C
C       0.5121   0.2143   0.4835     C
C       0.5121   0.2857   0.0165     C
N       0.5139     0.25     0.25     N
N       0.5204    0.204   0.5832     N
N       0.5204    0.296   0.9168     N
H       0.5299   0.2253   0.1702     H
H       0.5299   0.2747   0.3298     H
N       0.5392   0.7475   0.2793     N
N       0.5392   0.7525   0.2207     N
H       0.5436   0.2234   0.4498     H
H       0.5436   0.2766   0.0502     H
C        0.559   0.2206   0.5333     C
C        0.559   0.2794   0.9667     C
C        0.563   0.2356   0.2031     C
C        0.563   0.2644   0.2969     C
C       0.5646   0.6832   0.0805     C
C       0.5646   0.8168   0.4195     C
C       0.5807   0.6947   0.9821     C
C       0.5807   0.8053   0.5179     C
H       0.5923   0.6708   0.1147     H
H       0.5923   0.8292   0.3853     H
N       0.5938   0.7039   0.8782     N
N       0.5938   0.7961   0.6218     N
Cd     0.60001   0.2307  0.66864    Cd
Cd     0.60001   0.2693  0.83136    Cd
N        0.613   0.1573   0.8565     N
N        0.613   0.3427   0.6435     N
N       0.6154    0.109   0.8181     N
N       0.6154    0.391   0.6819     N
N       0.6186   0.1361   0.9071     N
N       0.6186   0.3639   0.5929     N
C       0.6189   0.0552   0.8499     C
C       0.6189   0.4448   0.6501     C
H       0.6207   0.2372   0.5328     H
H       0.6207   0.2628   0.9672     H
C       0.6221   0.6766   0.0319     C
C       0.6221   0.8234   0.4681     C
N       0.6251   0.0713   0.9041     N
N       0.6251   0.4287   0.5959     N
C       0.6258   0.5129   0.6713     C
C       0.6258   0.9871   0.8287     C
H       0.6268   0.0046   0.7428     H
H       0.6268   0.4954   0.7572     H
N       0.6275   0.7494   0.2027     N
N       0.6275   0.7506   0.2973     N
C       0.6288   0.5285     0.73     C
C       0.6288   0.9715     0.77     C
H       0.6312   0.6004   0.7838     H
H       0.6312   0.8996   0.7162     H
C        0.634   0.6964   0.9305     C
C        0.634   0.8036   0.5695     C
H       0.6345   0.5581   0.5954     H
H       0.6345   0.9419   0.9046     H
C       0.6346   0.5653   0.6342     C
C       0.6346   0.5916   0.7453     C
C       0.6346   0.9084   0.7547     C
C       0.6346   0.9347   0.8658     C
C       0.6436   0.6295   0.6557     C
C       0.6436   0.8705   0.8443     C
N       0.6447   0.6433   0.7114     N
N       0.6447   0.8567   0.7886     N
H       0.6491   0.6642   0.6302     H
H       0.6491   0.8358   0.8698     H
Cd     0.65567     0.75     0.75    Cd
C       0.6594   0.2356    0.202     C
C       0.6594   0.2644    0.298     C
N       0.6675   0.7072   0.8432     N
N       0.6675   0.7928   0.6568     N
C       0.6804     0.75     0.25     C
H       0.6842   0.6609   0.0337     H
H       0.6842   0.8391   0.4663     H
O       0.6845     0.25     0.75     O
H       0.6899   0.2257   0.1681     H
H       0.6899   0.2743   0.3319     H
C       0.7161     0.25     0.25     C
N       0.7294   0.6938   0.9263     N
N       0.7294   0.8062   0.5737     N
N       0.7496   0.2023   0.6281     N
N       0.7496   0.2977   0.8719     N
N       0.7504   0.7023   0.8719     N
N       0.7504   0.7977   0.6281     N
N       0.7706   0.1938   0.5737     N
N       0.7706   0.3062   0.9263     N
C       0.7839     0.75     0.25     C
H       0.8101   0.7257   0.3319     H
H       0.8101   0.7743   0.1681     H
O       0.8155     0.75     0.75     O
H       0.8158   0.1609   0.4663     H
H       0.8158   0.3391   0.0337     H
C       0.8196     0.25     0.25     C
N       0.8325   0.2072   0.6568     N
N       0.8325   0.2928   0.8432     N
C       0.8406   0.7356    0.298     C
C       0.8406   0.7644    0.202     C
Cd     0.84433     0.25     0.75    Cd
H       0.8509   0.1642   0.8698     H
H       0.8509   0.3358   0.6302     H
N       0.8553   0.1433   0.7886     N
N       0.8553   0.3567   0.7114     N
C       0.8564   0.1295   0.8443     C
C       0.8564   0.3705   0.6557     C
C       0.8654   0.0653   0.8658     C
C       0.8654   0.0916   0.7547     C
C       0.8654   0.4084   0.7453     C
C       0.8654   0.4347   0.6342     C
H       0.8655   0.0581   0.9046     H
H       0.8655   0.4419   0.5954     H
C        0.866   0.1964   0.5695     C
C        0.866   0.3036   0.9305     C
H       0.8688   0.1004   0.7162     H
H       0.8688   0.3996   0.7838     H
C       0.8712   0.0285     0.77     C
C       0.8712   0.4715     0.73     C
N       0.8725   0.2494   0.2973     N
N       0.8725   0.2506   0.2027     N
H       0.8732   0.5046   0.7572     H
H       0.8732   0.9954   0.7428     H
C       0.8742   0.0129   0.8287     C
C       0.8742   0.4871   0.6713     C
N       0.8749   0.5713   0.5959     N
N       0.8749   0.9287   0.9041     N
C       0.8779   0.1766   0.4681     C
C       0.8779   0.3234   0.0319     C
H       0.8793   0.7372   0.9672     H
H       0.8793   0.7628   0.5328     H
C       0.8811   0.5552   0.6501     C
C       0.8811   0.9448   0.8499     C
N       0.8814   0.6361   0.5929     N
N       0.8814   0.8639   0.9071     N
N       0.8846    0.609   0.6819     N
N       0.8846    0.891   0.8181     N
N        0.887   0.6573   0.6435     N
N        0.887   0.8427   0.8565     N
Cd     0.89999   0.7307  0.83136    Cd
Cd     0.89999   0.7693  0.66864    Cd
N       0.9062   0.2039   0.6218     N
N       0.9062   0.2961   0.8782     N
H       0.9077   0.1708   0.3853     H
H       0.9077   0.3292   0.1147     H
C       0.9193   0.1947   0.5179     C
C       0.9193   0.3053   0.9821     C
C       0.9354   0.1832   0.4195     C
C       0.9354   0.3168   0.0805     C
C        0.937   0.7356   0.2969     C
C        0.937   0.7644   0.2031     C
C        0.941   0.7206   0.9667     C
C        0.941   0.7794   0.5333     C
H       0.9564   0.7234   0.0502     H
H       0.9564   0.7766   0.4498     H
N       0.9608   0.2475   0.2207     N
N       0.9608   0.2525   0.2793     N
H       0.9701   0.7253   0.3298     H
H       0.9701   0.7747   0.1702     H
N       0.9796    0.704   0.9168     N
N       0.9796    0.796   0.5832     N
N       0.9861     0.75     0.25     N
C       0.9879   0.7143   0.0165     C
C       0.9879   0.7857   0.4835     C
