data_I
_chemical_name_common  '/home/zhangsd/repos/MofS-CGCNN/ML/data/TSD/clean_cifs/GADMAA01_clean'
_cell_length_a 14.51020
_cell_length_b 14.51020
_cell_length_c 15.83200
_cell_angle_alpha 90.00000
_cell_angle_beta  90.00000
_cell_angle_gamma 120.00000
_space_group_name_H-M_alt      'P 1'


loop_
_space_group_symop_operation_xyz
  'x, y, z' 

loop_
_atom_site_label
_atom_site_fract_x
_atom_site_fract_y
_atom_site_fract_z
_atom_site_type_symbol
Zn         0.0      0.5      0.0    Zn
Zn         0.0      0.5      0.5    Zn
O       0.0558   0.4388   0.4093     O
O       0.0558   0.4388   0.5907     O
O       0.0558    0.617   0.0907     O
O       0.0558    0.617   0.9093     O
H       0.0843   0.3633    0.273     H
H       0.0843   0.3633    0.727     H
H       0.0843    0.721    0.227     H
H       0.0843    0.721    0.773     H
C        0.132   0.4822    0.361     C
C        0.132   0.4822    0.639     C
C        0.132   0.6498    0.139     C
C        0.132   0.6498    0.861     C
C       0.1497   0.4092   0.3056     C
C       0.1497   0.4092   0.6944     C
C       0.1497   0.7405   0.1944     C
C       0.1497   0.7405   0.8056     C
H       0.1663   0.3629   0.3408     H
H       0.1663   0.3629   0.6592     H
H       0.1663   0.8034   0.1592     H
H       0.1663   0.8034   0.8408     H
O       0.1955   0.5808   0.3542     O
O       0.1955   0.5808   0.6458     O
O       0.1955   0.6147   0.1458     O
O       0.1955   0.6147   0.8542     O
H       0.1966   0.3629   0.1592     H
H       0.1966   0.3629   0.8408     H
H       0.1966   0.8337   0.3408     H
H       0.1966   0.8337   0.6592     H
O       0.2347   0.4694     0.25     O
O       0.2347   0.4694     0.75     O
O       0.2347   0.7653     0.25     O
O       0.2347   0.7653     0.75     O
C       0.2595   0.4092   0.1944     C
C       0.2595   0.4092   0.8056     C
C       0.2595   0.8503   0.3056     C
C       0.2595   0.8503   0.6944     C
H        0.279   0.3633    0.227     H
H        0.279   0.3633    0.773     H
H        0.279   0.9157    0.273     H
H        0.279   0.9157    0.727     H
Gd     0.33333  0.66667     0.25    Gd
Gd     0.33333  0.66667     0.75    Gd
C       0.3502   0.4822    0.139     C
C       0.3502   0.4822    0.861     C
C       0.3502    0.868    0.361     C
C       0.3502    0.868    0.639     C
H       0.3629   0.1663   0.1592     H
H       0.3629   0.1663   0.8408     H
H       0.3629   0.1966   0.3408     H
H       0.3629   0.1966   0.6592     H
H       0.3633   0.0843    0.227     H
H       0.3633   0.0843    0.773     H
H       0.3633    0.279    0.273     H
H       0.3633    0.279    0.727     H
O        0.383   0.4388   0.0907     O
O        0.383   0.4388   0.9093     O
O        0.383   0.9442   0.4093     O
O        0.383   0.9442   0.5907     O
O       0.3853   0.5808   0.1458     O
O       0.3853   0.5808   0.8542     O
O       0.3853   0.8045   0.3542     O
O       0.3853   0.8045   0.6458     O
C       0.4092   0.1497   0.1944     C
C       0.4092   0.1497   0.8056     C
C       0.4092   0.2595   0.3056     C
C       0.4092   0.2595   0.6944     C
O       0.4192   0.6147   0.3542     O
O       0.4192   0.6147   0.6458     O
O       0.4192   0.8045   0.1458     O
O       0.4192   0.8045   0.8542     O
O       0.4388   0.0558   0.0907     O
O       0.4388   0.0558   0.9093     O
O       0.4388    0.383   0.4093     O
O       0.4388    0.383   0.5907     O
O       0.4694   0.2347     0.25     O
O       0.4694   0.2347     0.75     O
C       0.4822    0.132    0.139     C
C       0.4822    0.132    0.861     C
C       0.4822   0.3502    0.361     C
C       0.4822   0.3502    0.639     C
Zn         0.5      0.0      0.0    Zn
Zn         0.5      0.0      0.5    Zn
Zn         0.5      0.5      0.0    Zn
Zn         0.5      0.5      0.5    Zn
C       0.5178   0.6498    0.361     C
C       0.5178   0.6498    0.639     C
C       0.5178    0.868    0.139     C
C       0.5178    0.868    0.861     C
O       0.5306   0.7653     0.25     O
O       0.5306   0.7653     0.75     O
O       0.5612    0.617   0.4093     O
O       0.5612    0.617   0.5907     O
O       0.5612   0.9442   0.0907     O
O       0.5612   0.9442   0.9093     O
O       0.5808   0.1955   0.1458     O
O       0.5808   0.1955   0.8542     O
O       0.5808   0.3853   0.3542     O
O       0.5808   0.3853   0.6458     O
C       0.5908   0.7405   0.3056     C
C       0.5908   0.7405   0.6944     C
C       0.5908   0.8503   0.1944     C
C       0.5908   0.8503   0.8056     C
O       0.6147   0.1955   0.3542     O
O       0.6147   0.1955   0.6458     O
O       0.6147   0.4192   0.1458     O
O       0.6147   0.4192   0.8542     O
O        0.617   0.0558   0.4093     O
O        0.617   0.0558   0.5907     O
O        0.617   0.5612   0.0907     O
O        0.617   0.5612   0.9093     O
H       0.6367    0.721    0.273     H
H       0.6367    0.721    0.727     H
H       0.6367   0.9157    0.227     H
H       0.6367   0.9157    0.773     H
H       0.6371   0.8034   0.3408     H
H       0.6371   0.8034   0.6592     H
H       0.6371   0.8337   0.1592     H
H       0.6371   0.8337   0.8408     H
C       0.6498    0.132    0.361     C
C       0.6498    0.132    0.639     C
C       0.6498   0.5178    0.139     C
C       0.6498   0.5178    0.861     C
Gd     0.66667  0.33333     0.25    Gd
Gd     0.66667  0.33333     0.75    Gd
H        0.721   0.0843    0.273     H
H        0.721   0.0843    0.727     H
H        0.721   0.6367    0.227     H
H        0.721   0.6367    0.773     H
C       0.7405   0.1497   0.3056     C
C       0.7405   0.1497   0.6944     C
C       0.7405   0.5908   0.1944     C
C       0.7405   0.5908   0.8056     C
O       0.7653   0.2347     0.25     O
O       0.7653   0.2347     0.75     O
O       0.7653   0.5306     0.25     O
O       0.7653   0.5306     0.75     O
H       0.8034   0.1663   0.3408     H
H       0.8034   0.1663   0.6592     H
H       0.8034   0.6371   0.1592     H
H       0.8034   0.6371   0.8408     H
O       0.8045   0.3853   0.1458     O
O       0.8045   0.3853   0.8542     O
O       0.8045   0.4192   0.3542     O
O       0.8045   0.4192   0.6458     O
H       0.8337   0.1966   0.1592     H
H       0.8337   0.1966   0.8408     H
H       0.8337   0.6371   0.3408     H
H       0.8337   0.6371   0.6592     H
C       0.8503   0.2595   0.1944     C
C       0.8503   0.2595   0.8056     C
C       0.8503   0.5908   0.3056     C
C       0.8503   0.5908   0.6944     C
C        0.868   0.3502    0.139     C
C        0.868   0.3502    0.861     C
C        0.868   0.5178    0.361     C
C        0.868   0.5178    0.639     C
H       0.9157    0.279    0.227     H
H       0.9157    0.279    0.773     H
H       0.9157   0.6367    0.273     H
H       0.9157   0.6367    0.727     H
O       0.9442    0.383   0.0907     O
O       0.9442    0.383   0.9093     O
O       0.9442   0.5612   0.4093     O
O       0.9442   0.5612   0.5907     O
