data_I
_chemical_name_common  '/home/zhangsd/repos/MofS-CGCNN/ML/data/TSD/clean_cifs/GAFROX_clean'
_cell_length_a 18.46800
_cell_length_b 18.46800
_cell_length_c 24.16000
_cell_angle_alpha 90.00000
_cell_angle_beta  90.00000
_cell_angle_gamma 120.00000
_space_group_name_H-M_alt      'P 1'


loop_
_space_group_symop_operation_xyz
  'x, y, z' 

loop_
_atom_site_label
_atom_site_fract_x
_atom_site_fract_y
_atom_site_fract_z
_atom_site_type_symbol
O       0.0279   0.4371   0.5736     O
O       0.0279   0.4371   0.9264     O
O       0.0279   0.5908   0.5736     O
O       0.0279   0.5908   0.9264     O
Zn     0.05415  0.52707  0.05011    Zn
Zn     0.05415  0.52707  0.44989    Zn
H       0.0613   0.1226     0.75     H
H       0.0613   0.9387     0.75     H
H       0.0743   0.3639   0.6378     H
H       0.0743   0.3639   0.8622     H
H       0.0743   0.7104   0.6378     H
H       0.0743   0.7104   0.8622     H
C       0.0904   0.1808     0.75     C
C       0.0904   0.9096     0.75     C
C       0.0907    0.448   0.5456     C
C       0.0907    0.448   0.9544     C
C       0.0907   0.6427   0.5456     C
C       0.0907   0.6427   0.9544     C
H      0.09775   0.1955   0.6674     H
H      0.09775   0.1955   0.8326     H
H      0.09775  0.90225   0.6674     H
H      0.09775  0.90225   0.8326     H
O       0.1094   0.4797  0.00162     O
O       0.1094   0.4797  0.49838     O
O       0.1094   0.6297  0.00162     O
O       0.1094   0.6297  0.49838     O
C      0.11235   0.2247   0.7006     C
C      0.11235   0.2247   0.7994     C
C      0.11235  0.88765   0.7006     C
C      0.11235  0.88765   0.7994     C
H       0.1226   0.0613     0.25     H
C       0.1248   0.3778  0.62082     C
C       0.1248   0.3778  0.87918     C
C       0.1248    0.747  0.62082     C
C       0.1248    0.747  0.87918     C
C       0.1447   0.4206  0.57218     C
C       0.1447   0.4206  0.92782     C
C       0.1447   0.7241  0.57218     C
C       0.1447   0.7241  0.92782     C
C       0.1536   0.3072   0.6998     C
C       0.1536   0.3072   0.8002     C
C       0.1536   0.8464   0.6998     C
C       0.1536   0.8464   0.8002     C
C      0.17455   0.3491     0.75     C
C      0.17455  0.82545     0.75     C
C       0.1772   0.3544   0.6457     C
C       0.1772   0.3544   0.8543     C
C       0.1772   0.8228   0.6457     C
C       0.1772   0.8228   0.8543     C
C       0.1808   0.0904     0.25     C
H       0.1955  0.09775   0.1674     H
H       0.1955  0.09775   0.3326     H
N       0.2183   0.4366     0.75     N
N       0.2183   0.7817     0.75     N
C      0.22175   0.4435    0.546     C
C      0.22175   0.4435    0.954     C
C      0.22175  0.77825    0.546     C
C      0.22175  0.77825    0.954     C
C       0.2247  0.11235   0.2006     C
C       0.2247  0.11235   0.2994     C
H       0.2317   0.4634   0.7192     H
H       0.2317   0.4634   0.7808     H
H       0.2317   0.7683   0.7192     H
H       0.2317   0.7683   0.7808     H
H      0.23625   0.4725   0.5126     H
H      0.23625   0.4725   0.9874     H
H      0.23625  0.76375   0.5126     H
H      0.23625  0.76375   0.9874     H
C        0.253   0.3778  0.62082     C
C        0.253   0.3778  0.87918     C
C        0.253   0.8752  0.62082     C
C        0.253   0.8752  0.87918     C
C       0.2759   0.4206  0.57218     C
C       0.2759   0.4206  0.92782     C
C       0.2759   0.8553  0.57218     C
C       0.2759   0.8553  0.92782     C
H       0.2896   0.3639   0.6378     H
H       0.2896   0.3639   0.8622     H
H       0.2896   0.9257   0.6378     H
H       0.2896   0.9257   0.8622     H
C       0.3072   0.1536   0.1998     C
C       0.3072   0.1536   0.3002     C
C       0.3491  0.17455     0.25     C
C       0.3544   0.1772   0.1457     C
C       0.3544   0.1772   0.3543     C
C       0.3573    0.448   0.5456     C
C       0.3573    0.448   0.9544     C
C       0.3573   0.9093   0.5456     C
C       0.3573   0.9093   0.9544     C
H       0.3639   0.0743   0.1378     H
H       0.3639   0.0743   0.3622     H
H       0.3639   0.2896   0.1378     H
H       0.3639   0.2896   0.3622     H
O       0.3703   0.4797  0.00162     O
O       0.3703   0.4797  0.49838     O
O       0.3703   0.8906  0.00162     O
O       0.3703   0.8906  0.49838     O
C       0.3778   0.1248  0.12082     C
C       0.3778   0.1248  0.37918     C
C       0.3778    0.253  0.12082     C
C       0.3778    0.253  0.37918     C
O       0.4092   0.4371   0.5736     O
O       0.4092   0.4371   0.9264     O
O       0.4092   0.9721   0.5736     O
O       0.4092   0.9721   0.9264     O
C       0.4206   0.1447  0.07218     C
C       0.4206   0.1447  0.42782     C
C       0.4206   0.2759  0.07218     C
C       0.4206   0.2759  0.42782     C
N       0.4366   0.2183     0.25     N
O       0.4371   0.0279   0.0736     O
O       0.4371   0.0279   0.4264     O
O       0.4371   0.4092   0.0736     O
O       0.4371   0.4092   0.4264     O
C       0.4435  0.22175    0.046     C
C       0.4435  0.22175    0.454     C
C        0.448   0.0907   0.0456     C
C        0.448   0.0907   0.4544     C
C        0.448   0.3573   0.0456     C
C        0.448   0.3573   0.4544     C
H       0.4634   0.2317   0.2192     H
H       0.4634   0.2317   0.2808     H
H       0.4725  0.23625   0.0126     H
H       0.4725  0.23625   0.4874     H
Zn     0.47293  0.52707  0.05011    Zn
Zn     0.47293  0.52707  0.44989    Zn
Zn     0.47293  0.94585  0.05011    Zn
Zn     0.47293  0.94585  0.44989    Zn
O       0.4797   0.1094  0.50162     O
O       0.4797   0.1094  0.99838     O
O       0.4797   0.3703  0.50162     O
O       0.4797   0.3703  0.99838     O
O       0.5203   0.6297  0.00162     O
O       0.5203   0.6297  0.49838     O
O       0.5203   0.8906  0.00162     O
O       0.5203   0.8906  0.49838     O
Zn     0.52707  0.05415  0.55011    Zn
Zn     0.52707  0.05415  0.94989    Zn
Zn     0.52707  0.47293  0.55011    Zn
Zn     0.52707  0.47293  0.94989    Zn
H       0.5275  0.76375   0.5126     H
H       0.5275  0.76375   0.9874     H
H       0.5366   0.7683   0.7192     H
H       0.5366   0.7683   0.7808     H
C        0.552   0.6427   0.5456     C
C        0.552   0.6427   0.9544     C
C        0.552   0.9093   0.5456     C
C        0.552   0.9093   0.9544     C
C       0.5565  0.77825    0.546     C
C       0.5565  0.77825    0.954     C
O       0.5629   0.5908   0.5736     O
O       0.5629   0.5908   0.9264     O
O       0.5629   0.9721   0.5736     O
O       0.5629   0.9721   0.9264     O
N       0.5634   0.7817     0.75     N
C       0.5794   0.7241  0.57218     C
C       0.5794   0.7241  0.92782     C
C       0.5794   0.8553  0.57218     C
C       0.5794   0.8553  0.92782     C
O       0.5908   0.0279   0.0736     O
O       0.5908   0.0279   0.4264     O
O       0.5908   0.5629   0.0736     O
O       0.5908   0.5629   0.4264     O
C       0.6222    0.747  0.62082     C
C       0.6222    0.747  0.87918     C
C       0.6222   0.8752  0.62082     C
C       0.6222   0.8752  0.87918     C
O       0.6297   0.1094  0.50162     O
O       0.6297   0.1094  0.99838     O
O       0.6297   0.5203  0.50162     O
O       0.6297   0.5203  0.99838     O
H       0.6361   0.7104   0.6378     H
H       0.6361   0.7104   0.8622     H
H       0.6361   0.9257   0.6378     H
H       0.6361   0.9257   0.8622     H
C       0.6427   0.0907   0.0456     C
C       0.6427   0.0907   0.4544     C
C       0.6427    0.552   0.0456     C
C       0.6427    0.552   0.4544     C
C       0.6456   0.8228   0.6457     C
C       0.6456   0.8228   0.8543     C
C       0.6509  0.82545     0.75     C
C       0.6928   0.8464   0.6998     C
C       0.6928   0.8464   0.8002     C
H       0.7104   0.0743   0.1378     H
H       0.7104   0.0743   0.3622     H
H       0.7104   0.6361   0.1378     H
H       0.7104   0.6361   0.3622     H
C       0.7241   0.1447  0.07218     C
C       0.7241   0.1447  0.42782     C
C       0.7241   0.5794  0.07218     C
C       0.7241   0.5794  0.42782     C
C        0.747   0.1248  0.12082     C
C        0.747   0.1248  0.37918     C
C        0.747   0.6222  0.12082     C
C        0.747   0.6222  0.37918     C
H      0.76375  0.23625   0.0126     H
H      0.76375  0.23625   0.4874     H
H      0.76375   0.5275   0.0126     H
H      0.76375   0.5275   0.4874     H
H       0.7683   0.2317   0.2192     H
H       0.7683   0.2317   0.2808     H
H       0.7683   0.5366   0.2192     H
H       0.7683   0.5366   0.2808     H
C       0.7753  0.88765   0.7006     C
C       0.7753  0.88765   0.7994     C
C      0.77825  0.22175    0.046     C
C      0.77825  0.22175    0.454     C
C      0.77825   0.5565    0.046     C
C      0.77825   0.5565    0.454     C
N       0.7817   0.2183     0.25     N
N       0.7817   0.5634     0.25     N
H       0.8045  0.90225   0.6674     H
H       0.8045  0.90225   0.8326     H
C       0.8192   0.9096     0.75     C
C       0.8228   0.1772   0.1457     C
C       0.8228   0.1772   0.3543     C
C       0.8228   0.6456   0.1457     C
C       0.8228   0.6456   0.3543     C
C      0.82545  0.17455     0.25     C
C      0.82545   0.6509     0.25     C
C       0.8464   0.1536   0.1998     C
C       0.8464   0.1536   0.3002     C
C       0.8464   0.6928   0.1998     C
C       0.8464   0.6928   0.3002     C
C       0.8553   0.2759  0.07218     C
C       0.8553   0.2759  0.42782     C
C       0.8553   0.5794  0.07218     C
C       0.8553   0.5794  0.42782     C
C       0.8752    0.253  0.12082     C
C       0.8752    0.253  0.37918     C
C       0.8752   0.6222  0.12082     C
C       0.8752   0.6222  0.37918     C
H       0.8774   0.9387     0.75     H
C      0.88765  0.11235   0.2006     C
C      0.88765  0.11235   0.2994     C
C      0.88765   0.7753   0.2006     C
C      0.88765   0.7753   0.2994     C
O       0.8906   0.3703  0.50162     O
O       0.8906   0.3703  0.99838     O
O       0.8906   0.5203  0.50162     O
O       0.8906   0.5203  0.99838     O
H      0.90225  0.09775   0.1674     H
H      0.90225  0.09775   0.3326     H
H      0.90225   0.8045   0.1674     H
H      0.90225   0.8045   0.3326     H
C       0.9093   0.3573   0.0456     C
C       0.9093   0.3573   0.4544     C
C       0.9093    0.552   0.0456     C
C       0.9093    0.552   0.4544     C
C       0.9096   0.0904     0.25     C
C       0.9096   0.8192     0.25     C
H       0.9257   0.2896   0.1378     H
H       0.9257   0.2896   0.3622     H
H       0.9257   0.6361   0.1378     H
H       0.9257   0.6361   0.3622     H
H       0.9387   0.0613     0.25     H
H       0.9387   0.8774     0.25     H
Zn     0.94585  0.47293  0.55011    Zn
Zn     0.94585  0.47293  0.94989    Zn
O       0.9721   0.4092   0.0736     O
O       0.9721   0.4092   0.4264     O
O       0.9721   0.5629   0.0736     O
O       0.9721   0.5629   0.4264     O
