data_I
_chemical_name_common  '/home/zhangsd/repos/MofS-CGCNN/ML/data/TSD/clean_cifs/GAJZAU_clean'
_cell_length_a  5.60680
_cell_length_b 13.38200
_cell_length_c 21.19200
_cell_angle_alpha 90.00000
_cell_angle_beta  95.89200
_cell_angle_gamma 90.00000
_space_group_name_H-M_alt      'P 1'


loop_
_space_group_symop_operation_xyz
  'x, y, z' 

loop_
_atom_site_label
_atom_site_fract_x
_atom_site_fract_y
_atom_site_fract_z
_atom_site_type_symbol
H       0.0052   0.7432   0.6786     H
H       0.0052   0.7568   0.1786     H
N       0.0103   0.5813   0.2853     N
N       0.0103   0.9187   0.7853     N
H       0.0263   0.1006   0.3706     H
H       0.0263   0.3994   0.8706     H
C         0.03   0.1892   0.2028     C
C         0.03   0.3108   0.7028     C
O       0.0384   0.6231   0.4426     O
O       0.0384   0.8769   0.9426     O
H       0.0855   0.1977   0.1613     H
H       0.0855   0.3023   0.6613     H
C       0.0888   0.1087   0.3299     C
C       0.0888   0.3913   0.8299     C
P       0.0896  0.52303  0.41339     P
P       0.0896  0.97697  0.91339     P
C       0.0914   0.5693   0.2218     C
C       0.0914   0.9307   0.7218     C
H       0.1191   0.7255   0.2965     H
H       0.1191   0.7745   0.7965     H
H       0.1197    0.001   0.7142     H
H       0.1197    0.499   0.2142     H
O       0.1201   0.5475   0.5926     O
O       0.1201   0.9525   0.0926     O
C       0.1445   0.2195   0.3197     C
C       0.1445   0.2805   0.8197     C
C       0.1895   0.5402   0.3349     C
C       0.1895   0.9598   0.8349     C
C        0.219   0.2318   0.2539     C
C        0.219   0.2682   0.7539     C
H       0.2357   0.0702   0.3307     H
H       0.2357   0.4298   0.8307     H
H        0.242   0.6044   0.2204     H
H        0.242   0.8956   0.7204     H
H       0.2425   0.1978   0.7457     H
H       0.2425   0.3022   0.2457     H
H       0.2431    0.024   0.8204     H
H       0.2431    0.476   0.3204     H
O       0.3019    0.243   0.4282     O
O       0.3019    0.257   0.9282     O
O       0.3143   0.0174    0.953     O
O       0.3143   0.4826    0.453     O
C       0.3257   0.2383   0.8704     C
C       0.3257   0.2617   0.3704     C
H       0.3273   0.5844    0.339     H
H       0.3273   0.9156    0.839     H
Pr     0.37031  0.63596  0.52895    Pr
Pr     0.37031  0.86404  0.02895    Pr
H       0.3704   0.1979   0.2514     H
H       0.3704   0.3021   0.7514     H
O       0.4949   0.1852   0.8568     O
O       0.4949   0.3148   0.3568     O
O       0.5051   0.6852   0.6432     O
O       0.5051   0.8148   0.1432     O
H       0.6296   0.6979   0.2486     H
H       0.6296   0.8021   0.7486     H
Pr     0.62969  0.13596  0.97105    Pr
Pr     0.62969  0.36404  0.47105    Pr
H       0.6727   0.0844    0.161     H
H       0.6727   0.4156    0.661     H
C       0.6743   0.7383   0.6296     C
C       0.6743   0.7617   0.1296     C
O       0.6857   0.5174    0.547     O
O       0.6857   0.9826    0.047     O
O       0.6981    0.743   0.0718     O
O       0.6981    0.757   0.5718     O
H       0.7569    0.524   0.6796     H
H       0.7569    0.976   0.1796     H
H       0.7575   0.6978   0.7543     H
H       0.7575   0.8022   0.2543     H
H        0.758   0.1044   0.2796     H
H        0.758   0.3956   0.7796     H
H       0.7643   0.5702   0.1693     H
H       0.7643   0.9298   0.6693     H
C        0.781   0.7318   0.2461     C
C        0.781   0.7682   0.7461     C
C       0.8105   0.0402   0.1651     C
C       0.8105   0.4598   0.6651     C
C       0.8555   0.7195   0.1803     C
C       0.8555   0.7805   0.6803     C
O       0.8799   0.0475   0.9074     O
O       0.8799   0.4525   0.4074     O
H       0.8803    0.501   0.7858     H
H       0.8803    0.999   0.2858     H
H       0.8809   0.2255   0.2035     H
H       0.8809   0.2745   0.7035     H
C       0.9086   0.0693   0.2782     C
C       0.9086   0.4307   0.7782     C
P       0.9104  0.02303  0.08661     P
P       0.9104  0.47697  0.58661     P
C       0.9112   0.6087   0.1701     C
C       0.9112   0.8913   0.6701     C
H       0.9145   0.6977   0.3387     H
H       0.9145   0.8023   0.8387     H
O       0.9616   0.1231   0.0574     O
O       0.9616   0.3769   0.5574     O
C         0.97   0.6892   0.2972     C
C         0.97   0.8108   0.7972     C
H       0.9737   0.6006   0.1294     H
H       0.9737   0.8994   0.6294     H
N       0.9897   0.0813   0.2147     N
N       0.9897   0.4187   0.7147     N
H       0.9948   0.2432   0.8214     H
H       0.9948   0.2568   0.3214     H
