data_I
_chemical_name_common  '/home/zhangsd/repos/MofS-CGCNN/ML/data/TSD/clean_cifs/GALCAZ_clean'
_cell_length_a  6.18020
_cell_length_b 23.31270
_cell_length_c 29.42180
_cell_angle_alpha 90.00000
_cell_angle_beta  90.00000
_cell_angle_gamma 95.66300
_space_group_name_H-M_alt      'P 1'


loop_
_space_group_symop_operation_xyz
  'x, y, z' 

loop_
_atom_site_label
_atom_site_fract_x
_atom_site_fract_y
_atom_site_fract_z
_atom_site_type_symbol
H       0.0035   0.2298   0.1726     H
H       0.0035   0.7298   0.3274     H
C       0.0092    0.268   0.3648     C
C       0.0092    0.768   0.1352     C
H       0.0162   0.3978   0.4392     H
H       0.0162   0.8978   0.0608     H
H       0.0288   0.2204   0.0407     H
H       0.0288   0.7204   0.4593     H
C       0.0341   0.2521   0.7807     C
C       0.0341   0.7521   0.7193     C
C       0.0345   0.3647   0.5496     C
C       0.0345   0.8647   0.9504     C
N       0.0375   0.4824   0.4339     N
N       0.0375   0.9824   0.0661     N
C        0.041   0.0867   0.0676     C
C        0.041   0.5867   0.4324     C
C       0.0533   0.4041   0.0932     C
C       0.0533   0.9041   0.4068     C
C       0.0549   0.2325   0.2405     C
C       0.0549   0.7325   0.2595     C
O        0.055  0.30111  0.99212     O
O        0.055  0.80111  0.50788     O
C       0.0573   0.2607   0.7009     C
C       0.0573   0.7607   0.7991     C
C       0.0657   0.0699    0.941     C
C       0.0657   0.5699    0.559     C
H       0.0712   0.3216   0.1119     H
H       0.0712   0.8216   0.3881     H
C       0.0731    0.007   0.4347     C
C       0.0731    0.507   0.0653     C
C       0.0769   0.3887  0.95071     C
C       0.0769   0.8887  0.54929     C
C       0.0772   0.4715    0.562     C
C       0.0772   0.9715    0.938     C
C       0.0799   0.2428   0.3248     C
C       0.0799   0.7428   0.1752     C
H       0.0816    0.285   0.4306     H
H       0.0816    0.785   0.0694     H
H       0.0831   0.0922   0.6072     H
H       0.0831   0.5922   0.8928     H
C        0.084   0.1876   0.0538     C
C        0.084   0.6876   0.4462     C
H       0.1222   0.2141   0.8647     H
H       0.1222   0.7141   0.6353     H
C       0.1295   0.0987    0.463     C
C       0.1295   0.4826   0.9185     C
C       0.1295   0.5987    0.037     C
C       0.1295   0.9826   0.5815     C
C       0.1301   0.2667  0.40415     C
C       0.1301   0.7667  0.09585     C
C       0.1463   0.3526   0.0956     C
C       0.1463   0.8526   0.4044     C
C       0.1563   0.3319   0.9635     C
C       0.1563   0.8319   0.5365     C
C        0.161     0.45   0.0701     C
C        0.161     0.95   0.4299     C
H       0.1698   0.3675    0.534     H
H       0.1698   0.8675    0.966     H
H        0.192   0.2173     0.24     H
H        0.192   0.7173     0.26     H
N       0.2045   0.0477  0.45606     N
N       0.2045   0.5477  0.04394     N
C       0.2055   0.4303   0.9272     C
C       0.2055   0.9303   0.5728     C
H       0.2149   0.0112   0.5984     H
H       0.2149   0.5112   0.9016     H
H       0.2233   0.1282   0.4771     H
H       0.2233   0.6282   0.0229     H
N       0.2254   0.2301   0.7831     N
N       0.2254   0.7301   0.7169     N
C       0.2383   0.0939    0.091     C
C       0.2383   0.5939    0.409     C
C       0.2574     0.24   0.7024     C
C       0.2574     0.74   0.7976     C
C       0.2679   0.2135   0.3282     C
C       0.2679   0.7135   0.1718     C
N       0.2745   0.1948  0.07576     N
N       0.2745   0.6948  0.42424     N
H        0.277    0.216    0.522     H
H        0.277    0.716    0.978     H
C        0.282   0.0795   0.9507     C
C        0.282   0.5795   0.5493     C
O       0.2864  0.18145  0.95188     O
O       0.2864  0.68145  0.54812     O
C       0.2923    0.478   0.5539     C
C       0.2923    0.978   0.9461     C
H       0.2961   0.0619   0.1049     H
H       0.2961   0.5619   0.3951     H
O       0.3006   0.2396   0.6228     O
O       0.3006   0.7396   0.8772     O
N       0.3147   0.2404  0.40632     N
N       0.3147   0.7404  0.09368     N
H       0.3196   0.1941   0.3026     H
H       0.3196   0.6941   0.1974     H
O       0.3284  0.32013  0.94333     O
O       0.3284  0.82013  0.55667     O
C       0.3329    0.225   0.7451     C
C       0.3329    0.725   0.7549     C
N       0.3353   0.3442  0.07642     N
N       0.3353   0.8442  0.42358     N
H        0.346   0.4228   0.9171     H
H        0.346   0.9228   0.5829     H
C       0.3468   0.1478   0.0937     C
C       0.3468   0.6478   0.4063     C
C       0.3588   0.4408   0.0508     C
C       0.3588   0.9408   0.4492     C
H       0.3721   0.4453   0.5525     H
H       0.3721   0.9453   0.9475     H
C       0.3755   0.2134    0.369     C
C       0.3755   0.7134    0.131     C
O       0.3829   0.2285    0.518     O
O       0.3829   0.7285    0.982     O
C       0.3936   0.2346   0.6611     C
C       0.3936   0.7346   0.8389     C
C       0.3954    0.032   0.9524     C
C       0.3954    0.532   0.5476     C
C       0.3992   0.1386   0.9578     C
C       0.3992   0.6386   0.5422     C
O       0.4072   0.3569  0.46815     O
O       0.4072   0.8569  0.03185     O
O       0.4123    0.274  0.16504     O
O       0.4123    0.774  0.33496     O
H       0.4269   0.1165   0.5397     H
H       0.4269   0.6165   0.9603     H
C       0.4386   0.3886    0.054     C
C       0.4386   0.8886    0.446     C
H       0.4401   0.4714   0.0351     H
H       0.4401   0.9714   0.4649     H
H       0.4525   0.4634    0.458     H
H       0.4525   0.9634    0.042     H
H       0.4704   0.2101   0.7467     H
H       0.4704   0.7101   0.7533     H
Zn     0.47547  0.26923  0.07625    Zn
Zn     0.47547  0.76923  0.42375    Zn
Zn     0.47972  0.25274   0.9609    Zn
Zn     0.47972  0.75274   0.5391    Zn
H       0.4819    0.152   0.1093     H
H       0.4819    0.652   0.3907     H
H       0.4994   0.3071   0.8708     H
H       0.4994   0.8071   0.6292     H
H       0.5006   0.1929   0.3708     H
H       0.5006   0.6929   0.1292     H
H       0.5181    0.348   0.6093     H
H       0.5181    0.848   0.8907     H
Zn     0.52028  0.24726   0.4609    Zn
Zn     0.52028  0.74726   0.0391    Zn
Zn     0.52453  0.23077  0.57625    Zn
Zn     0.52453  0.73077  0.92375    Zn
H       0.5296   0.2899   0.2467     H
H       0.5296   0.7899   0.2533     H
H       0.5475   0.0366    0.958     H
H       0.5475   0.5366    0.542     H
H       0.5599   0.0286   0.5351     H
H       0.5599   0.5286   0.9649     H
C       0.5614   0.1114    0.554     C
C       0.5614   0.6114    0.946     C
H       0.5731   0.3835   0.0397     H
H       0.5731   0.8835   0.4603     H
O       0.5877    0.226  0.66504     O
O       0.5877    0.726  0.83496     O
O       0.5928   0.1431  0.96815     O
O       0.5928   0.6431  0.53185     O
C       0.6008   0.3614   0.4578     C
C       0.6008   0.8614   0.0422     C
C       0.6046    0.468   0.4524     C
C       0.6046    0.968   0.0476     C
C       0.6064   0.2654   0.1611     C
C       0.6064   0.7654   0.3389     C
O       0.6171   0.2715    0.018     O
O       0.6171   0.7715    0.482     O
C       0.6245   0.2866    0.869     C
C       0.6245   0.7866    0.631     C
H       0.6279   0.0547   0.0525     H
H       0.6279   0.5547   0.4475     H
C       0.6412   0.0592   0.5508     C
C       0.6412   0.5592   0.9492     C
C       0.6532   0.3522   0.5937     C
C       0.6532   0.8522   0.9063     C
H        0.654   0.0772   0.4171     H
H        0.654   0.5772   0.0829     H
N       0.6647   0.1558  0.57642     N
N       0.6647   0.6558  0.92358     N
C       0.6671    0.275   0.2451     C
C       0.6671    0.775   0.2549     C
O       0.6716  0.17987  0.44333     O
O       0.6716  0.67987  0.05667     O
H       0.6804   0.3059   0.8026     H
H       0.6804   0.8059   0.6974     H
N       0.6853   0.2596  0.90632     N
N       0.6853   0.7596  0.59368     N
O       0.6994   0.2604   0.1228     O
O       0.6994   0.7604   0.3772     O
H       0.7039   0.4381   0.6049     H
H       0.7039   0.9381   0.8951     H
C       0.7077    0.022   0.0539     C
C       0.7077    0.522   0.4461     C
O       0.7136  0.31855  0.45188     O
O       0.7136  0.81855  0.04812     O
C        0.718   0.4205   0.4507     C
C        0.718   0.9205   0.0493     C
H        0.723    0.284    0.022     H
H        0.723    0.784    0.478     H
N       0.7255   0.3052  0.57576     N
N       0.7255   0.8052  0.92424     N
C       0.7321   0.2865   0.8282     C
C       0.7321   0.7865   0.6718     C
C       0.7426     0.26   0.2024     C
C       0.7426     0.76   0.2976     C
C       0.7617   0.4061    0.591     C
C       0.7617   0.9061    0.909     C
N       0.7746   0.2699   0.2831     N
N       0.7746   0.7699   0.2169     N
H       0.7767   0.3718   0.9771     H
H       0.7767   0.8718   0.5229     H
H       0.7851   0.4888   0.0984     H
H       0.7851   0.9888   0.4016     H
C       0.7945   0.0697   0.4272     C
C       0.7945   0.5697   0.0728     C
N       0.7955   0.4523  0.95606     N
N       0.7955   0.9523  0.54394     N
H        0.808   0.2827     0.74     H
H        0.808   0.7827     0.76     H
H       0.8302   0.1325    0.034     H
H       0.8302   0.6325    0.466     H
C        0.839     0.05   0.5701     C
C        0.839     0.55   0.9299     C
C       0.8437   0.1681   0.4635     C
C       0.8437   0.6681   0.0365     C
C       0.8537   0.1474   0.5956     C
C       0.8537   0.6474   0.9044     C
C       0.8699   0.2333  0.90415     C
C       0.8699   0.7333  0.59585     C
C       0.8705   0.0174   0.4185     C
C       0.8705   0.4013    0.963     C
C       0.8705   0.5174   0.0815     C
C       0.8705   0.9013    0.537     C
H       0.8778   0.2859   0.3647     H
H       0.8778   0.7859   0.1353     H
C        0.916   0.3124   0.5538     C
C        0.916   0.8124   0.9462     C
H       0.9169   0.4078   0.1072     H
H       0.9169   0.9078   0.3928     H
H       0.9184    0.215   0.9306     H
H       0.9184    0.715   0.5694     H
C       0.9201   0.2572   0.8248     C
C       0.9201   0.7572   0.6752     C
C       0.9228   0.0285    0.062     C
C       0.9228   0.5285    0.438     C
C       0.9231   0.1113  0.45071     C
C       0.9231   0.6113  0.04929     C
C       0.9269    0.493   0.9347     C
C       0.9269    0.993   0.5653     C
H       0.9288   0.1784   0.6119     H
H       0.9288   0.6784   0.8881     H
C       0.9343   0.4301    0.441     C
C       0.9343   0.9301    0.059     C
C       0.9427   0.2393   0.2009     C
C       0.9427   0.7393   0.2991     C
O        0.945  0.19889  0.49212     O
O        0.945  0.69889  0.00788     O
C       0.9451   0.2675   0.7405     C
C       0.9451   0.7675   0.7595     C
C       0.9467   0.0959   0.5932     C
C       0.9467   0.5959   0.9068     C
C        0.959   0.4133   0.5676     C
C        0.959   0.9133   0.9324     C
N       0.9625   0.0176   0.9339     N
N       0.9625   0.5176   0.5661     N
C       0.9655   0.1353   0.0496     C
C       0.9655   0.6353   0.4504     C
C       0.9659   0.2479   0.2807     C
C       0.9659   0.7479   0.2193     C
H       0.9712   0.2796   0.5407     H
H       0.9712   0.7796   0.9593     H
H       0.9838   0.1022   0.9392     H
H       0.9838   0.6022   0.5608     H
C       0.9908    0.232   0.8648     C
C       0.9908    0.732   0.6352     C
H       0.9965   0.2702   0.6726     H
H       0.9965   0.7702   0.8274     H
