data_I
_chemical_name_common  '/home/zhangsd/repos/MofS-CGCNN/ML/data/TSD/clean_cifs/GALJAG_clean'
_cell_length_a 12.25100
_cell_length_b 18.63100
_cell_length_c 20.97600
_cell_angle_alpha 90.00000
_cell_angle_beta  90.00000
_cell_angle_gamma 90.00000
_space_group_name_H-M_alt      'P 1'


loop_
_space_group_symop_operation_xyz
  'x, y, z' 

loop_
_atom_site_label
_atom_site_fract_x
_atom_site_fract_y
_atom_site_fract_z
_atom_site_type_symbol
C       0.0034    0.137   0.7675     C
C       0.0034    0.363   0.7325     C
C       0.0161   0.2233   0.8524     C
C       0.0161   0.2767   0.6476     C
H       0.0197   0.0871   0.5265     H
H       0.0197   0.4129   0.9735     H
C       0.0225   0.6255   0.0403     C
C       0.0225   0.8745   0.4597     C
C       0.0228   0.1716   0.5839     C
C       0.0228   0.3284   0.9161     C
C       0.0343   0.7265    0.102     C
C       0.0343   0.7735    0.398     C
H       0.0386   0.6105   0.2391     H
H       0.0386   0.8895   0.2609     H
C        0.047   0.6836   0.3098     C
C        0.047   0.8164   0.1902     C
H       0.0925   0.1637      0.6     H
H       0.0925   0.3363      0.9     H
O        0.106   0.0422   0.6856     O
O        0.106   0.4578   0.8144     O
O       0.1128  0.54705   0.9326     O
O       0.1128  0.95295   0.5674     O
C       0.1146   0.1297   0.7674     C
C       0.1146   0.3703   0.7326     C
H       0.1226   0.6884   0.3098     H
H       0.1226   0.8116   0.1902     H
C       0.1289   0.6323   0.0151     C
C       0.1289   0.8677   0.4849     C
C       0.1298   0.2143   0.8524     C
C       0.1298   0.2857   0.6476     C
C       0.1407   0.7336   0.0764     C
C       0.1407   0.7664   0.4236     C
C       0.1652   0.0807   0.7192     C
C       0.1652   0.4193   0.7808     C
H       0.1726   0.2389   0.8818     H
H       0.1726   0.2611   0.6182     H
C       0.1761   0.5845   0.9656     C
C       0.1761   0.9155   0.5344     C
C       0.1775    0.169   0.8089     C
C       0.1775    0.331   0.6911     C
H       0.1817   0.7269    0.411     H
H       0.1817   0.7731    0.089     H
C       0.1879   0.6865   0.0344     C
C       0.1879   0.8135   0.4656     C
O       0.2225   0.0814   0.5441     O
O       0.2225   0.4186   0.9559     O
O       0.2335     0.58   0.7888     O
O       0.2335     0.92   0.7112     O
H       0.2409   0.1929   0.4798     H
H       0.2409   0.3071   0.0202     H
H       0.2468   0.6649   0.6926     H
H       0.2468   0.8351   0.8074     H
In        0.25      0.0   0.6266    In
In        0.25      0.5   0.8734    In
H       0.2532   0.1649   0.8074     H
H       0.2532   0.3351   0.6926     H
H       0.2591   0.6929   0.0202     H
H       0.2591   0.8071   0.4798     H
O       0.2665     0.08   0.7112     O
O       0.2665     0.42   0.7888     O
O       0.2775   0.5814   0.9559     O
O       0.2775   0.9186   0.5441     O
C       0.3121   0.1865   0.4656     C
C       0.3121   0.3135   0.0344     C
H       0.3183   0.2269    0.089     H
H       0.3183   0.2731    0.411     H
C       0.3225    0.669   0.6911     C
C       0.3225    0.831   0.8089     C
C       0.3239   0.0845   0.5344     C
C       0.3239   0.4155   0.9656     C
H       0.3274   0.7389   0.6182     H
H       0.3274   0.7611   0.8818     H
C       0.3348   0.5807   0.7808     C
C       0.3348   0.9193   0.7192     C
C       0.3593   0.2336   0.4236     C
C       0.3593   0.2664   0.0764     C
C       0.3702   0.7143   0.6476     C
C       0.3702   0.7857   0.8524     C
C       0.3711   0.1323   0.4849     C
C       0.3711   0.3677   0.0151     C
H       0.3774   0.1884   0.1902     H
H       0.3774   0.3116   0.3098     H
C       0.3854   0.6297   0.7326     C
C       0.3854   0.8703   0.7674     C
O       0.3872  0.04705   0.5674     O
O       0.3872  0.45295   0.9326     O
O        0.394   0.5422   0.8144     O
O        0.394   0.9578   0.6856     O
H       0.4075   0.6637      0.9     H
H       0.4075   0.8363      0.6     H
C        0.453   0.1836   0.1902     C
C        0.453   0.3164   0.3098     C
H       0.4614   0.1105   0.2609     H
H       0.4614   0.3895   0.2391     H
C       0.4657   0.2265    0.398     C
C       0.4657   0.2735    0.102     C
C       0.4772   0.6716   0.9161     C
C       0.4772   0.8284   0.5839     C
C       0.4775   0.1255   0.4597     C
C       0.4775   0.3745   0.0403     C
H       0.4803   0.5871   0.9735     H
H       0.4803   0.9129   0.5265     H
C       0.4839   0.7233   0.6476     C
C       0.4839   0.7767   0.8524     C
C       0.4966    0.637   0.7325     C
C       0.4966    0.863   0.7675     C
C       0.5034    0.137   0.2325     C
C       0.5034    0.363   0.2675     C
C       0.5161   0.2233   0.1476     C
C       0.5161   0.2767   0.3524     C
H       0.5197   0.0871   0.4735     H
H       0.5197   0.4129   0.0265     H
C       0.5225   0.6255   0.9597     C
C       0.5225   0.8745   0.5403     C
C       0.5228   0.1716   0.4161     C
C       0.5228   0.3284   0.0839     C
C       0.5343   0.7265    0.898     C
C       0.5343   0.7735    0.602     C
H       0.5386   0.6105   0.7609     H
H       0.5386   0.8895   0.7391     H
C        0.547   0.6836   0.6902     C
C        0.547   0.8164   0.8098     C
H       0.5925   0.1637      0.4     H
H       0.5925   0.3363      0.1     H
O        0.606   0.0422   0.3144     O
O        0.606   0.4578   0.1856     O
O       0.6128  0.54705   0.0674     O
O       0.6128  0.95295   0.4326     O
C       0.6146   0.1297   0.2326     C
C       0.6146   0.3703   0.2674     C
H       0.6226   0.6884   0.6902     H
H       0.6226   0.8116   0.8098     H
C       0.6289   0.6323   0.9849     C
C       0.6289   0.8677   0.5151     C
C       0.6298   0.2143   0.1476     C
C       0.6298   0.2857   0.3524     C
C       0.6407   0.7336   0.9236     C
C       0.6407   0.7664   0.5764     C
C       0.6652   0.0807   0.2808     C
C       0.6652   0.4193   0.2192     C
H       0.6726   0.2389   0.1182     H
H       0.6726   0.2611   0.3818     H
C       0.6761   0.5845   0.0344     C
C       0.6761   0.9155   0.4656     C
C       0.6775    0.169   0.1911     C
C       0.6775    0.331   0.3089     C
H       0.6817   0.7269    0.589     H
H       0.6817   0.7731    0.911     H
C       0.6879   0.6865   0.9656     C
C       0.6879   0.8135   0.5344     C
O       0.7225   0.0814   0.4559     O
O       0.7225   0.4186   0.0441     O
O       0.7335     0.58   0.2112     O
O       0.7335     0.92   0.2888     O
H       0.7409   0.1929   0.5202     H
H       0.7409   0.3071   0.9798     H
H       0.7468   0.6649   0.3074     H
H       0.7468   0.8351   0.1926     H
In        0.75      0.0   0.3734    In
In        0.75      0.5   0.1266    In
H       0.7532   0.1649   0.1926     H
H       0.7532   0.3351   0.3074     H
H       0.7591   0.6929   0.9798     H
H       0.7591   0.8071   0.5202     H
O       0.7665     0.08   0.2888     O
O       0.7665     0.42   0.2112     O
O       0.7775   0.5814   0.0441     O
O       0.7775   0.9186   0.4559     O
C       0.8121   0.1865   0.5344     C
C       0.8121   0.3135   0.9656     C
H       0.8183   0.2269    0.911     H
H       0.8183   0.2731    0.589     H
C       0.8225    0.669   0.3089     C
C       0.8225    0.831   0.1911     C
C       0.8239   0.0845   0.4656     C
C       0.8239   0.4155   0.0344     C
H       0.8274   0.7389   0.3818     H
H       0.8274   0.7611   0.1182     H
C       0.8348   0.5807   0.2192     C
C       0.8348   0.9193   0.2808     C
C       0.8593   0.2336   0.5764     C
C       0.8593   0.2664   0.9236     C
C       0.8702   0.7143   0.3524     C
C       0.8702   0.7857   0.1476     C
C       0.8711   0.1323   0.5151     C
C       0.8711   0.3677   0.9849     C
H       0.8774   0.1884   0.8098     H
H       0.8774   0.3116   0.6902     H
C       0.8854   0.6297   0.2674     C
C       0.8854   0.8703   0.2326     C
O       0.8872  0.04705   0.4326     O
O       0.8872  0.45295   0.0674     O
O        0.894   0.5422   0.1856     O
O        0.894   0.9578   0.3144     O
H       0.9075   0.6637      0.1     H
H       0.9075   0.8363      0.4     H
C        0.953   0.1836   0.8098     C
C        0.953   0.3164   0.6902     C
H       0.9614   0.1105   0.7391     H
H       0.9614   0.3895   0.7609     H
C       0.9657   0.2265    0.602     C
C       0.9657   0.2735    0.898     C
C       0.9772   0.6716   0.0839     C
C       0.9772   0.8284   0.4161     C
C       0.9775   0.1255   0.5403     C
C       0.9775   0.3745   0.9597     C
H       0.9803   0.5871   0.0265     H
H       0.9803   0.9129   0.4735     H
C       0.9839   0.7233   0.3524     C
C       0.9839   0.7767   0.1476     C
C       0.9966    0.637   0.2675     C
C       0.9966    0.863   0.2325     C
