data_I
_chemical_name_common  '/home/zhangsd/repos/MofS-CGCNN/ML/data/TSD/clean_cifs/GAQYIH_clean'
_cell_length_a 34.60660
_cell_length_b 34.60660
_cell_length_c 34.60660
_cell_angle_alpha 60.00000
_cell_angle_beta  60.00000
_cell_angle_gamma 60.00000
_space_group_name_H-M_alt      'P 1'


loop_
_space_group_symop_operation_xyz
  'x, y, z' 

loop_
_atom_site_label
_atom_site_fract_x
_atom_site_fract_y
_atom_site_fract_z
_atom_site_type_symbol
Cd         0.0      0.0  0.68964    Cd
Cd         0.0  0.31036      0.0    Cd
Cd         0.0  0.31036  0.68964    Cd
Cd         0.0  0.68964      0.0    Cd
Cd         0.0      1.0  0.31036    Cd
H       0.0619   0.0769   0.2275     H
H       0.0619   0.0769   0.6337     H
H       0.0619   0.2275   0.0769     H
H       0.0619   0.2275   0.6337     H
H       0.0619   0.6337   0.0769     H
H       0.0619   0.6337   0.2275     H
H       0.0702    0.047   0.2002     H
H       0.0702    0.047   0.6826     H
H       0.0702   0.2002    0.047     H
H       0.0702   0.2002   0.6826     H
H       0.0702   0.6826    0.047     H
H       0.0702   0.6826   0.2002     H
N      0.07946  0.00516  0.26548     N
N      0.07946  0.00516   0.6499     N
N      0.07946  0.26548  0.00516     N
N      0.07946  0.26548   0.6499     N
N      0.07946   0.6499  0.00516     N
N      0.07946   0.6499  0.26548     N
C      0.08192  0.04808  0.21972     C
C      0.08192  0.04808  0.65028     C
C      0.08192  0.21972  0.04808     C
C      0.08192  0.21972  0.65028     C
C      0.08192  0.65028  0.04808     C
C      0.08192  0.65028  0.21972     C
H       0.0823   0.0293   0.3061     H
H       0.0823   0.0293   0.5823     H
H       0.0823   0.3061   0.0293     H
H       0.0823   0.3061   0.5823     H
H       0.0823   0.5823   0.0293     H
H       0.0823   0.5823   0.3061     H
H       0.0953   0.2299   0.7115     H
H       0.0953   0.2299   0.9633     H
H       0.0953   0.7115   0.2299     H
H       0.0953   0.7115   0.9633     H
H       0.0953   0.9633   0.2299     H
H       0.0953   0.9633   0.7115     H
C      0.10143  0.00309  0.29405     C
C      0.10143  0.00309  0.60143     C
C      0.10143  0.29405  0.00309     C
C      0.10143  0.29405  0.60143     C
C      0.10143  0.60143  0.00309     C
C      0.10143  0.60143  0.29405     C
H       0.1026   0.3208   0.6026     H
H       0.1026   0.3208    0.974     H
H       0.1026   0.6026   0.3208     H
H       0.1026   0.6026    0.974     H
H       0.1026    0.974   0.3208     H
H       0.1026    0.974   0.6026     H
H        0.109    0.276   0.6812     H
H        0.109    0.276   0.9338     H
H        0.109   0.6812    0.276     H
H        0.109   0.6812   0.9338     H
H        0.109   0.9338    0.276     H
H        0.109   0.9338   0.6812     H
C      0.10928  0.24872   0.6796     C
C      0.10928  0.24872   0.9624     C
C      0.10928   0.6796  0.24872     C
C      0.10928   0.6796   0.9624     C
C      0.10928   0.9624  0.24872     C
C      0.10928   0.9624   0.6796     C
N      0.12862   0.0489  0.19386     N
N      0.12862   0.0489  0.62862     N
N      0.12862  0.19386   0.0489     N
N      0.12862  0.19386  0.62862     N
N      0.12862  0.62862   0.0489     N
N      0.12862  0.62862  0.19386     N
H       0.1337   0.0769   0.2275     H
H       0.1337   0.0769   0.5619     H
H       0.1337   0.2275   0.0769     H
H       0.1337   0.2275   0.5619     H
H       0.1337   0.5619   0.0769     H
H       0.1337   0.5619   0.2275     H
H       0.1449   0.0099   0.1547     H
H       0.1449   0.0099   0.6905     H
H       0.1449   0.1547   0.0099     H
H       0.1449   0.1547   0.6905     H
H       0.1449   0.6905   0.0099     H
H       0.1449   0.6905   0.1547     H
N       0.1499  0.00516  0.26548     N
N       0.1499  0.00516  0.57946     N
N       0.1499  0.26548  0.00516     N
N       0.1499  0.26548  0.57946     N
N       0.1499  0.57946  0.00516     N
N       0.1499  0.57946  0.26548     N
C      0.15028  0.04808  0.21972     C
C      0.15028  0.04808  0.58192     C
C      0.15028  0.21972  0.04808     C
C      0.15028  0.21972  0.58192     C
C      0.15028  0.58192  0.04808     C
C      0.15028  0.58192  0.21972     C
C       0.1587   0.0087   0.1739     C
C       0.1587   0.0087   0.6587     C
C       0.1587   0.1739   0.0087     C
C       0.1587   0.1739   0.6587     C
C       0.1587   0.6587   0.0087     C
C       0.1587   0.6587   0.1739     C
N      0.15949  0.21977  0.65949     N
N      0.15949  0.21977  0.96125     N
N      0.15949  0.65949  0.21977     N
N      0.15949  0.65949  0.96125     N
N      0.15949  0.96125  0.21977     N
N      0.15949  0.96125  0.65949     N
H       0.1792    0.026   0.3974     H
H       0.1792   0.3974    0.026     H
H       0.1792   0.3974   0.3974     H
C       0.1796  0.24872  0.60928     C
C       0.1796  0.24872   0.9624     C
C       0.1796  0.60928  0.24872     C
C       0.1796  0.60928   0.9624     C
C       0.1796   0.9624  0.24872     C
C       0.1796   0.9624  0.60928     C
H       0.1812    0.276    0.609     H
H       0.1812    0.276   0.9338     H
H       0.1812    0.609    0.276     H
H       0.1812    0.609   0.9338     H
H       0.1812   0.9338    0.276     H
H       0.1812   0.9338    0.609     H
H       0.1826    0.047   0.2002     H
H       0.1826    0.047   0.5702     H
H       0.1826   0.2002    0.047     H
H       0.1826   0.2002   0.5702     H
H       0.1826   0.5702    0.047     H
H       0.1826   0.5702   0.2002     H
Cd     0.18964     -0.0  0.31036    Cd
Cd     0.18964     -0.0      0.5    Cd
Cd     0.18964  0.31036      0.0    Cd
Cd     0.18964  0.31036      0.5    Cd
Cd     0.18964      0.5      0.0    Cd
Cd     0.18964      0.5  0.31036    Cd
H       0.1905   0.0099   0.1547     H
H       0.1905   0.0099   0.6449     H
H       0.1905   0.1547   0.0099     H
H       0.1905   0.1547   0.6449     H
H       0.1905   0.6449   0.0099     H
H       0.1905   0.6449   0.1547     H
H       0.1939   0.4177   0.4177     H
H       0.1939   0.4177   0.9707     H
H       0.1939   0.9707   0.4177     H
H       0.1947   0.1771   0.8141     H
H       0.1947   0.8141   0.1771     H
H       0.1947   0.8141   0.8141     H
Cd      0.2056  0.19663   0.7056    Cd
Cd      0.2056  0.19663  0.89217    Cd
Cd      0.2056   0.7056  0.19663    Cd
Cd      0.2056   0.7056  0.89217    Cd
Cd      0.2056  0.89217  0.19663    Cd
Cd      0.2056  0.89217   0.7056    Cd
C      0.20595  0.39857  0.39857     C
C      0.20595  0.39857  0.99691     C
C      0.20595  0.99691  0.39857     C
H       0.2107   0.2223   0.7835     H
H       0.2107   0.7835   0.2223     H
H       0.2107   0.7835   0.7835     H
H       0.2115   0.2299   0.5953     H
H       0.2115   0.2299   0.9633     H
H       0.2115   0.5953   0.2299     H
H       0.2115   0.5953   0.9633     H
H       0.2115   0.9633   0.2299     H
H       0.2115   0.9633   0.5953     H
C      0.22188  0.18792   0.7951     C
C      0.22188   0.7951  0.18792     C
C      0.22188   0.7951   0.7951     C
H        0.224   0.0662   0.3188     H
H        0.224   0.0662    0.391     H
H        0.224   0.3188   0.0662     H
H        0.224   0.3188    0.391     H
H        0.224    0.391   0.0662     H
H        0.224    0.391   0.3188     H
N      0.23452   0.3501  0.42054     N
N      0.23452   0.3501  0.99484     N
N      0.23452  0.42054   0.3501     N
N      0.23452  0.42054  0.99484     N
N      0.23452  0.99484   0.3501     N
N      0.23452  0.99484  0.42054     N
H       0.2457   0.1039   0.7913     H
H       0.2457   0.1039   0.8591     H
H       0.2457   0.7913   0.1039     H
H       0.2457   0.7913   0.8591     H
H       0.2457   0.8591   0.1039     H
H       0.2457   0.8591   0.7913     H
C      0.25128   0.0376   0.3204     C
C      0.25128   0.0376  0.39072     C
C      0.25128   0.3204   0.0376     C
C      0.25128   0.3204  0.39072     C
C      0.25128  0.39072   0.0376     C
C      0.25128  0.39072   0.3204     C
N      0.25355  0.16853  0.75355     N
N      0.25355  0.16853  0.82437     N
N      0.25355  0.75355  0.16853     N
N      0.25355  0.75355  0.82437     N
N      0.25355  0.82437  0.16853     N
N      0.25355  0.82437  0.75355     N
H       0.2701   0.0367   0.2885     H
H       0.2701   0.0367   0.4047     H
H       0.2701   0.2885   0.0367     H
H       0.2701   0.2885   0.4047     H
H       0.2701   0.4047   0.0367     H
H       0.2701   0.4047   0.2885     H
C       0.2719   0.1161   0.7719     C
C       0.2719   0.1161   0.8401     C
C       0.2719   0.7719   0.1161     C
C       0.2719   0.7719   0.8401     C
C       0.2719   0.8401   0.1161     C
C       0.2719   0.8401   0.7719     C
H       0.2725   0.3663   0.4381     H
H       0.2725   0.3663   0.9231     H
H       0.2725   0.4381   0.3663     H
H       0.2725   0.4381   0.9231     H
H       0.2725   0.9231   0.3663     H
H       0.2725   0.9231   0.4381     H
H       0.2777   0.2165   0.2165     H
H       0.2777   0.2165   0.2893     H
H       0.2777   0.2893   0.2165     H
N      0.28023  0.03875  0.34051     N
N      0.28023  0.34051  0.03875     N
N      0.28023  0.34051  0.34051     N
C      0.28028  0.34972  0.41808     C
C      0.28028  0.34972  0.95192     C
C      0.28028  0.41808  0.34972     C
C      0.28028  0.41808  0.95192     C
C      0.28028  0.95192  0.34972     C
C      0.28028  0.95192  0.41808     C
H       0.2835   0.2223   0.7107     H
H       0.2835   0.2223   0.7835     H
H       0.2835   0.7107   0.2223     H
H       0.2835   0.7107   0.7835     H
H       0.2835   0.7835   0.2223     H
H       0.2835   0.7835   0.7107     H
H       0.2913   0.1039   0.7457     H
H       0.2913   0.1039   0.8591     H
H       0.2913   0.7457   0.1039     H
H       0.2913   0.7457   0.8591     H
H       0.2913   0.8591   0.1039     H
H       0.2913   0.8591   0.7457     H
C       0.2951  0.18792  0.72188     C
C       0.2951  0.18792   0.7951     C
C       0.2951  0.72188  0.18792     C
C       0.2951  0.72188   0.7951     C
C       0.2951   0.7951  0.18792     C
C       0.2951   0.7951  0.72188     C
N       0.2996   0.1012   0.7996     N
N       0.2996   0.7996   0.1012     N
N       0.2996   0.7996   0.7996     N
H       0.2998   0.3174   0.4298     H
H       0.2998   0.3174    0.953     H
H       0.2998   0.4298   0.3174     H
H       0.2998   0.4298    0.953     H
H       0.2998    0.953   0.3174     H
H       0.2998    0.953   0.4298     H
Cd     0.30337  0.10783   0.2944    Cd
Cd     0.30337   0.2944  0.10783    Cd
Cd     0.30337   0.2944   0.2944    Cd
N      0.30614  0.37138  0.37138     N
N      0.30614  0.37138   0.9511     N
N      0.30614   0.9511  0.37138     N
C      0.31208   0.2049   0.2049     C
C      0.31208   0.2049  0.27812     C
C      0.31208  0.27812   0.2049     C
H       0.3141   0.1771   0.6947     H
H       0.3141   0.1771   0.8141     H
H       0.3141   0.6947   0.1771     H
H       0.3141   0.6947   0.8141     H
H       0.3141   0.8141   0.1771     H
H       0.3141   0.8141   0.6947     H
H       0.3229   0.1859   0.1859     H
H       0.3229   0.1859   0.3053     H
H       0.3229   0.3053   0.1859     H
N      0.32437  0.16853  0.75355     N
N      0.32437  0.75355  0.16853     N
N      0.32437  0.75355  0.75355     N
C       0.3261   0.3413   0.3413     C
C       0.3261   0.3413   0.9913     C
C       0.3261   0.9913   0.3413     C
N      0.33147  0.17563  0.24645     N
N      0.33147  0.24645  0.17563     N
N      0.33147  0.24645  0.24645     N
C       0.3401   0.1161   0.7719     C
C       0.3401   0.7719   0.1161     C
C       0.3401   0.7719   0.7719     C
H       0.3453   0.3095   0.3551     H
H       0.3453   0.3095   0.9901     H
H       0.3453   0.3551   0.3095     H
H       0.3453   0.3551   0.9901     H
H       0.3453   0.9901   0.3095     H
H       0.3453   0.9901   0.3551     H
H       0.3591   0.1039   0.7457     H
H       0.3591   0.1039   0.7913     H
H       0.3591   0.7457   0.1039     H
H       0.3591   0.7457   0.7913     H
H       0.3591   0.7913   0.1039     H
H       0.3591   0.7913   0.7457     H
C       0.3839   0.1599   0.2281     C
C       0.3839   0.2281   0.1599     C
C       0.3839   0.2281   0.2281     C
Cd     0.39217  0.19663   0.7056    Cd
Cd     0.39217   0.7056  0.19663    Cd
Cd     0.39217   0.7056   0.7056    Cd
H       0.3961   0.1409   0.2087     H
H       0.3961   0.1409   0.2543     H
H       0.3961   0.2087   0.1409     H
H       0.3961   0.2087   0.2543     H
H       0.3961   0.2543   0.1409     H
H       0.3961   0.2543   0.2087     H
N       0.3988   0.2004   0.2004     N
H       0.4231   0.3663   0.4381     H
H       0.4231   0.3663   0.7725     H
H       0.4231   0.4381   0.3663     H
H       0.4231   0.4381   0.7725     H
H       0.4231   0.7725   0.3663     H
H       0.4231   0.7725   0.4381     H
H       0.4338    0.276    0.609     H
H       0.4338    0.276   0.6812     H
H       0.4338    0.609    0.276     H
H       0.4338    0.609   0.6812     H
H       0.4338   0.6812    0.276     H
H       0.4338   0.6812    0.609     H
N       0.4511  0.37138  0.37138     N
N       0.4511  0.37138  0.80614     N
N       0.4511  0.80614  0.37138     N
C      0.45192  0.34972  0.41808     C
C      0.45192  0.34972  0.78028     C
C      0.45192  0.41808  0.34972     C
C      0.45192  0.41808  0.78028     C
C      0.45192  0.78028  0.34972     C
C      0.45192  0.78028  0.41808     C
H        0.453   0.3174   0.4298     H
H        0.453   0.3174   0.7998     H
H        0.453   0.4298   0.3174     H
H        0.453   0.4298   0.7998     H
H        0.453   0.7998   0.3174     H
H        0.453   0.7998   0.4298     H
N      0.46125  0.21977  0.65949     N
N      0.46125  0.65949  0.21977     N
N      0.46125  0.65949  0.65949     N
C       0.4624  0.24872  0.60928     C
C       0.4624  0.24872   0.6796     C
C       0.4624  0.60928  0.24872     C
C       0.4624  0.60928   0.6796     C
C       0.4624   0.6796  0.24872     C
C       0.4624   0.6796  0.60928     C
H       0.4633   0.2299   0.5953     H
H       0.4633   0.2299   0.7115     H
H       0.4633   0.5953   0.2299     H
H       0.4633   0.5953   0.7115     H
H       0.4633   0.7115   0.2299     H
H       0.4633   0.7115   0.5953     H
H       0.4707   0.4177   0.4177     H
H       0.4707   0.4177   0.6939     H
H       0.4707   0.6939   0.4177     H
H        0.474   0.3208   0.6026     H
H        0.474   0.6026   0.3208     H
H        0.474   0.6026   0.6026     H
H       0.4901   0.3095   0.3551     H
H       0.4901   0.3095   0.8453     H
H       0.4901   0.3551   0.3095     H
H       0.4901   0.3551   0.8453     H
H       0.4901   0.8453   0.3095     H
H       0.4901   0.8453   0.3551     H
C       0.4913   0.3413   0.3413     C
C       0.4913   0.3413   0.8261     C
C       0.4913   0.8261   0.3413     C
N      0.49484   0.3501  0.42054     N
N      0.49484   0.3501  0.73452     N
N      0.49484  0.42054   0.3501     N
N      0.49484  0.42054  0.73452     N
N      0.49484  0.73452   0.3501     N
N      0.49484  0.73452  0.42054     N
C      0.49691  0.39857  0.39857     C
C      0.49691  0.39857  0.70595     C
C      0.49691  0.70595  0.39857     C
Cd         0.5  0.31036      0.5    Cd
Cd         0.5  0.31036  0.68964    Cd
Cd         0.5      0.5  0.31036    Cd
Cd         0.5      0.5  0.68964    Cd
Cd         0.5  0.68964  0.31036    Cd
Cd         0.5  0.68964      0.5    Cd
C      0.50309  0.29405  0.60143     C
C      0.50309  0.60143  0.29405     C
C      0.50309  0.60143  0.60143     C
N      0.50516  0.26548  0.57946     N
N      0.50516  0.26548   0.6499     N
N      0.50516  0.57946  0.26548     N
N      0.50516  0.57946   0.6499     N
N      0.50516   0.6499  0.26548     N
N      0.50516   0.6499  0.57946     N
C       0.5087   0.1739   0.6587     C
C       0.5087   0.6587   0.1739     C
C       0.5087   0.6587   0.6587     C
H       0.5099   0.1547   0.6449     H
H       0.5099   0.1547   0.6905     H
H       0.5099   0.6449   0.1547     H
H       0.5099   0.6449   0.6905     H
H       0.5099   0.6905   0.1547     H
H       0.5099   0.6905   0.6449     H
H        0.526   0.3974   0.3974     H
H        0.526   0.3974   0.6792     H
H        0.526   0.6792   0.3974     H
H       0.5293   0.3061   0.5823     H
H       0.5293   0.5823   0.3061     H
H       0.5293   0.5823   0.5823     H
H       0.5367   0.2885   0.4047     H
H       0.5367   0.2885   0.7701     H
H       0.5367   0.4047   0.2885     H
H       0.5367   0.4047   0.7701     H
H       0.5367   0.7701   0.2885     H
H       0.5367   0.7701   0.4047     H
C       0.5376   0.3204  0.39072     C
C       0.5376   0.3204  0.75128     C
C       0.5376  0.39072   0.3204     C
C       0.5376  0.39072  0.75128     C
C       0.5376  0.75128   0.3204     C
C       0.5376  0.75128  0.39072     C
N      0.53875  0.34051  0.34051     N
N      0.53875  0.34051  0.78023     N
N      0.53875  0.78023  0.34051     N
H        0.547   0.2002   0.5702     H
H        0.547   0.2002   0.6826     H
H        0.547   0.5702   0.2002     H
H        0.547   0.5702   0.6826     H
H        0.547   0.6826   0.2002     H
H        0.547   0.6826   0.5702     H
C      0.54808  0.21972  0.58192     C
C      0.54808  0.21972  0.65028     C
C      0.54808  0.58192  0.21972     C
C      0.54808  0.58192  0.65028     C
C      0.54808  0.65028  0.21972     C
C      0.54808  0.65028  0.58192     C
N       0.5489  0.19386  0.62862     N
N       0.5489  0.62862  0.19386     N
N       0.5489  0.62862  0.62862     N
H       0.5662   0.3188    0.391     H
H       0.5662   0.3188    0.724     H
H       0.5662    0.391   0.3188     H
H       0.5662    0.391    0.724     H
H       0.5662    0.724   0.3188     H
H       0.5662    0.724    0.391     H
H       0.5769   0.2275   0.5619     H
H       0.5769   0.2275   0.6337     H
H       0.5769   0.5619   0.2275     H
H       0.5769   0.5619   0.6337     H
H       0.5769   0.6337   0.2275     H
H       0.5769   0.6337   0.5619     H
N       0.6012   0.7996   0.7996     N
H       0.6039   0.7457   0.7913     H
H       0.6039   0.7457   0.8591     H
H       0.6039   0.7913   0.7457     H
H       0.6039   0.7913   0.8591     H
H       0.6039   0.8591   0.7457     H
H       0.6039   0.8591   0.7913     H
Cd     0.60783   0.2944   0.2944    Cd
Cd     0.60783   0.2944  0.80337    Cd
Cd     0.60783  0.80337   0.2944    Cd
C       0.6161   0.7719   0.7719     C
C       0.6161   0.7719   0.8401     C
C       0.6161   0.8401   0.7719     C
H       0.6409   0.2087   0.2543     H
H       0.6409   0.2087   0.8961     H
H       0.6409   0.2543   0.2087     H
H       0.6409   0.2543   0.8961     H
H       0.6409   0.8961   0.2087     H
H       0.6409   0.8961   0.2543     H
H       0.6547   0.0099   0.6449     H
H       0.6547   0.0099   0.6905     H
H       0.6547   0.6449   0.0099     H
H       0.6547   0.6449   0.6905     H
H       0.6547   0.6905   0.0099     H
H       0.6547   0.6905   0.6449     H
C       0.6599   0.2281   0.2281     C
C       0.6599   0.2281   0.8839     C
C       0.6599   0.8839   0.2281     C
N      0.66853  0.75355  0.75355     N
N      0.66853  0.75355  0.82437     N
N      0.66853  0.82437  0.75355     N
C       0.6739   0.0087   0.6587     C
C       0.6739   0.6587   0.0087     C
C       0.6739   0.6587   0.6587     C
N      0.67563  0.24645  0.24645     N
N      0.67563  0.24645  0.83147     N
N      0.67563  0.83147  0.24645     N
H       0.6771   0.6947   0.8141     H
H       0.6771   0.8141   0.6947     H
H       0.6771   0.8141   0.8141     H
H       0.6859   0.1859   0.3053     H
H       0.6859   0.1859   0.8229     H
H       0.6859   0.3053   0.1859     H
H       0.6859   0.3053   0.8229     H
H       0.6859   0.8229   0.1859     H
H       0.6859   0.8229   0.3053     H
C      0.68792  0.72188   0.7951     C
C      0.68792   0.7951  0.72188     C
C      0.68792   0.7951   0.7951     C
N      0.69386   0.0489  0.62862     N
N      0.69386  0.62862   0.0489     N
N      0.69386  0.62862  0.62862     N
Cd     0.69663   0.7056   0.7056    Cd
Cd     0.69663   0.7056  0.89217    Cd
Cd     0.69663  0.89217   0.7056    Cd
H       0.7002    0.047   0.5702     H
H       0.7002    0.047   0.6826     H
H       0.7002   0.5702    0.047     H
H       0.7002   0.5702   0.6826     H
H       0.7002   0.6826    0.047     H
H       0.7002   0.6826   0.5702     H
N       0.7004   0.2004   0.2004     N
N       0.7004   0.2004   0.8988     N
N       0.7004   0.8988   0.2004     N
C       0.7049   0.2049  0.27812     C
C       0.7049   0.2049  0.81208     C
C       0.7049  0.27812   0.2049     C
C       0.7049  0.27812  0.81208     C
C       0.7049  0.81208   0.2049     C
C       0.7049  0.81208  0.27812     C
H       0.7087   0.1409   0.2543     H
H       0.7087   0.1409   0.8961     H
H       0.7087   0.2543   0.1409     H
H       0.7087   0.2543   0.8961     H
H       0.7087   0.8961   0.1409     H
H       0.7087   0.8961   0.2543     H
H       0.7165   0.2165   0.2893     H
H       0.7165   0.2165   0.7777     H
H       0.7165   0.2893   0.2165     H
H       0.7165   0.2893   0.7777     H
H       0.7165   0.7777   0.2165     H
H       0.7165   0.7777   0.2893     H
C      0.71972  0.04808  0.58192     C
C      0.71972  0.04808  0.65028     C
C      0.71972  0.58192  0.04808     C
C      0.71972  0.58192  0.65028     C
C      0.71972  0.65028  0.04808     C
C      0.71972  0.65028  0.58192     C
N      0.71977  0.65949  0.65949     N
N      0.71977  0.65949  0.96125     N
N      0.71977  0.96125  0.65949     N
H       0.7223   0.7107   0.7835     H
H       0.7223   0.7835   0.7107     H
H       0.7223   0.7835   0.7835     H
H       0.7275   0.0769   0.5619     H
H       0.7275   0.0769   0.6337     H
H       0.7275   0.5619   0.0769     H
H       0.7275   0.5619   0.6337     H
H       0.7275   0.6337   0.0769     H
H       0.7275   0.6337   0.5619     H
C       0.7281   0.1599   0.2281     C
C       0.7281   0.1599   0.8839     C
C       0.7281   0.2281   0.1599     C
C       0.7281   0.2281   0.8839     C
C       0.7281   0.8839   0.1599     C
C       0.7281   0.8839   0.2281     C
H       0.7299   0.5953   0.7115     H
H       0.7299   0.5953   0.9633     H
H       0.7299   0.7115   0.5953     H
H       0.7299   0.7115   0.9633     H
H       0.7299   0.9633   0.5953     H
H       0.7299   0.9633   0.7115     H
N      0.74645  0.17563  0.24645     N
N      0.74645  0.17563  0.83147     N
N      0.74645  0.24645  0.17563     N
N      0.74645  0.24645  0.83147     N
N      0.74645  0.83147  0.17563     N
N      0.74645  0.83147  0.24645     N
C      0.74872  0.60928   0.6796     C
C      0.74872  0.60928   0.9624     C
C      0.74872   0.6796  0.60928     C
C      0.74872   0.6796   0.9624     C
C      0.74872   0.9624  0.60928     C
C      0.74872   0.9624   0.6796     C
H       0.7543   0.1409   0.2087     H
H       0.7543   0.1409   0.8961     H
H       0.7543   0.2087   0.1409     H
H       0.7543   0.2087   0.8961     H
H       0.7543   0.8961   0.1409     H
H       0.7543   0.8961   0.2087     H
N      0.76548  0.00516  0.57946     N
N      0.76548  0.00516   0.6499     N
N      0.76548  0.57946  0.00516     N
N      0.76548  0.57946   0.6499     N
N      0.76548   0.6499  0.00516     N
N      0.76548   0.6499  0.57946     N
H        0.776    0.609   0.6812     H
H        0.776    0.609   0.9338     H
H        0.776   0.6812    0.609     H
H        0.776   0.6812   0.9338     H
H        0.776   0.9338    0.609     H
H        0.776   0.9338   0.6812     H
C      0.77812   0.2049   0.2049     C
C      0.77812   0.2049  0.81208     C
C      0.77812  0.81208   0.2049     C
H       0.7885   0.0367   0.4047     H
H       0.7885   0.0367   0.7701     H
H       0.7885   0.4047   0.0367     H
H       0.7885   0.4047   0.7701     H
H       0.7885   0.7701   0.0367     H
H       0.7885   0.7701   0.4047     H
H       0.7893   0.2165   0.2165     H
H       0.7893   0.2165   0.7777     H
H       0.7893   0.7777   0.2165     H
C      0.79405  0.00309  0.60143     C
C      0.79405  0.60143  0.00309     C
C      0.79405  0.60143  0.60143     C
Cd      0.7944  0.10783   0.2944    Cd
Cd      0.7944  0.10783  0.80337    Cd
Cd      0.7944   0.2944  0.10783    Cd
Cd      0.7944   0.2944  0.80337    Cd
Cd      0.7944  0.80337  0.10783    Cd
Cd      0.7944  0.80337   0.2944    Cd
H       0.8053   0.1859   0.1859     H
H       0.8053   0.1859   0.8229     H
H       0.8053   0.8229   0.1859     H
H       0.8061   0.0293   0.5823     H
H       0.8061   0.5823   0.0293     H
H       0.8061   0.5823   0.5823     H
H       0.8095   0.3551   0.8453     H
H       0.8095   0.3551   0.9901     H
H       0.8095   0.8453   0.3551     H
H       0.8095   0.8453   0.9901     H
H       0.8095   0.9901   0.3551     H
H       0.8095   0.9901   0.8453     H
Cd     0.81036     -0.0      0.5    Cd
Cd     0.81036     -0.0  0.68964    Cd
Cd     0.81036      0.5      0.0    Cd
Cd     0.81036      0.5  0.68964    Cd
Cd     0.81036  0.68964      0.0    Cd
Cd     0.81036  0.68964      0.5    Cd
H       0.8174   0.4298   0.7998     H
H       0.8174   0.4298    0.953     H
H       0.8174   0.7998   0.4298     H
H       0.8174   0.7998    0.953     H
H       0.8174    0.953   0.4298     H
H       0.8174    0.953   0.7998     H
H       0.8188   0.0662    0.391     H
H       0.8188   0.0662    0.724     H
H       0.8188    0.391   0.0662     H
H       0.8188    0.391    0.724     H
H       0.8188    0.724   0.0662     H
H       0.8188    0.724    0.391     H
C       0.8204   0.0376  0.39072     C
C       0.8204   0.0376  0.75128     C
C       0.8204  0.39072   0.0376     C
C       0.8204  0.39072  0.75128     C
C       0.8204  0.75128   0.0376     C
C       0.8204  0.75128  0.39072     C
H       0.8208   0.6026   0.6026     H
H       0.8208   0.6026    0.974     H
H       0.8208    0.974   0.6026     H
N      0.84051  0.03875  0.34051     N
N      0.84051  0.03875  0.78023     N
N      0.84051  0.34051  0.03875     N
N      0.84051  0.34051  0.78023     N
N      0.84051  0.78023  0.03875     N
N      0.84051  0.78023  0.34051     N
C       0.8413   0.3413   0.8261     C
C       0.8413   0.3413   0.9913     C
C       0.8413   0.8261   0.3413     C
C       0.8413   0.8261   0.9913     C
C       0.8413   0.9913   0.3413     C
C       0.8413   0.9913   0.8261     C
C      0.84972  0.41808  0.78028     C
C      0.84972  0.41808  0.95192     C
C      0.84972  0.78028  0.41808     C
C      0.84972  0.78028  0.95192     C
C      0.84972  0.95192  0.41808     C
C      0.84972  0.95192  0.78028     C
N       0.8501  0.42054  0.73452     N
N       0.8501  0.42054  0.99484     N
N       0.8501  0.73452  0.42054     N
N       0.8501  0.73452  0.99484     N
N       0.8501  0.99484  0.42054     N
N       0.8501  0.99484  0.73452     N
H       0.8551   0.3095   0.8453     H
H       0.8551   0.3095   0.9901     H
H       0.8551   0.8453   0.3095     H
H       0.8551   0.8453   0.9901     H
H       0.8551   0.9901   0.3095     H
H       0.8551   0.9901   0.8453     H
H       0.8663   0.4381   0.7725     H
H       0.8663   0.4381   0.9231     H
H       0.8663   0.7725   0.4381     H
H       0.8663   0.7725   0.9231     H
H       0.8663   0.9231   0.4381     H
H       0.8663   0.9231   0.7725     H
N      0.87138  0.37138  0.80614     N
N      0.87138  0.37138   0.9511     N
N      0.87138  0.80614  0.37138     N
N      0.87138  0.80614   0.9511     N
N      0.87138   0.9511  0.37138     N
N      0.87138   0.9511  0.80614     N
C      0.89072   0.0376   0.3204     C
C      0.89072   0.0376  0.75128     C
C      0.89072   0.3204   0.0376     C
C      0.89072   0.3204  0.75128     C
C      0.89072  0.75128   0.0376     C
C      0.89072  0.75128   0.3204     C
H        0.891   0.0662   0.3188     H
H        0.891   0.0662    0.724     H
H        0.891   0.3188   0.0662     H
H        0.891   0.3188    0.724     H
H        0.891    0.724   0.0662     H
H        0.891    0.724   0.3188     H
H       0.8974    0.026   0.3974     H
H       0.8974    0.026   0.6792     H
H       0.8974   0.3974    0.026     H
H       0.8974   0.3974   0.6792     H
H       0.8974   0.6792    0.026     H
H       0.8974   0.6792   0.3974     H
C      0.89857  0.39857  0.70595     C
C      0.89857  0.39857  0.99691     C
C      0.89857  0.70595  0.39857     C
C      0.89857  0.70595  0.99691     C
C      0.89857  0.99691  0.39857     C
C      0.89857  0.99691  0.70595     C
H       0.9047   0.0367   0.2885     H
H       0.9047   0.0367   0.7701     H
H       0.9047   0.2885   0.0367     H
H       0.9047   0.2885   0.7701     H
H       0.9047   0.7701   0.0367     H
H       0.9047   0.7701   0.2885     H
H       0.9177   0.4177   0.6939     H
H       0.9177   0.4177   0.9707     H
H       0.9177   0.6939   0.4177     H
H       0.9177   0.6939   0.9707     H
H       0.9177   0.9707   0.4177     H
H       0.9177   0.9707   0.6939     H
C      0.91808  0.34972  0.78028     C
C      0.91808  0.34972  0.95192     C
C      0.91808  0.78028  0.34972     C
C      0.91808  0.78028  0.95192     C
C      0.91808  0.95192  0.34972     C
C      0.91808  0.95192  0.78028     C
N      0.92054   0.3501  0.73452     N
N      0.92054   0.3501  0.99484     N
N      0.92054  0.73452   0.3501     N
N      0.92054  0.73452  0.99484     N
N      0.92054  0.99484   0.3501     N
N      0.92054  0.99484  0.73452     N
H       0.9298   0.3174   0.7998     H
H       0.9298   0.3174    0.953     H
H       0.9298   0.7998   0.3174     H
H       0.9298   0.7998    0.953     H
H       0.9298    0.953   0.3174     H
H       0.9298    0.953   0.7998     H
H       0.9381   0.3663   0.7725     H
H       0.9381   0.3663   0.9231     H
H       0.9381   0.7725   0.3663     H
H       0.9381   0.7725   0.9231     H
H       0.9381   0.9231   0.3663     H
H       0.9381   0.9231   0.7725     H
Cd         1.0  0.68964  0.31036    Cd
