data_I
_chemical_name_common  '/home/zhangsd/repos/MofS-CGCNN/ML/data/TSD/clean_cifs/GARLET_clean'
_cell_length_a 15.83700
_cell_length_b 10.56800
_cell_length_c 21.09900
_cell_angle_alpha 90.00000
_cell_angle_beta  107.09800
_cell_angle_gamma 90.00000
_space_group_name_H-M_alt      'P 1'


loop_
_space_group_symop_operation_xyz
  'x, y, z' 

loop_
_atom_site_label
_atom_site_fract_x
_atom_site_fract_y
_atom_site_fract_z
_atom_site_type_symbol
H       0.0038   0.4337   0.4387     H
H       0.0038   0.5663   0.9387     H
C       0.0125   0.3608   0.4166     C
C       0.0125   0.6392   0.9166     C
C       0.0364    0.217   0.1729     C
C       0.0364    0.783   0.6729     C
C       0.0399   0.1455   0.3514     C
C       0.0399   0.8545   0.8514     C
H       0.0489   0.0734   0.3289     H
H       0.0489   0.9266   0.8289     H
C       0.0521   0.3232   0.1411     C
C       0.0521   0.6768   0.6411     C
H        0.078    0.192    0.212     H
H        0.078    0.808    0.712     H
C       0.0887   0.2919   0.4413     C
C       0.0887   0.7081   0.9413     C
H       0.0984   0.4538   0.2677     H
H       0.0984   0.5462   0.7677     H
C       0.1027   0.1827   0.4094     C
C       0.1027   0.8173   0.9094     C
H       0.1189   0.4893   0.1648     H
H       0.1189   0.5107   0.6648     H
H       0.1311   0.3186   0.4796     H
H       0.1311   0.6814   0.9796     H
H       0.1341   0.4159   0.8736     H
H       0.1341   0.5841   0.3736     H
C        0.135   0.4006   0.1661     C
C        0.135   0.5994   0.6661     C
C       0.1588   0.4248    0.286     C
C       0.1588   0.5752    0.786     C
H       0.1591     0.36   0.3187     H
H       0.1591     0.64   0.8187     H
H       0.1708   0.3891   0.1362     H
H       0.1708   0.6109   0.6362     H
C       0.1842    0.109   0.4371     C
C       0.1842    0.891   0.9371     C
C       0.1879   0.3964   0.8665     C
C       0.1879   0.6036   0.3665     C
N       0.1882    0.369   0.2332     N
N       0.1882    0.631   0.7332     N
O       0.1932   0.0115   0.4008     O
O       0.1932   0.9885   0.9008     O
C       0.2157   0.4643   0.8208     C
C       0.2157   0.5357   0.3208     C
H         0.22   0.2546   0.9336     H
H         0.22   0.7454   0.4336     H
H       0.2333   0.2156   0.1521     H
H       0.2333   0.7844   0.6521     H
O        0.238   0.1362   0.4893     O
O        0.238   0.8638   0.9893     O
C       0.2392    0.299   0.9024     C
C       0.2392    0.701   0.4024     C
C       0.2516   0.2738   0.2459     C
C       0.2516   0.7262   0.7459     C
C       0.2674    0.202   0.1956     C
C       0.2674    0.798   0.6956     C
H       0.2931   0.2968   0.3439     H
C       0.2931   0.4319   0.8092     C
C       0.2931   0.5681   0.3092     C
H       0.2931   0.7032   0.8439     H
C       0.3027   0.2499   0.3094     C
C       0.3027   0.7501   0.8094     C
O       0.3098    0.071    0.094     O
O       0.3098    0.929    0.594     O
H       0.3116    0.476   0.7774     H
H       0.3116    0.524   0.2774     H
C       0.3191   0.2679   0.8917     C
C       0.3191   0.7321   0.3917     C
C       0.3328   0.1104   0.2087     C
C       0.3328   0.8896   0.7087     C
O       0.3444   0.0873   0.9613     O
O       0.3444   0.9127   0.4613     O
C       0.3453   0.3332   0.8442     C
C       0.3453   0.6668   0.3442     C
C       0.3465   0.0341   0.1525     C
C       0.3465   0.9659   0.6525     C
C       0.3689   0.1572   0.3241     C
C       0.3689   0.8428   0.8241     C
C       0.3778   0.1689   0.9322     C
C       0.3778   0.8311   0.4322     C
C       0.3853   0.0883   0.2734     C
C       0.3853   0.9117   0.7734     C
O       0.3901   0.1727   0.4396     O
O       0.3901   0.8273   0.9396     O
O       0.3931   0.0644   0.6638     O
O       0.3931   0.9356   0.1638     O
H       0.3977   0.3118   0.8354     H
H       0.3977   0.6882   0.3354     H
Pr     0.39919  0.08118  0.54697    Pr
Pr     0.39919  0.91882  0.04697    Pr
C       0.4215    0.135   0.3958     C
C       0.4215    0.865   0.8958     C
H       0.4304   0.0286   0.2822     H
H       0.4304   0.9714   0.7822     H
O       0.4572   0.1722   0.9354     O
O       0.4572   0.8278   0.4354     O
O       0.4947   0.0782   0.4072     O
O       0.4947   0.9218   0.9072     O
O       0.5053   0.0782   0.0928     O
O       0.5053   0.9218   0.5928     O
O       0.5428   0.1722   0.5646     O
O       0.5428   0.8278   0.0646     O
H       0.5696   0.0286   0.2178     H
H       0.5696   0.9714   0.7178     H
C       0.5785    0.135   0.1042     C
C       0.5785    0.865   0.6042     C
Pr     0.60081  0.08118  0.95303    Pr
Pr     0.60081  0.91882  0.45303    Pr
H       0.6023   0.3118   0.6646     H
H       0.6023   0.6882   0.1646     H
O       0.6069   0.0644   0.8362     O
O       0.6069   0.9356   0.3362     O
O       0.6099   0.1727   0.0604     O
O       0.6099   0.8273   0.5604     O
C       0.6147   0.0883   0.2266     C
C       0.6147   0.9117   0.7266     C
C       0.6222   0.1689   0.5678     C
C       0.6222   0.8311   0.0678     C
C       0.6311   0.1572   0.1759     C
C       0.6311   0.8428   0.6759     C
C       0.6535   0.0341   0.3475     C
C       0.6535   0.9659   0.8475     C
C       0.6547   0.3332   0.6558     C
C       0.6547   0.6668   0.1558     C
O       0.6556   0.0873   0.5387     O
O       0.6556   0.9127   0.0387     O
C       0.6672   0.1104   0.2913     C
C       0.6672   0.8896   0.7913     C
C       0.6809   0.2679   0.6083     C
C       0.6809   0.7321   0.1083     C
H       0.6884    0.476   0.7226     H
H       0.6884    0.524   0.2226     H
O       0.6902    0.071    0.406     O
O       0.6902    0.929    0.906     O
C       0.6973   0.2499   0.1906     C
C       0.6973   0.7501   0.6906     C
H       0.7069   0.2968   0.1561     H
C       0.7069   0.4319   0.6908     C
C       0.7069   0.5681   0.1908     C
H       0.7069   0.7032   0.6561     H
C       0.7326    0.202   0.3044     C
C       0.7326    0.798   0.8044     C
C       0.7484   0.2738   0.2541     C
C       0.7484   0.7262   0.7541     C
C       0.7608    0.299   0.5976     C
C       0.7608    0.701   0.0976     C
O        0.762   0.1362   0.0107     O
O        0.762   0.8638   0.5107     O
H       0.7667   0.2156   0.3479     H
H       0.7667   0.7844   0.8479     H
H         0.78   0.2546   0.5664     H
H         0.78   0.7454   0.0664     H
C       0.7843   0.4643   0.6792     C
C       0.7843   0.5357   0.1792     C
O       0.8068   0.0115   0.0992     O
O       0.8068   0.9885   0.5992     O
N       0.8118    0.369   0.2668     N
N       0.8118    0.631   0.7668     N
C       0.8121   0.3964   0.6335     C
C       0.8121   0.6036   0.1335     C
C       0.8158    0.109   0.0629     C
C       0.8158    0.891   0.5629     C
H       0.8292   0.3891   0.3638     H
H       0.8292   0.6109   0.8638     H
H       0.8409     0.36   0.1813     H
H       0.8409     0.64   0.6813     H
C       0.8412   0.4248    0.214     C
C       0.8412   0.5752    0.714     C
C        0.865   0.4006   0.3339     C
C        0.865   0.5994   0.8339     C
H       0.8659   0.4159   0.6264     H
H       0.8659   0.5841   0.1264     H
H       0.8689   0.3186   0.0204     H
H       0.8689   0.6814   0.5204     H
H       0.8811   0.4893   0.3352     H
H       0.8811   0.5107   0.8352     H
C       0.8973   0.1827   0.0906     C
C       0.8973   0.8173   0.5906     C
H       0.9016   0.4538   0.2323     H
H       0.9016   0.5462   0.7323     H
C       0.9113   0.2919   0.0587     C
C       0.9113   0.7081   0.5587     C
H        0.922    0.192    0.288     H
H        0.922    0.808    0.788     H
C       0.9479   0.3232   0.3589     C
C       0.9479   0.6768   0.8589     C
H       0.9511   0.0734   0.1711     H
H       0.9511   0.9266   0.6711     H
C       0.9601   0.1455   0.1486     C
C       0.9601   0.8545   0.6486     C
C       0.9636    0.217   0.3271     C
C       0.9636    0.783   0.8271     C
C       0.9875   0.3608   0.0834     C
C       0.9875   0.6392   0.5834     C
H       0.9962   0.4337   0.0613     H
H       0.9962   0.5663   0.5613     H
