data_I
_chemical_name_common  '/home/zhangsd/repos/MofS-CGCNN/ML/data/TSD/clean_cifs/GARMAQ_clean'
_cell_length_a 15.89400
_cell_length_b 10.49100
_cell_length_c 20.90900
_cell_angle_alpha 90.00000
_cell_angle_beta  107.84100
_cell_angle_gamma 90.00000
_space_group_name_H-M_alt      'P 1'


loop_
_space_group_symop_operation_xyz
  'x, y, z' 

loop_
_atom_site_label
_atom_site_fract_x
_atom_site_fract_y
_atom_site_fract_z
_atom_site_type_symbol
H        0.008   0.4327   0.4397     H
H        0.008   0.5673   0.9397     H
C       0.0158    0.359   0.4175     C
C       0.0158    0.641   0.9175     C
C       0.0351   0.2135   0.1724     C
C       0.0351   0.7865   0.6724     C
C       0.0423   0.1432   0.3512     C
C       0.0423   0.8568   0.8512     C
C       0.0496   0.3197   0.1394     C
C       0.0496   0.6803   0.6394     C
H       0.0511   0.0718   0.3277     H
H       0.0511   0.9282   0.8277     H
H        0.078   0.1877   0.2115     H
H        0.078   0.8123   0.7115     H
C       0.0932   0.2891   0.4418     C
C       0.0932   0.7109   0.9418     C
H       0.1008   0.4528   0.2668     H
H       0.1008   0.5472   0.7668     H
C       0.1059   0.1794   0.4095     C
C       0.1059   0.8206   0.9095     C
H       0.1185   0.4872   0.1622     H
H       0.1185   0.5128   0.6622     H
C       0.1339   0.3975   0.1639     C
C       0.1339   0.6025   0.6639     C
H       0.1368   0.3164   0.4801     H
H       0.1368   0.6836   0.9801     H
H       0.1409   0.4204   0.8777     H
H       0.1409   0.5796   0.3777     H
C       0.1612    0.423   0.2851     C
C       0.1612    0.577   0.7851     C
H       0.1618   0.3576    0.318     H
H       0.1618   0.6424    0.818     H
H       0.1686   0.3843   0.1335     H
H       0.1686   0.6157   0.6335     H
C       0.1876   0.1052   0.4365     C
C       0.1876   0.8948   0.9365     C
N       0.1881   0.3665   0.2316     N
N       0.1881   0.6335   0.7316     N
C       0.1926   0.3989   0.8682     C
C       0.1926   0.6011   0.3682     C
O       0.1964   0.0093   0.3996     O
O       0.1964   0.9907   0.8996     O
C        0.218   0.4673   0.8203     C
C        0.218   0.5327   0.3203     C
H       0.2261   0.2508    0.933     H
H       0.2261   0.7492    0.433     H
H       0.2345   0.2125   0.1487     H
H       0.2345   0.7875   0.6487     H
O       0.2433   0.1336   0.4892     O
O       0.2433   0.8664   0.9892     O
C       0.2445   0.2983   0.9022     C
C       0.2445   0.7017   0.4022     C
C       0.2518   0.2718   0.2442     C
C       0.2518   0.7282   0.7442     C
C       0.2685    0.199    0.193     C
C       0.2685    0.801    0.693     C
H       0.2941   0.2905    0.346     H
H       0.2941   0.7095    0.846     H
C       0.2948   0.4328   0.8074     C
C       0.2948   0.5672   0.3074     C
C       0.3044   0.2461   0.3106     C
C       0.3044   0.7539   0.8106     C
O       0.3116   0.0701   0.0905     O
O       0.3116   0.9299   0.5905     O
H       0.3117   0.4762   0.7746     H
H       0.3117   0.5238   0.2746     H
C       0.3227   0.2686   0.8905     C
C       0.3227   0.7314   0.3905     C
C        0.334   0.1081   0.2072     C
C        0.334   0.8919   0.7072     C
C       0.3469   0.0316   0.1491     C
C       0.3469   0.9684   0.6491     C
C       0.3472   0.3348   0.8425     C
C       0.3472   0.6652   0.3425     C
O        0.349   0.0873   0.9614     O
O        0.349   0.9127   0.4614     O
C       0.3712   0.1557    0.324     C
C       0.3712   0.8443    0.824     C
C       0.3821   0.1671   0.9312     C
C       0.3821   0.8329   0.4312     C
C        0.387   0.0857   0.2722     C
C        0.387   0.9143   0.7722     C
O       0.3928   0.1687   0.4407     O
O       0.3928   0.8313   0.9407     O
O       0.3949   0.0665   0.6612     O
O       0.3949   0.9335   0.1612     O
H       0.3993   0.3138   0.8335     H
H       0.3993   0.6862   0.3335     H
Gd     0.39937  0.07818  0.54554    Gd
Gd     0.39937  0.92182  0.04554    Gd
C        0.425   0.1327   0.3963     C
C        0.425   0.8673   0.8963     C
H        0.432   0.0254   0.2812     H
H        0.432   0.9746   0.7812     H
O       0.4607   0.1686   0.9321     O
O       0.4607   0.8314   0.4321     O
O       0.4991   0.0795   0.4075     O
O       0.4991   0.9205   0.9075     O
O       0.5009   0.0795   0.0925     O
O       0.5009   0.9205   0.5925     O
O       0.5393   0.1686   0.5679     O
O       0.5393   0.8314   0.0679     O
H        0.568   0.0254   0.2188     H
H        0.568   0.9746   0.7188     H
C        0.575   0.1327   0.1037     C
C        0.575   0.8673   0.6037     C
Gd     0.60062  0.07818  0.95446    Gd
Gd     0.60062  0.92182  0.45446    Gd
H       0.6007   0.3138   0.6665     H
H       0.6007   0.6862   0.1665     H
O       0.6051   0.0665   0.8388     O
O       0.6051   0.9335   0.3388     O
O       0.6072   0.1687   0.0593     O
O       0.6072   0.8313   0.5593     O
C        0.613   0.0857   0.2278     C
C        0.613   0.9143   0.7278     C
C       0.6179   0.1671   0.5688     C
C       0.6179   0.8329   0.0688     C
C       0.6288   0.1557    0.176     C
C       0.6288   0.8443    0.676     C
O        0.651   0.0873   0.5386     O
O        0.651   0.9127   0.0386     O
C       0.6528   0.3348   0.6575     C
C       0.6528   0.6652   0.1575     C
C       0.6531   0.0316   0.3509     C
C       0.6531   0.9684   0.8509     C
C        0.666   0.1081   0.2928     C
C        0.666   0.8919   0.7928     C
C       0.6773   0.2686   0.6095     C
C       0.6773   0.7314   0.1095     C
H       0.6883   0.4762   0.7254     H
H       0.6883   0.5238   0.2254     H
O       0.6884   0.0701   0.4095     O
O       0.6884   0.9299   0.9095     O
C       0.6956   0.2461   0.1894     C
C       0.6956   0.7539   0.6894     C
C       0.7052   0.4328   0.6926     C
C       0.7052   0.5672   0.1926     C
H       0.7059   0.2905    0.154     H
H       0.7059   0.7095    0.654     H
C       0.7315    0.199    0.307     C
C       0.7315    0.801    0.807     C
C       0.7482   0.2718   0.2558     C
C       0.7482   0.7282   0.7558     C
C       0.7555   0.2983   0.5978     C
C       0.7555   0.7017   0.0978     C
O       0.7567   0.1336   0.0108     O
O       0.7567   0.8664   0.5108     O
H       0.7655   0.2125   0.3513     H
H       0.7655   0.7875   0.8513     H
H       0.7739   0.2508    0.567     H
H       0.7739   0.7492    0.067     H
C        0.782   0.4673   0.6797     C
C        0.782   0.5327   0.1797     C
O       0.8036   0.0093   0.1004     O
O       0.8036   0.9907   0.6004     O
C       0.8074   0.3989   0.6318     C
C       0.8074   0.6011   0.1318     C
N       0.8119   0.3665   0.2684     N
N       0.8119   0.6335   0.7684     N
C       0.8124   0.1052   0.0635     C
C       0.8124   0.8948   0.5635     C
H       0.8314   0.3843   0.3665     H
H       0.8314   0.6157   0.8665     H
H       0.8382   0.3576    0.182     H
H       0.8382   0.6424    0.682     H
C       0.8388    0.423   0.2149     C
C       0.8388    0.577   0.7149     C
H       0.8591   0.4204   0.6223     H
H       0.8591   0.5796   0.1223     H
H       0.8632   0.3164   0.0199     H
H       0.8632   0.6836   0.5199     H
C       0.8661   0.3975   0.3361     C
C       0.8661   0.6025   0.8361     C
H       0.8815   0.4872   0.3378     H
H       0.8815   0.5128   0.8378     H
C       0.8941   0.1794   0.0905     C
C       0.8941   0.8206   0.5905     C
H       0.8992   0.4528   0.2332     H
H       0.8992   0.5472   0.7332     H
C       0.9068   0.2891   0.0582     C
C       0.9068   0.7109   0.5582     C
H        0.922   0.1877   0.2885     H
H        0.922   0.8123   0.7885     H
H       0.9489   0.0718   0.1723     H
H       0.9489   0.9282   0.6723     H
C       0.9504   0.3197   0.3606     C
C       0.9504   0.6803   0.8606     C
C       0.9577   0.1432   0.1488     C
C       0.9577   0.8568   0.6488     C
C       0.9649   0.2135   0.3276     C
C       0.9649   0.7865   0.8276     C
C       0.9842    0.359   0.0825     C
C       0.9842    0.641   0.5825     C
H        0.992   0.4327   0.0603     H
H        0.992   0.5673   0.5603     H
