data_I
_chemical_name_common  '/home/zhangsd/repos/MofS-CGCNN/ML/data/TSD/clean_cifs/GAWCUF_clean'
_cell_length_a 18.36380
_cell_length_b 10.91350
_cell_length_c 18.89420
_cell_angle_alpha 90.00000
_cell_angle_beta  108.37400
_cell_angle_gamma 90.00000
_space_group_name_H-M_alt      'P 1'


loop_
_space_group_symop_operation_xyz
  'x, y, z' 

loop_
_atom_site_label
_atom_site_fract_x
_atom_site_fract_y
_atom_site_fract_z
_atom_site_type_symbol
H       0.0044   0.7161   0.9471     H
H       0.0065   0.2614   0.4441     H
C      0.00828   0.7247  0.89894     C
H       0.0093    0.427   0.7545     H
C       0.0115   0.6479  0.46887     C
C       0.0177     0.38  0.71364     C
C      0.01933   0.7475  0.75678     C
H       0.0237   0.7542   0.7087     H
H       0.0238    0.487   0.3669     H
C       0.0244   0.4678  0.65302     C
C      0.02817   0.3038  0.48918     C
H       0.0325   0.7706   0.3473     H
N      0.04164   0.4047  0.59159     N
H       0.0425   0.9571   0.2675     H
C       0.0481   0.7094  0.31692     C
C      0.05139   0.2793  0.23478     C
C      0.05623   0.2914  0.16288     C
H       0.0649   0.6496   0.4789     H
H       0.0651   0.5275   0.6753     H
H       0.0658   0.3343   0.7336     H
C       0.0688   0.8994   0.2477     C
N      0.07349   0.7738  0.26058     N
C      0.07873   0.7536  0.88999     C
C      0.08367   0.7644  0.81874     C
H       0.0919   0.6645     0.35     H
H       0.0945   0.5504   0.1858     H
H       0.1036   0.3107   0.1563     H
N      0.10528   0.3257  0.52198     N
C       0.1094   0.9217  0.20098     C
C      0.11166   0.3878  0.58426     C
O      0.11172   0.3015  0.36397     O
H       0.1164   0.9993   0.1825     H
C       0.1167   0.7259  0.22155     C
C      0.12169   0.2968   0.3013     C
H       0.1311   0.7834   0.8122     H
O      0.13533   0.7821  0.01935     O
C       0.1362   0.5936   0.2217     C
N      0.13943   0.8127  0.18415     N
H        0.144   0.5598   0.2711     H
C      0.14666    0.775  0.95783     C
H       0.1785    0.521   0.6462     H
H       0.1827   0.5842   0.2084     H
C       0.1838   0.4343   0.6375     C
O      0.18544   0.3057  0.28995     O
Co     0.18635  0.29472  0.47069    Co
O      0.18782   0.1106  0.46227     O
H       0.1905   0.8996   0.5141     H
H       0.1948   0.3901   0.6842     H
H       0.2024   0.6879   0.5187     H
O      0.20443   0.4791  0.46415     O
C       0.2092   0.8585  0.47964     C
O      0.21096   0.7851  0.94715     O
Co     0.21453  0.79775  0.12333    Co
C      0.21584   0.7321    0.482     C
O      0.21869   0.9815  0.10738     O
H       0.2193   0.1948   0.1584     H
C      0.22508   0.0614  0.42456     C
H       0.2255   0.4224    0.617     H
H       0.2286   0.4075   0.1614     H
C      0.23038    0.925  0.42573     C
C      0.23708   0.2361  0.12338     C
O      0.24038   0.6177  0.11269     O
C      0.24215   0.6699  0.43074     C
C      0.24288   0.3631  0.12527     C
C      0.24353   0.5328  0.42987     C
C      0.25647   0.0328  0.07013     C
C      0.25712   0.8631  0.37473     C
C      0.25785   0.1699  0.06926     C
O      0.25962   0.1177  0.38731     O
C      0.26292   0.7361  0.37662     C
C      0.26962    0.425  0.07427     C
H       0.2714   0.9075   0.3386     H
H       0.2745   0.9224    0.883     H
C      0.27492   0.5614  0.07544     C
H       0.2807   0.6948   0.3416     H
O      0.28131   0.4815  0.39262     O
C      0.28416   0.2321    0.018     C
Co     0.28547  0.29775  0.37667    Co
O      0.28904   0.2851  0.55285     O
C       0.2908   0.3585  0.02036     C
O      0.29557   0.9791  0.03585     O
H       0.2976   0.1879   0.9813     H
H       0.3052   0.8901   0.8158     H
H       0.3095   0.3996   0.9859     H
O      0.31218   0.6106  0.03773     O
Co     0.31365  0.79472  0.02931    Co
O      0.31456   0.8057  0.21005     O
C       0.3162   0.9343   0.8625     C
H       0.3173   0.0842   0.2916     H
H       0.3215    0.021   0.8538     H
C      0.35334    0.275  0.54217     C
H        0.356   0.0598   0.2289     H
N      0.36057   0.3127  0.31585     N
C       0.3638   0.0936   0.2783     C
O      0.36467   0.2821  0.48065     O
H       0.3689   0.2834   0.6878     H
C      0.37831   0.7968   0.1987     C
C       0.3833   0.2259  0.27845     C
H       0.3836   0.4993   0.3175     H
O      0.38828   0.8015  0.13603     O
C      0.38834   0.8878  0.91574     C
C       0.3906   0.4217  0.29902     C
N      0.39472   0.8257  0.97802     N
H       0.3964   0.8107   0.3437     H
H       0.4055   0.0504   0.3142     H
H       0.4081   0.1645     0.15     H
C      0.41633   0.2644  0.68126     C
C      0.42127   0.2536  0.61001     C
N      0.42651   0.2738  0.23942     N
C       0.4312   0.3994   0.2523     C
H       0.4342   0.8343   0.7664     H
H       0.4349   0.0275   0.8247     H
H       0.4351   0.1496   0.0211     H
C      0.44377   0.7914  0.33712     C
C      0.44861   0.7793  0.26522     C
C       0.4519   0.2094  0.18308     C
H       0.4575   0.4571   0.2325     H
N      0.45836   0.9047  0.90841     N
H       0.4675   0.2706   0.1527     H
C      0.47183   0.8038  0.01082     C
C       0.4756   0.9678  0.84698     C
H       0.4762    0.987   0.1331     H
H       0.4763   0.2542   0.7913     H
C      0.48067   0.2475  0.74322     C
C       0.4823     0.88  0.78636     C
C       0.4885   0.1479  0.03113     C
H       0.4907    0.927   0.7455     H
C      0.49172   0.2247  0.60106     C
H       0.4935   0.7614   0.0559     H
H       0.4956   0.2161   0.5529     H
H       0.5044   0.7839   0.4471     H
H       0.5065   0.2386   0.9441     H
C      0.50828   0.7753  0.39894     C
H       0.5093    0.073   0.2545     H
C       0.5115   0.8521  0.96887     C
C       0.5177     0.12  0.21364     C
C      0.51933   0.7525  0.25678     C
H       0.5237   0.7458   0.2087     H
H       0.5238    0.013   0.8669     H
C       0.5244   0.0322  0.15302     C
C      0.52817   0.1962  0.98918     C
H       0.5325   0.7294   0.8473     H
N      0.54164   0.0953  0.09159     N
H       0.5425   0.5429   0.7675     H
C       0.5481   0.7906  0.81692     C
C      0.55139   0.2207  0.73478     C
C      0.55623   0.2086  0.66288     C
H       0.5649   0.8504   0.9789     H
H       0.5651   0.9725   0.1753     H
H       0.5658   0.1657   0.2336     H
C       0.5688   0.6006   0.7477     C
N      0.57349   0.7262  0.76058     N
C      0.57873   0.7464  0.38999     C
C      0.58367   0.7356  0.31874     C
H       0.5919   0.8355     0.85     H
H       0.5945   0.9496   0.6858     H
H       0.6036   0.1893   0.6563     H
N      0.60528   0.1743  0.02198     N
C       0.6094   0.5783  0.70098     C
C      0.61166   0.1122  0.08426     C
O      0.61172   0.1985  0.86397     O
H       0.6164   0.5007   0.6825     H
C       0.6167   0.7741  0.72155     C
C      0.62169   0.2032   0.8013     C
H       0.6311   0.7166   0.3122     H
O      0.63533   0.7179  0.51935     O
C       0.6362   0.9064   0.7217     C
N      0.63943   0.6873  0.68415     N
H        0.644   0.9402   0.7711     H
C      0.64666    0.725  0.45783     C
H       0.6785    0.979   0.1462     H
H       0.6827   0.9158   0.7084     H
C       0.6838   0.0657   0.1375     C
O      0.68544   0.1943  0.78995     O
Co     0.68635  0.20528  0.97069    Co
O      0.68782   0.3894  0.96227     O
H       0.6905   0.6004   0.0141     H
H       0.6948   0.1099   0.1842     H
H       0.7024   0.8121   0.0187     H
O      0.70443   0.0209  0.96415     O
C       0.7092   0.6415  0.97964     C
O      0.71096   0.7149  0.44715     O
Co     0.71453  0.70225  0.62333    Co
C      0.71584   0.7679    0.982     C
O      0.71869   0.5185  0.60738     O
H       0.7193   0.3052   0.6584     H
C      0.72508   0.4386  0.92456     C
H       0.7255   0.0776    0.117     H
H       0.7286   0.0925   0.6614     H
C      0.73038    0.575  0.92573     C
C      0.73708   0.2639  0.62338     C
O      0.74038   0.8823  0.61269     O
C      0.74215   0.8301  0.93074     C
C      0.74288   0.1369  0.62527     C
C      0.74353   0.9672  0.92987     C
C      0.75647   0.4672  0.57013     C
C      0.75712   0.6369  0.87473     C
C      0.75785   0.3301  0.56926     C
O      0.75962   0.3823  0.88731     O
C      0.76292   0.7639  0.87662     C
C      0.76962    0.075  0.57427     C
H       0.7714   0.5925   0.8386     H
H       0.7745   0.5776    0.383     H
C      0.77492   0.9386  0.57544     C
H       0.7807   0.8052   0.8416     H
O      0.78131   0.0185  0.89262     O
C      0.78416   0.2679    0.518     C
Co     0.78547  0.20225  0.87667    Co
O      0.78904   0.2149  0.05285     O
C       0.7908   0.1415  0.52036     C
O      0.79557   0.5209  0.53585     O
H       0.7976   0.3121   0.4813     H
H       0.8052   0.6099   0.3158     H
H       0.8095   0.1004   0.4859     H
O      0.81218   0.8894  0.53773     O
Co     0.81365  0.70528  0.52931    Co
O      0.81456   0.6943  0.71005     O
C       0.8162   0.5657   0.3625     C
H       0.8173   0.4158   0.7916     H
H       0.8215    0.479   0.3538     H
C      0.85334    0.225  0.04217     C
H        0.856   0.4402   0.7289     H
N      0.86057   0.1873  0.81585     N
C       0.8638   0.4064   0.7783     C
O      0.86467   0.2179  0.98065     O
H       0.8689   0.2166   0.1878     H
C      0.87831   0.7032   0.6987     C
C       0.8833   0.2741  0.77845     C
H       0.8836   0.0007   0.8175     H
O      0.88828   0.6985  0.63603     O
C      0.88834   0.6122  0.41574     C
C       0.8906   0.0783  0.79902     C
N      0.89472   0.6743  0.47802     N
H       0.8964   0.6893   0.8437     H
H       0.9055   0.4496   0.8142     H
H       0.9081   0.3355     0.65     H
C      0.91633   0.2356  0.18126     C
C      0.92127   0.2464  0.11001     C
N      0.92651   0.2262  0.73942     N
C       0.9312   0.1006   0.7523     C
H       0.9342   0.6657   0.2664     H
H       0.9349   0.4725   0.3247     H
H       0.9351   0.3504   0.5211     H
C      0.94377   0.7086  0.83712     C
C      0.94861   0.7207  0.76522     C
C       0.9519   0.2906  0.68308     C
H       0.9575   0.0429   0.7325     H
N      0.95836   0.5953  0.40841     N
H       0.9675   0.2294   0.6527     H
C      0.97183   0.6962  0.51082     C
C       0.9756   0.5322  0.34698     C
H       0.9762    0.513   0.6331     H
H       0.9763   0.2458   0.2913     H
C      0.98067   0.2525  0.24322     C
C       0.9823     0.62  0.28636     C
C       0.9885   0.3521  0.53113     C
H       0.9907    0.573   0.2455     H
C      0.99172   0.2753  0.10106     C
H       0.9935   0.7386   0.5559     H
H       0.9956   0.2839   0.0529     H
