data_I
_chemical_name_common  '/home/zhangsd/repos/MofS-CGCNN/ML/data/TSD/clean_cifs/GAYPED_clean'
_cell_length_a 15.48400
_cell_length_b 30.16300
_cell_length_c 30.16300
_cell_angle_alpha 90.00000
_cell_angle_beta  90.00000
_cell_angle_gamma 90.00000
_space_group_name_H-M_alt      'P 1'


loop_
_space_group_symop_operation_xyz
  'x, y, z' 

loop_
_atom_site_label
_atom_site_fract_x
_atom_site_fract_y
_atom_site_fract_z
_atom_site_type_symbol
Co         0.0      0.0      0.5    Co
N          0.0   0.0448   0.5448     N
N          0.0   0.1936   0.2125     N
N          0.0   0.2125   0.8064     N
Co         0.0  0.24057  0.25943    Co
Co         0.0  0.25943  0.75943    Co
N          0.0   0.2875   0.3064     N
N          0.0   0.3064   0.7125     N
N          0.0   0.4552   0.0448     N
Co         0.0      0.5      0.0    Co
N          0.0   0.5448   0.9552     N
N          0.0   0.6936   0.2875     N
N          0.0   0.7125   0.6936     N
Co         0.0  0.74057  0.24057    Co
Co         0.0  0.75943  0.74057    Co
N          0.0   0.7875   0.1936     N
N          0.0   0.8064   0.7875     N
N          0.0   0.9552   0.4552     N
C       0.0433    0.098    0.598     C
C       0.0433    0.402    0.098     C
C       0.0433    0.598    0.902     C
C       0.0433    0.902    0.402     C
C       0.0443   0.1436   0.1613     C
C       0.0443   0.1613   0.8564     C
C       0.0443   0.3387   0.3564     C
C       0.0443   0.3564   0.6613     C
C       0.0443   0.6436   0.3387     C
C       0.0443   0.6613   0.6436     C
C       0.0443   0.8387   0.1436     C
C       0.0443   0.8564   0.8387     C
C       0.0714   0.0661   0.5661     C
C       0.0714   0.4339   0.0661     C
C       0.0714   0.5661   0.9339     C
C       0.0714   0.9339   0.4339     C
C       0.0723    0.175   0.1932     C
C       0.0723   0.1932    0.825     C
C       0.0723   0.3068    0.325     C
C       0.0723    0.325   0.6932     C
C       0.0723    0.675   0.3068     C
C       0.0723   0.6932    0.675     C
C       0.0723   0.8068    0.175     C
C       0.0723    0.825   0.8068     C
H       0.0795    0.116    0.616     H
H       0.0795    0.384    0.116     H
H       0.0795    0.616    0.884     H
H       0.0795    0.884    0.384     H
H       0.0804   0.1258   0.1431     H
H       0.0804   0.1431   0.8742     H
H       0.0804   0.3569   0.3742     H
H       0.0804   0.3742   0.6431     H
H       0.0804   0.6258   0.3569     H
H       0.0804   0.6431   0.6258     H
H       0.0804   0.8569   0.1258     H
H       0.0804   0.8742   0.8569     H
N       0.1231      0.0      0.5     N
N       0.1231      0.5      0.0     N
N       0.1259    0.239    0.261     N
N       0.1259    0.261    0.761     N
N       0.1259    0.739    0.239     N
N       0.1259    0.761    0.739     N
C        0.157   0.1829    0.203     C
C        0.157    0.203   0.8171     C
C        0.157    0.297   0.3171     C
C        0.157   0.3171    0.703     C
C        0.157   0.6829    0.297     C
C        0.157    0.703   0.6829     C
C        0.157    0.797   0.1829     C
C        0.157   0.8171    0.797     C
C       0.1571   0.0573   0.5573     C
C       0.1571   0.4427   0.0573     C
C       0.1571   0.5573   0.9427     C
C       0.1571   0.9427   0.4427     C
C       0.1816   0.2112   0.2362     C
C       0.1816   0.2362   0.7888     C
C       0.1816   0.2638   0.2888     C
C       0.1816   0.2888   0.7362     C
C       0.1816   0.7112   0.2638     C
C       0.1816   0.7362   0.7112     C
C       0.1816   0.7638   0.2112     C
C       0.1816   0.7888   0.7638     C
C       0.1833   0.0258   0.5258     C
C       0.1833   0.4742   0.0258     C
C       0.1833   0.5258   0.9742     C
C       0.1833   0.9742   0.4742     C
C       0.2229   0.0821   0.5821     C
C       0.2229   0.4179   0.0821     C
C       0.2229   0.5821   0.9179     C
C       0.2229   0.9179   0.4179     C
C       0.2235   0.1589   0.1789     C
C       0.2235   0.1789   0.8411     C
C       0.2235   0.3211   0.3411     C
C       0.2235   0.3411   0.6789     C
C       0.2235   0.6589   0.3211     C
C       0.2235   0.6789   0.6589     C
C       0.2235   0.8211   0.1589     C
C       0.2235   0.8411   0.8211     C
H        0.234   0.1303   0.7959     H
H        0.234   0.2041   0.1303     H
H        0.234   0.2959   0.6303     H
H        0.234   0.3697   0.2959     H
H        0.234   0.6303   0.7041     H
H        0.234   0.7041   0.3697     H
H        0.234   0.7959   0.8697     H
H        0.234   0.8697   0.2041     H
H       0.2354   0.1075   0.2215     H
H       0.2354   0.2215   0.8925     H
H       0.2354   0.2785   0.3925     H
H       0.2354   0.3925   0.7215     H
H       0.2354   0.6075   0.2785     H
H       0.2354   0.7215   0.6075     H
H       0.2354   0.7785   0.1075     H
H       0.2354   0.8925   0.7785     H
H       0.2378   0.0367   0.6305     H
H       0.2378   0.1305   0.5367     H
H       0.2378   0.3695   0.0367     H
H       0.2378   0.4633   0.1305     H
H       0.2378   0.5367   0.8695     H
H       0.2378   0.6305   0.9633     H
H       0.2378   0.8695   0.4633     H
H       0.2378   0.9633   0.3695     H
C       0.2548   0.1408   0.8236     C
C       0.2548   0.1764   0.1408     C
C       0.2548   0.3236   0.6408     C
C       0.2548   0.3592   0.3236     C
C       0.2548   0.6408   0.6764     C
C       0.2548   0.6764   0.3592     C
C       0.2548   0.8236   0.8592     C
C       0.2548   0.8592   0.1764     C
C       0.2567   0.1196   0.1945     C
C       0.2567   0.1945   0.8804     C
C       0.2567   0.3055   0.3804     C
C       0.2567   0.3804   0.6945     C
C       0.2567   0.6196   0.3055     C
C       0.2567   0.6945   0.6196     C
C       0.2567   0.8055   0.1196     C
C       0.2567   0.8804   0.8055     C
C       0.2591   0.0641   0.6193     C
C       0.2591   0.1193   0.5641     C
C       0.2591   0.3807   0.0641     C
C       0.2591   0.4359   0.1193     C
C       0.2591   0.5641   0.8807     C
C       0.2591   0.6193   0.9359     C
C       0.2591   0.8807   0.4359     C
C       0.2591   0.9359   0.3807     C
C       0.2688   0.2205    0.247     C
C       0.2688    0.247   0.7795     C
C       0.2688    0.253   0.2795     C
C       0.2688   0.2795    0.747     C
C       0.2688   0.7205    0.253     C
C       0.2688    0.747   0.7205     C
C       0.2688    0.753   0.2205     C
C       0.2688   0.7795    0.753     C
C       0.2737    0.016    0.516     C
C       0.2737    0.484    0.016     C
C       0.2737    0.516    0.984     C
C       0.2737    0.984    0.484     C
C        0.317   0.1173   0.8462     C
C        0.317   0.1538   0.1173     C
C        0.317   0.3462   0.6173     C
C        0.317   0.3827   0.3462     C
C        0.317   0.6173   0.6538     C
C        0.317   0.6538   0.3827     C
C        0.317   0.8462   0.8827     C
C        0.317   0.8827   0.1538     C
H       0.3183    0.207   0.2343     H
H       0.3183   0.2343    0.793     H
H       0.3183   0.2657    0.293     H
H       0.3183    0.293   0.7343     H
H       0.3183    0.707   0.2657     H
H       0.3183   0.7343    0.707     H
H       0.3183   0.7657    0.207     H
H       0.3183    0.793   0.7657     H
C       0.3204   0.0975   0.1716     C
C       0.3204   0.1716   0.9025     C
C       0.3204   0.3284   0.4025     C
C       0.3204   0.4025   0.6716     C
C       0.3204   0.5975   0.3284     C
C       0.3204   0.6716   0.5975     C
C       0.3204   0.8284   0.0975     C
C       0.3204   0.9025   0.8284     C
H       0.3229   0.0293   0.5293     H
H       0.3229   0.4707   0.0293     H
H       0.3229   0.5293   0.9707     H
H       0.3229   0.9707   0.4707     H
C       0.3242   0.0845   0.6404     C
C       0.3242   0.1404   0.5845     C
C       0.3242   0.3596   0.0845     C
C       0.3242   0.4155   0.1404     C
C       0.3242   0.5845   0.8596     C
C       0.3242   0.6404   0.9155     C
C       0.3242   0.8596   0.4155     C
C       0.3242   0.9155   0.3596     C
O       0.3288   0.0635   0.7905     O
O       0.3288   0.2095   0.0635     O
O       0.3288   0.2905   0.5635     O
O       0.3288   0.4365   0.2905     O
O       0.3288   0.5635   0.7095     O
O       0.3288   0.7095   0.4365     O
O       0.3288   0.7905   0.9365     O
O       0.3288   0.9365   0.2095     O
O       0.3329   0.0279   0.6977     O
O       0.3329   0.1977   0.5279     O
O       0.3329   0.3023   0.0279     O
O       0.3329   0.4721   0.1977     O
O       0.3329   0.5279   0.8023     O
O       0.3329   0.6977   0.9721     O
O       0.3329   0.8023   0.4721     O
O       0.3329   0.9721   0.3023     O
O       0.3357   0.0386   0.2259     O
O       0.3357   0.2259   0.9614     O
O       0.3357   0.2741   0.4614     O
O       0.3357   0.4614   0.7259     O
O       0.3357   0.5386   0.2741     O
O       0.3357   0.7259   0.5386     O
O       0.3357   0.7741   0.0386     O
O       0.3357   0.9614   0.7741     O
C       0.3505   0.1142   0.1335     C
C       0.3505   0.1335   0.8858     C
C       0.3505   0.3665   0.3858     C
C       0.3505   0.3858   0.6335     C
C       0.3505   0.6142   0.3665     C
C       0.3505   0.6335   0.6142     C
C       0.3505   0.8665   0.1142     C
C       0.3505   0.8858   0.8665     C
C        0.354   0.0542   0.1901     C
C        0.354   0.1901   0.9458     C
C        0.354   0.3099   0.4458     C
C        0.354   0.4458   0.6901     C
C        0.354   0.5542   0.3099     C
C        0.354   0.6901   0.5542     C
C        0.354   0.8099   0.0542     C
C        0.354   0.9458   0.8099     C
C       0.3546   0.0764   0.8269     C
C       0.3546   0.1731   0.0764     C
C       0.3546   0.3269   0.5764     C
C       0.3546   0.4236   0.3269     C
C       0.3546   0.5764   0.6731     C
C       0.3546   0.6731   0.4236     C
C       0.3546   0.8269   0.9236     C
C       0.3546   0.9236   0.1731     C
C       0.3581   0.1224   0.6224     C
C       0.3581   0.3776   0.1224     C
C       0.3581   0.6224   0.8776     C
C       0.3581   0.8776   0.3776     C
C       0.3598   0.0659   0.6835     C
C       0.3598   0.1835   0.5659     C
C       0.3598   0.3165   0.0659     C
C       0.3598   0.4341   0.1835     C
C       0.3598   0.5659   0.8165     C
C       0.3598   0.6835   0.9341     C
C       0.3598   0.8165   0.4341     C
C       0.3598   0.9341   0.3165     C
Co     0.37749  0.01704   0.7528    Co
Co     0.37749   0.2472  0.01704    Co
Co     0.37749   0.2528  0.51704    Co
Co     0.37749  0.48296   0.2528    Co
Co     0.37749  0.51704   0.7472    Co
Co     0.37749   0.7472  0.48296    Co
Co     0.37749   0.7528  0.98296    Co
Co     0.37749  0.98296   0.2472    Co
H       0.3945   0.0991   0.1176     H
H       0.3945   0.1176   0.9009     H
H       0.3945   0.3824   0.4009     H
H       0.3945   0.4009   0.6176     H
H       0.3945   0.5991   0.3824     H
H       0.3945   0.6176   0.5991     H
H       0.3945   0.8824   0.0991     H
H       0.3945   0.9009   0.8824     H
O       0.4045    0.035   0.1624     O
O       0.4045   0.1624    0.965     O
O       0.4045   0.3376    0.465     O
O       0.4045    0.465   0.6624     O
O       0.4045    0.535   0.3376     O
O       0.4045   0.6624    0.535     O
O       0.4045   0.8376    0.035     O
O       0.4045    0.965   0.8376     O
H       0.4058   0.1363   0.6363     H
H       0.4058   0.3637   0.1363     H
H       0.4058   0.6363   0.8637     H
H       0.4058   0.8637   0.3637     H
O       0.4102   0.0583   0.8485     O
O       0.4102   0.1515   0.0583     O
O       0.4102   0.3485   0.5583     O
O       0.4102   0.4417   0.3485     O
O       0.4102   0.5583   0.6515     O
O       0.4102   0.6515   0.4417     O
O       0.4102   0.8485   0.9417     O
O       0.4102   0.9417   0.1515     O
O       0.4117   0.0824   0.7073     O
O       0.4117   0.2073   0.5824     O
O       0.4117   0.2927   0.0824     O
O       0.4117   0.4176   0.2073     O
O       0.4117   0.5824   0.7927     O
O       0.4117   0.7073   0.9176     O
O       0.4117   0.7927   0.4176     O
O       0.4117   0.9176   0.2927     O
Co         0.5   0.0103  0.83867    Co
O          0.5   0.0207   0.7706     O
Co         0.5  0.16133   0.0103    Co
O          0.5   0.2294   0.0207     O
O          0.5   0.2706   0.5207     O
Co         0.5  0.33867   0.5103    Co
O          0.5   0.4793   0.2706     O
Co         0.5   0.4897  0.33867    Co
Co         0.5   0.5103  0.66133    Co
O          0.5   0.5207   0.7294     O
Co         0.5  0.66133   0.4897    Co
O          0.5   0.7294   0.4793     O
O          0.5   0.7706   0.9793     O
Co         0.5  0.83867   0.9897    Co
O          0.5   0.9793   0.2294     O
Co         0.5   0.9897  0.16133    Co
O       0.5883   0.0824   0.7073     O
O       0.5883   0.2073   0.5824     O
O       0.5883   0.2927   0.0824     O
O       0.5883   0.4176   0.2073     O
O       0.5883   0.5824   0.7927     O
O       0.5883   0.7073   0.9176     O
O       0.5883   0.7927   0.4176     O
O       0.5883   0.9176   0.2927     O
O       0.5898   0.0583   0.8485     O
O       0.5898   0.1515   0.0583     O
O       0.5898   0.3485   0.5583     O
O       0.5898   0.4417   0.3485     O
O       0.5898   0.5583   0.6515     O
O       0.5898   0.6515   0.4417     O
O       0.5898   0.8485   0.9417     O
O       0.5898   0.9417   0.1515     O
H       0.5942   0.1363   0.6363     H
H       0.5942   0.3637   0.1363     H
H       0.5942   0.6363   0.8637     H
H       0.5942   0.8637   0.3637     H
O       0.5955    0.035   0.1624     O
O       0.5955   0.1624    0.965     O
O       0.5955   0.3376    0.465     O
O       0.5955    0.465   0.6624     O
O       0.5955    0.535   0.3376     O
O       0.5955   0.6624    0.535     O
O       0.5955   0.8376    0.035     O
O       0.5955    0.965   0.8376     O
H       0.6055   0.0991   0.1176     H
H       0.6055   0.1176   0.9009     H
H       0.6055   0.3824   0.4009     H
H       0.6055   0.4009   0.6176     H
H       0.6055   0.5991   0.3824     H
H       0.6055   0.6176   0.5991     H
H       0.6055   0.8824   0.0991     H
H       0.6055   0.9009   0.8824     H
Co     0.62251  0.01704   0.7528    Co
Co     0.62251   0.2472  0.01704    Co
Co     0.62251   0.2528  0.51704    Co
Co     0.62251  0.48296   0.2528    Co
Co     0.62251  0.51704   0.7472    Co
Co     0.62251   0.7472  0.48296    Co
Co     0.62251   0.7528  0.98296    Co
Co     0.62251  0.98296   0.2472    Co
C       0.6402   0.0659   0.6835     C
C       0.6402   0.1835   0.5659     C
C       0.6402   0.3165   0.0659     C
C       0.6402   0.4341   0.1835     C
C       0.6402   0.5659   0.8165     C
C       0.6402   0.6835   0.9341     C
C       0.6402   0.8165   0.4341     C
C       0.6402   0.9341   0.3165     C
C       0.6419   0.1224   0.6224     C
C       0.6419   0.3776   0.1224     C
C       0.6419   0.6224   0.8776     C
C       0.6419   0.8776   0.3776     C
C       0.6454   0.0764   0.8269     C
C       0.6454   0.1731   0.0764     C
C       0.6454   0.3269   0.5764     C
C       0.6454   0.4236   0.3269     C
C       0.6454   0.5764   0.6731     C
C       0.6454   0.6731   0.4236     C
C       0.6454   0.8269   0.9236     C
C       0.6454   0.9236   0.1731     C
C        0.646   0.0542   0.1901     C
C        0.646   0.1901   0.9458     C
C        0.646   0.3099   0.4458     C
C        0.646   0.4458   0.6901     C
C        0.646   0.5542   0.3099     C
C        0.646   0.6901   0.5542     C
C        0.646   0.8099   0.0542     C
C        0.646   0.9458   0.8099     C
C       0.6495   0.1142   0.1335     C
C       0.6495   0.1335   0.8858     C
C       0.6495   0.3665   0.3858     C
C       0.6495   0.3858   0.6335     C
C       0.6495   0.6142   0.3665     C
C       0.6495   0.6335   0.6142     C
C       0.6495   0.8665   0.1142     C
C       0.6495   0.8858   0.8665     C
O       0.6643   0.0386   0.2259     O
O       0.6643   0.2259   0.9614     O
O       0.6643   0.2741   0.4614     O
O       0.6643   0.4614   0.7259     O
O       0.6643   0.5386   0.2741     O
O       0.6643   0.7259   0.5386     O
O       0.6643   0.7741   0.0386     O
O       0.6643   0.9614   0.7741     O
O       0.6671   0.0279   0.6977     O
O       0.6671   0.1977   0.5279     O
O       0.6671   0.3023   0.0279     O
O       0.6671   0.4721   0.1977     O
O       0.6671   0.5279   0.8023     O
O       0.6671   0.6977   0.9721     O
O       0.6671   0.8023   0.4721     O
O       0.6671   0.9721   0.3023     O
O       0.6712   0.0635   0.7905     O
O       0.6712   0.2095   0.0635     O
O       0.6712   0.2905   0.5635     O
O       0.6712   0.4365   0.2905     O
O       0.6712   0.5635   0.7095     O
O       0.6712   0.7095   0.4365     O
O       0.6712   0.7905   0.9365     O
O       0.6712   0.9365   0.2095     O
C       0.6758   0.0845   0.6404     C
C       0.6758   0.1404   0.5845     C
C       0.6758   0.3596   0.0845     C
C       0.6758   0.4155   0.1404     C
C       0.6758   0.5845   0.8596     C
C       0.6758   0.6404   0.9155     C
C       0.6758   0.8596   0.4155     C
C       0.6758   0.9155   0.3596     C
H       0.6771   0.0293   0.5293     H
H       0.6771   0.4707   0.0293     H
H       0.6771   0.5293   0.9707     H
H       0.6771   0.9707   0.4707     H
C       0.6796   0.0975   0.1716     C
C       0.6796   0.1716   0.9025     C
C       0.6796   0.3284   0.4025     C
C       0.6796   0.4025   0.6716     C
C       0.6796   0.5975   0.3284     C
C       0.6796   0.6716   0.5975     C
C       0.6796   0.8284   0.0975     C
C       0.6796   0.9025   0.8284     C
H       0.6817    0.207   0.2343     H
H       0.6817   0.2343    0.793     H
H       0.6817   0.2657    0.293     H
H       0.6817    0.293   0.7343     H
H       0.6817    0.707   0.2657     H
H       0.6817   0.7343    0.707     H
H       0.6817   0.7657    0.207     H
H       0.6817    0.793   0.7657     H
C        0.683   0.1173   0.8462     C
C        0.683   0.1538   0.1173     C
C        0.683   0.3462   0.6173     C
C        0.683   0.3827   0.3462     C
C        0.683   0.6173   0.6538     C
C        0.683   0.6538   0.3827     C
C        0.683   0.8462   0.8827     C
C        0.683   0.8827   0.1538     C
C       0.7263    0.016    0.516     C
C       0.7263    0.484    0.016     C
C       0.7263    0.516    0.984     C
C       0.7263    0.984    0.484     C
C       0.7312   0.2205    0.247     C
C       0.7312    0.247   0.7795     C
C       0.7312    0.253   0.2795     C
C       0.7312   0.2795    0.747     C
C       0.7312   0.7205    0.253     C
C       0.7312    0.747   0.7205     C
C       0.7312    0.753   0.2205     C
C       0.7312   0.7795    0.753     C
C       0.7409   0.0641   0.6193     C
C       0.7409   0.1193   0.5641     C
C       0.7409   0.3807   0.0641     C
C       0.7409   0.4359   0.1193     C
C       0.7409   0.5641   0.8807     C
C       0.7409   0.6193   0.9359     C
C       0.7409   0.8807   0.4359     C
C       0.7409   0.9359   0.3807     C
C       0.7433   0.1196   0.1945     C
C       0.7433   0.1945   0.8804     C
C       0.7433   0.3055   0.3804     C
C       0.7433   0.3804   0.6945     C
C       0.7433   0.6196   0.3055     C
C       0.7433   0.6945   0.6196     C
C       0.7433   0.8055   0.1196     C
C       0.7433   0.8804   0.8055     C
C       0.7452   0.1408   0.8236     C
C       0.7452   0.1764   0.1408     C
C       0.7452   0.3236   0.6408     C
C       0.7452   0.3592   0.3236     C
C       0.7452   0.6408   0.6764     C
C       0.7452   0.6764   0.3592     C
C       0.7452   0.8236   0.8592     C
C       0.7452   0.8592   0.1764     C
H       0.7622   0.0367   0.6305     H
H       0.7622   0.1305   0.5367     H
H       0.7622   0.3695   0.0367     H
H       0.7622   0.4633   0.1305     H
H       0.7622   0.5367   0.8695     H
H       0.7622   0.6305   0.9633     H
H       0.7622   0.8695   0.4633     H
H       0.7622   0.9633   0.3695     H
H       0.7646   0.1075   0.2215     H
H       0.7646   0.2215   0.8925     H
H       0.7646   0.2785   0.3925     H
H       0.7646   0.3925   0.7215     H
H       0.7646   0.6075   0.2785     H
H       0.7646   0.7215   0.6075     H
H       0.7646   0.7785   0.1075     H
H       0.7646   0.8925   0.7785     H
H        0.766   0.1303   0.7959     H
H        0.766   0.2041   0.1303     H
H        0.766   0.2959   0.6303     H
H        0.766   0.3697   0.2959     H
H        0.766   0.6303   0.7041     H
H        0.766   0.7041   0.3697     H
H        0.766   0.7959   0.8697     H
H        0.766   0.8697   0.2041     H
C       0.7765   0.1589   0.1789     C
C       0.7765   0.1789   0.8411     C
C       0.7765   0.3211   0.3411     C
C       0.7765   0.3411   0.6789     C
C       0.7765   0.6589   0.3211     C
C       0.7765   0.6789   0.6589     C
C       0.7765   0.8211   0.1589     C
C       0.7765   0.8411   0.8211     C
C       0.7771   0.0821   0.5821     C
C       0.7771   0.4179   0.0821     C
C       0.7771   0.5821   0.9179     C
C       0.7771   0.9179   0.4179     C
C       0.8167   0.0258   0.5258     C
C       0.8167   0.4742   0.0258     C
C       0.8167   0.5258   0.9742     C
C       0.8167   0.9742   0.4742     C
C       0.8184   0.2112   0.2362     C
C       0.8184   0.2362   0.7888     C
C       0.8184   0.2638   0.2888     C
C       0.8184   0.2888   0.7362     C
C       0.8184   0.7112   0.2638     C
C       0.8184   0.7362   0.7112     C
C       0.8184   0.7638   0.2112     C
C       0.8184   0.7888   0.7638     C
C       0.8429   0.0573   0.5573     C
C       0.8429   0.4427   0.0573     C
C       0.8429   0.5573   0.9427     C
C       0.8429   0.9427   0.4427     C
C        0.843   0.1829    0.203     C
C        0.843    0.203   0.8171     C
C        0.843    0.297   0.3171     C
C        0.843   0.3171    0.703     C
C        0.843   0.6829    0.297     C
C        0.843    0.703   0.6829     C
C        0.843    0.797   0.1829     C
C        0.843   0.8171    0.797     C
N       0.8741    0.239    0.261     N
N       0.8741    0.261    0.761     N
N       0.8741    0.739    0.239     N
N       0.8741    0.761    0.739     N
N       0.8769      0.0      0.5     N
N       0.8769      0.5      0.0     N
H       0.9196   0.1258   0.1431     H
H       0.9196   0.1431   0.8742     H
H       0.9196   0.3569   0.3742     H
H       0.9196   0.3742   0.6431     H
H       0.9196   0.6258   0.3569     H
H       0.9196   0.6431   0.6258     H
H       0.9196   0.8569   0.1258     H
H       0.9196   0.8742   0.8569     H
H       0.9205    0.116    0.616     H
H       0.9205    0.384    0.116     H
H       0.9205    0.616    0.884     H
H       0.9205    0.884    0.384     H
C       0.9277    0.175   0.1932     C
C       0.9277   0.1932    0.825     C
C       0.9277   0.3068    0.325     C
C       0.9277    0.325   0.6932     C
C       0.9277    0.675   0.3068     C
C       0.9277   0.6932    0.675     C
C       0.9277   0.8068    0.175     C
C       0.9277    0.825   0.8068     C
C       0.9286   0.0661   0.5661     C
C       0.9286   0.4339   0.0661     C
C       0.9286   0.5661   0.9339     C
C       0.9286   0.9339   0.4339     C
C       0.9557   0.1436   0.1613     C
C       0.9557   0.1613   0.8564     C
C       0.9557   0.3387   0.3564     C
C       0.9557   0.3564   0.6613     C
C       0.9557   0.6436   0.3387     C
C       0.9557   0.6613   0.6436     C
C       0.9557   0.8387   0.1436     C
C       0.9557   0.8564   0.8387     C
C       0.9567    0.098    0.598     C
C       0.9567    0.402    0.098     C
C       0.9567    0.598    0.902     C
C       0.9567    0.902    0.402     C
