data_I
_chemical_name_common  '/home/zhangsd/repos/MofS-CGCNN/ML/data/TSD/clean_cifs/GEDLIM_clean'
_cell_length_a 12.88420
_cell_length_b 14.59560
_cell_length_c 14.59560
_cell_angle_alpha 90.00000
_cell_angle_beta  90.00000
_cell_angle_gamma 90.00000
_space_group_name_H-M_alt      'P 1'


loop_
_space_group_symop_operation_xyz
  'x, y, z' 

loop_
_atom_site_label
_atom_site_fract_x
_atom_site_fract_y
_atom_site_fract_z
_atom_site_type_symbol
Zn         0.0      0.0      0.5    Zn
Zn         0.0      0.5      0.0    Zn
N        0.024   0.1952   0.4802     N
N        0.024   0.4802   0.8048     N
N        0.024   0.5198   0.1952     N
N        0.024   0.8048   0.5198     N
O       0.0392     0.08   0.6819     O
O       0.0392   0.3181     0.08     O
O       0.0392   0.6819     0.92     O
O       0.0392     0.92   0.3181     O
H       0.0636   0.3212   0.4422     H
H       0.0636   0.4422   0.6788     H
H       0.0636   0.5578   0.3212     H
H       0.0636   0.6788   0.5578     H
N        0.074   0.1138   0.4583     N
N        0.074   0.4583   0.8862     N
N        0.074   0.5417   0.1138     N
N        0.074   0.8862   0.5417     N
C       0.0788   0.2583   0.4393     C
C       0.0788   0.4393   0.7417     C
C       0.0788   0.5607   0.2583     C
C       0.0788   0.7417   0.5607     C
H       0.1231   0.2563   0.6688     H
H       0.1231   0.3312   0.2563     H
H       0.1231   0.6688   0.7437     H
H       0.1231   0.7437   0.3312     H
C       0.1553   0.1305   0.4053     C
C       0.1553   0.4053   0.8695     C
C       0.1553   0.5947   0.1305     C
C       0.1553   0.8695   0.5947     C
N       0.1605   0.2225   0.3917     N
N       0.1605   0.3917   0.7775     N
N       0.1605   0.6083   0.2225     N
N       0.1605   0.7775   0.6083     N
H       0.1919   0.0042   0.3606     H
H       0.1919   0.3606   0.9958     H
H       0.1919   0.6394   0.0042     H
H       0.1919   0.9958   0.6394     H
C        0.195   0.2663   0.6728     C
C        0.195   0.3272   0.2663     C
C        0.195   0.6728   0.7337     C
C        0.195   0.7337   0.3272     C
C       0.2266    0.063   0.3654     C
C       0.2266   0.3654    0.937     C
C       0.2266   0.6346    0.063     C
C       0.2266    0.937   0.6346     C
C       0.2323   0.2744   0.3358     C
C       0.2323   0.3358   0.7256     C
C       0.2323   0.6642   0.2744     C
C       0.2323   0.7256   0.6642     C
H       0.2365    0.162   0.5904     H
H       0.2365   0.4096    0.162     H
H       0.2365   0.5904    0.838     H
H       0.2365    0.838   0.4096     H
H       0.2478   0.0832   0.3049     H
H       0.2478   0.3049   0.9168     H
H       0.2478   0.6951   0.0832     H
H       0.2478   0.9168   0.6951     H
C       0.2625   0.2109   0.6254     C
C       0.2625   0.3746   0.2109     C
C       0.2625   0.6254   0.7891     C
C       0.2625   0.7891   0.3746     C
H       0.2873    0.057   0.4043     H
H       0.2873   0.4043    0.943     H
H       0.2873   0.5957    0.057     H
H       0.2873    0.943   0.5957     H
C       0.3376   0.2667   0.3535     C
C       0.3376   0.3535   0.7333     C
C       0.3376   0.6465   0.2667     C
C       0.3376   0.7333   0.6465     C
H        0.362   0.2297   0.4015     H
H        0.362   0.4015   0.7703     H
H        0.362   0.5985   0.2297     H
H        0.362   0.7703   0.5985     H
C       0.3699   0.2266   0.6289     C
C       0.3699   0.3711   0.2266     C
C       0.3699   0.6289   0.7734     C
C       0.3699   0.7734   0.3711     C
O       0.4027   0.0957   0.5401     O
O       0.4027   0.4599   0.0957     O
O       0.4027   0.5401   0.9043     O
O       0.4027   0.9043   0.4599     O
C       0.4066   0.2977   0.6842     C
C       0.4066   0.3158   0.2977     C
C       0.4066   0.6842   0.7023     C
C       0.4066   0.7023   0.3158     C
C       0.4445   0.1647   0.5802     C
C       0.4445   0.4198   0.1647     C
C       0.4445   0.5802   0.8353     C
C       0.4445   0.8353   0.4198     C
H       0.4784   0.3083   0.6886     H
H       0.4784   0.3114   0.3083     H
H       0.4784   0.6886   0.6917     H
H       0.4784   0.6917   0.3114     H
Zn         0.5      0.0      0.5    Zn
Zn         0.5      0.5      0.0    Zn
N        0.524   0.0198   0.3048     N
N        0.524   0.3048   0.9802     N
N        0.524   0.6952   0.0198     N
N        0.524   0.9802   0.6952     N
O       0.5392   0.1819     0.58     O
O       0.5392     0.42   0.1819     O
O       0.5392     0.58   0.8181     O
O       0.5392   0.8181     0.42     O
H       0.5636   0.0578   0.1788     H
H       0.5636   0.1788   0.9422     H
H       0.5636   0.8212   0.0578     H
H       0.5636   0.9422   0.8212     H
N        0.574   0.0417   0.3862     N
N        0.574   0.3862   0.9583     N
N        0.574   0.6138   0.0417     N
N        0.574   0.9583   0.6138     N
C       0.5788   0.0607   0.2417     C
C       0.5788   0.2417   0.9393     C
C       0.5788   0.7583   0.0607     C
C       0.5788   0.9393   0.7583     C
H       0.6231   0.1688   0.7563     H
H       0.6231   0.2437   0.1688     H
H       0.6231   0.7563   0.8312     H
H       0.6231   0.8312   0.2437     H
C       0.6553   0.0947   0.3695     C
C       0.6553   0.3695   0.9053     C
C       0.6553   0.6305   0.0947     C
C       0.6553   0.9053   0.6305     C
N       0.6605   0.1083   0.2775     N
N       0.6605   0.2775   0.8917     N
N       0.6605   0.7225   0.1083     N
N       0.6605   0.8917   0.7225     N
H       0.6919   0.1394   0.4958     H
H       0.6919   0.4958   0.8606     H
H       0.6919   0.5042   0.1394     H
H       0.6919   0.8606   0.5042     H
C        0.695   0.1728   0.7663     C
C        0.695   0.2337   0.1728     C
C        0.695   0.7663   0.8272     C
C        0.695   0.8272   0.2337     C
C       0.7266   0.1346    0.437     C
C       0.7266    0.437   0.8654     C
C       0.7266    0.563   0.1346     C
C       0.7266   0.8654    0.563     C
C       0.7323   0.1642   0.2256     C
C       0.7323   0.2256   0.8358     C
C       0.7323   0.7744   0.1642     C
C       0.7323   0.8358   0.7744     C
H       0.7365   0.0904    0.662     H
H       0.7365    0.338   0.0904     H
H       0.7365    0.662   0.9096     H
H       0.7365   0.9096    0.338     H
H       0.7478   0.1951   0.4168     H
H       0.7478   0.4168   0.8049     H
H       0.7478   0.5832   0.1951     H
H       0.7478   0.8049   0.5832     H
C       0.7625   0.1254   0.7109     C
C       0.7625   0.2891   0.1254     C
C       0.7625   0.7109   0.8746     C
C       0.7625   0.8746   0.2891     C
H       0.7873   0.0957    0.443     H
H       0.7873    0.443   0.9043     H
H       0.7873    0.557   0.0957     H
H       0.7873   0.9043    0.557     H
C       0.8376   0.1465   0.2333     C
C       0.8376   0.2333   0.8535     C
C       0.8376   0.7667   0.1465     C
C       0.8376   0.8535   0.7667     C
H        0.862   0.0985   0.2703     H
H        0.862   0.2703   0.9015     H
H        0.862   0.7297   0.0985     H
H        0.862   0.9015   0.7297     H
C       0.8699   0.1289   0.7266     C
C       0.8699   0.2734   0.1289     C
C       0.8699   0.7266   0.8711     C
C       0.8699   0.8711   0.2734     C
O       0.9027   0.0401   0.5957     O
O       0.9027   0.4043   0.0401     O
O       0.9027   0.5957   0.9599     O
O       0.9027   0.9599   0.4043     O
C       0.9066   0.1842   0.7977     C
C       0.9066   0.2023   0.1842     C
C       0.9066   0.7977   0.8158     C
C       0.9066   0.8158   0.2023     C
C       0.9445   0.0802   0.6647     C
C       0.9445   0.3353   0.0802     C
C       0.9445   0.6647   0.9198     C
C       0.9445   0.9198   0.3353     C
H       0.9784   0.1886   0.8083     H
H       0.9784   0.1917   0.1886     H
H       0.9784   0.8083   0.8114     H
H       0.9784   0.8114   0.1917     H
