data_I
_chemical_name_common  '/home/zhangsd/repos/MofS-CGCNN/ML/data/TSD/clean_cifs/GEFYUN_clean'
_cell_length_a 18.55610
_cell_length_b 18.55610
_cell_length_c 21.26280
_cell_angle_alpha 90.00000
_cell_angle_beta  90.00000
_cell_angle_gamma 120.00000
_space_group_name_H-M_alt      'P 1'


loop_
_space_group_symop_operation_xyz
  'x, y, z' 

loop_
_atom_site_label
_atom_site_fract_x
_atom_site_fract_y
_atom_site_fract_z
_atom_site_type_symbol
C        0.001   0.5928  0.06353     C
C       0.0016   0.7923  0.81277     C
C       0.0047   0.4782  0.56847     C
H       0.0118   0.6482   0.2695     H
H       0.0125   0.3736  0.58487     H
C       0.0125   0.7761  0.87447     C
H       0.0184   0.5947  0.55097     H
H       0.0227   0.7085  0.39807     H
C       0.0285   0.4934   0.3006     C
C       0.0312   0.4221  0.55977     C
C       0.0318   0.7295  0.43977     C
C       0.0353    0.468  0.06513     C
H       0.0357    0.847  0.79697     H
C       0.0362   0.5566  0.53927     C
H       0.0397   0.5025  0.73597     H
H       0.0449   0.4223  0.06533     H
N       0.0483    0.573   0.3028     N
H       0.0499    0.819  0.90187     H
C       0.0542   0.7893  0.55877     C
H       0.0579   0.6128   0.9169     H
H       0.0611   0.4885   0.9112     H
H       0.0615    0.812  0.59987     H
H       0.0625   0.4782    0.324     H
C       0.0695   0.6044  0.09733     C
C        0.085   0.4413  0.51337     C
C       0.0873   0.5411  0.09873     C
C       0.0918   0.7217  0.47637     C
C       0.0932   0.5737  0.49357     C
H       0.1015   0.4026  0.50067     H
C       0.1033   0.7541  0.53887     C
H       0.1035   0.6551  0.11903     H
C       0.1072   0.6122   0.9278     C
C       0.1091   0.5383   0.9244     C
C       0.1182   0.5186  0.48247     C
H       0.1395   0.6984  0.80587     H
H       0.1427   0.7523  0.56637     H
P        0.144   0.6692  0.44873     P
H       0.1488   0.6158  0.20693     H
H        0.153   0.1887  0.46363     H
Cu     0.15713  0.66498  0.34284    Cu
H       0.1607   0.5324  0.45207     H
C       0.1608   0.5481  0.13613     C
H       0.1608   0.7756  0.71497     H
Br      0.1648  0.78871  0.29821    Br
H        0.176   0.7354   0.9496     H
C       0.1773   0.6849   0.9472     C
C       0.1778   0.7007  0.77517     C
C         0.18   0.5909  0.19303     C
H        0.181   0.2309  0.56853     H
C       0.1812   0.5373   0.9404     C
H       0.1826   0.4869   0.9381     H
H        0.188   0.2495  0.26653     H
H       0.1887    0.153  0.20303     H
H       0.1895    0.485  0.07713     H
C       0.1924   0.7492  0.72317     C
H       0.2008   0.6182  0.81847     H
H       0.2033   0.4751  0.31413     H
C       0.2046   0.5142  0.11603     C
C       0.2077   0.2093  0.47943     C
C       0.2093   0.2077  0.18723     C
C       0.2107   0.2649  0.22543     C
Br     0.21129  0.37609  0.96488    Br
C       0.2158   0.6559  0.78417     C
C       0.2239   0.2364  0.54113     C
H       0.2244   0.3852  0.38163     H
H       0.2309    0.181  0.09813     H
H       0.2319   0.6645  0.56607     H
C       0.2364   0.2239  0.12553     C
C       0.2411   0.4978  0.34833     C
C       0.2445   0.5969  0.22913     C
C       0.2459   0.3492  0.20553     C
H       0.2477   0.3904  0.23303     H
C       0.2482   0.7286  0.48227     C
H       0.2495    0.188  0.40013     H
C       0.2495    0.684   0.9632     C
C       0.2508   0.4432  0.38983     C
C       0.2514   0.6101   0.9598     C
C       0.2567   0.7589  0.68167     C
P      0.26405   0.6487  0.30658     P
H       0.2646   0.4406  0.61627     H
C       0.2649   0.2107  0.44123     C
H       0.2663   0.5637  0.64317     H
C       0.2705   0.3023  0.10643     C
C       0.2714   0.5196  0.14893     C
H       0.2718   0.7967  0.64747     H
C        0.272   0.7094  0.54147     C
C       0.2756   0.6662  0.74357     C
C       0.2783   0.3701  0.14303     C
C        0.282   0.5774  0.35593     C
C       0.2906   0.5626  0.20813     C
H       0.2915   0.3142  0.06473     H
C       0.2954    0.718  0.68927     C
H       0.2955   0.8105  0.41047     H
H       0.2974   0.7337   0.9765     H
C       0.2993   0.4771  0.44183     C
H       0.3011   0.8985    0.834     H
H       0.3016   0.4411  0.47253     H
C       0.3023   0.2705  0.56023     C
H       0.3043   0.8174  0.27143     H
H       0.3056    0.638  0.75127     H
C       0.3096   0.7954  0.44937     C
H       0.3142   0.2915  0.60193     H
C       0.3151   0.4924  0.61387     C
C        0.316   0.5655  0.62987     C
P       0.3308   0.4748  0.11539     P
H       0.3324   0.6944   0.0846     H
C       0.3338   0.6094  0.41023     C
Cu     0.33502  0.49215  0.00951    Cu
H       0.3355   0.5674  0.23273     H
C       0.3441   0.5599  0.45083     C
H       0.3449   0.4484   0.7857     H
C       0.3492   0.2459  0.46113     C
P       0.3513  0.61535  0.97325     P
H       0.3518   0.3636  0.93617     H
C       0.3524   0.7555  0.56247     C
C       0.3561   0.8188  0.27373     C
C       0.3563    0.915   0.8467     C
C       0.3587   0.7486  0.29313     C
H       0.3611   0.9875   0.9182     H
H        0.362   0.6676  0.41793     H
H       0.3636   0.3518   0.7305     H
C       0.3701   0.2783  0.52363     C
H       0.3717   0.8393   0.7854     H
H       0.3736   0.0125   0.0818     H
Br     0.37609  0.21129  0.70179    Br
H       0.3774   0.9551  0.39867     H
H       0.3818   0.5826  0.48513     H
H       0.3842    0.533   0.8736     H
P      0.38465  0.73595  0.63992     P
H       0.3852   0.2244  0.28503     H
H       0.3872   0.4451  0.58357     H
C       0.3873   0.8392  0.46947     C
C       0.3878    0.495  0.59447     C
C       0.3899   0.6413  0.62647     C
H       0.3904   0.2477  0.43363     H
C       0.3906   0.7244   0.0769     C
C       0.3909   0.9688   0.8931     C
C       0.3956   0.4651    0.764     C
C       0.4004   0.8818   0.8158     C
H       0.4026   0.1015    0.166     H
C       0.4031   0.6476   0.8958     C
H       0.4053   0.4237  0.21763     H
C       0.4072   0.4082   0.7302     C
C       0.4082   0.4072  0.93647     C
C       0.4091   0.5891   0.8597     C
C       0.4109     0.82  0.52637     C
H       0.4157   0.9375  0.65733     H
H       0.4174   0.7992   0.1518     H
C       0.4221   0.0312   0.1069     C
H       0.4223   0.0449  0.60133     H
C       0.4226   0.7046   0.0226     C
H       0.4237   0.4053  0.44903     H
C       0.4263   0.5195  0.16023     C
N        0.427   0.4753  0.96947     N
H       0.4274   0.9389  0.24453     H
C       0.4292   0.8909  0.25773     C
H       0.4326   0.7681   0.8994     H
C       0.4327   0.9647  0.39847     C
C       0.4345   0.7505  0.29653     C
H       0.4363   0.7026  0.30983     H
C       0.4374    0.728   0.8748     C
C       0.4401   0.7842   0.1175     C
H       0.4406   0.2646   0.0504     H
H       0.4411   0.3016  0.19413     H
C       0.4413    0.085   0.1533     C
C       0.4432   0.2508  0.27683     C
C       0.4434   0.4796  0.20593     C
H       0.4451   0.3872   0.0831     H
H       0.4484   0.3449  0.88097     H
C       0.4519   0.6127   0.8028     C
C       0.4538   0.9127  0.43207     C
C       0.4589   0.5462   0.7654     C
C       0.4617   0.5708  0.59107     C
C       0.4627   0.6439  0.60707     C
H       0.4628   0.9603   0.0693     H
C       0.4649   0.9715  0.63393     C
C       0.4651   0.3956  0.90267     C
H        0.467   0.8512  0.54027     H
H       0.4676   0.6283  0.11873     H
C        0.468   0.0353  0.60153     C
C       0.4735   0.9953   0.9018     C
P       0.4748   0.3308  0.55127     P
H       0.4751   0.2033  0.35253     H
N       0.4753    0.427   0.6972     N
C       0.4771   0.2993  0.22483     C
C       0.4782   0.0047   0.0982     C
H       0.4782   0.0625  0.34267     H
C       0.4796   0.4434  0.46073     C
C       0.4804   0.7518   0.8156     C
C       0.4805   0.9068   0.8269     C
C       0.4814   0.5996  0.14913     C
H        0.485   0.1895  0.58953     H
C       0.4858   0.6904   0.7827     C
H       0.4869   0.1826  0.72857     H
H       0.4885   0.0611  0.75547     H
Cu     0.49215  0.33502  0.65716    Cu
C       0.4924   0.3151   0.0528     C
C       0.4934   0.0285  0.36607     C
C        0.495   0.3878   0.0722     C
H       0.4975   0.5372  0.40263     H
C       0.4978   0.2411  0.31833     C
C       0.5022   0.7433    0.015     C
H       0.5025   0.0397   0.9307     H
C        0.505   0.8928  0.26113     C
C       0.5066   0.5351  0.96727     C
C       0.5076   0.8227  0.28053     C
Cu     0.50785  0.84287  0.67618    Cu
H       0.5115   0.5726  0.57787     H
H       0.5131   0.6957  0.60477     H
C       0.5142   0.2046  0.55063     C
H        0.515   0.7045   0.7438     H
C       0.5186   0.1182   0.1842     C
C       0.5195   0.4263  0.50643     C
C       0.5196   0.2714  0.51773     C
C       0.5204   0.9638   0.8726     C
C       0.5218   0.5265  0.23513     C
H       0.5218   0.5843  0.99067     H
C       0.5229   0.8222   0.1085     C
N       0.5247   0.9517  0.63613     N
H       0.5249   0.7282   0.9808     H
P       0.5252    0.856  0.78206     P
C       0.5265   0.5218  0.43153     C
C        0.532   0.5673   0.7318     C
H       0.5324   0.1607   0.2146     H
H        0.533   0.3842  0.79307     H
C       0.5349   0.9305  0.43067     C
C       0.5351   0.5066   0.6994     C
H       0.5372   0.4975  0.26403     H
C       0.5373   0.1812  0.72627     C
C       0.5383   0.1091  0.74227     C
C       0.5411   0.0873  0.56793     C
C       0.5462   0.4589  0.90127     C
C       0.5481   0.1608  0.53053     C
H       0.5516   0.8965  0.45237     H
H       0.5549   0.9421  0.25023     H
C       0.5566   0.0362   0.1274     C
C       0.5568   0.8076   0.0565     C
C       0.5587   0.6437  0.18003     C
H       0.5589   0.8605   0.1392     H
H       0.5594    0.824  0.28293     H
C       0.5599   0.3441  0.21583     C
C       0.5626   0.2906  0.45853     C
H       0.5637   0.2663   0.0235     H
C       0.5655    0.316   0.0368     C
C       0.5673    0.532  0.93487     C
H       0.5674   0.3355  0.43393     H
C       0.5708   0.4617   0.0756     C
H       0.5726   0.5115   0.0888     H
N        0.573   0.0483  0.36387     N
C       0.5737   0.0932   0.1731     C
H       0.5763   0.9816   0.8843     H
C       0.5774    0.282  0.31073     C
H       0.5777   0.6226    0.732     H
C       0.5779   0.6091  0.22643     C
H       0.5826   0.3818  0.18153     H
H       0.5843   0.5218    0.676     H
C       0.5891   0.4091  0.80697     C
C       0.5909     0.18  0.47363     C
C       0.5918    0.999  0.39687     C
C       0.5928    0.001  0.60313     C
H       0.5947   0.0184   0.1157     H
C       0.5969   0.2445  0.43753     C
H       0.5974   0.6989  0.16733     H
C       0.5996   0.4814  0.51753     C
C       0.6044   0.0695  0.56933     C
C       0.6091   0.5779  0.44023     C
C       0.6094   0.3338  0.25643     C
H       0.6096   0.8573   0.8997     H
C       0.6101   0.2514  0.70687     C
C       0.6122   0.1072  0.73887     C
C       0.6127   0.4519  0.86387     C
H       0.6128   0.0579  0.74977     H
H       0.6148   0.8392   0.0483     H
P      0.61535   0.3513  0.69342     P
H       0.6158   0.1488  0.45973     H
H       0.6182   0.2008   0.8482     H
H       0.6226   0.5777  0.93467     H
Br     0.62391   0.8352  0.63155    Br
H       0.6264   0.6389  0.25153     H
H       0.6283   0.4676  0.54793     H
C       0.6299   0.9082   0.8097     C
H       0.6364   0.9882  0.60283     H
H        0.638   0.3056   0.9154     H
H       0.6389   0.6264  0.41513     H
C       0.6413   0.3899   0.0402     C
C       0.6437   0.5587  0.48663     C
C       0.6439   0.4627   0.0596     C
C       0.6476   0.4031  0.77087     C
H       0.6482   0.0118  0.39717     H
P       0.6487  0.26405  0.36008     P
C       0.6508   0.8967   0.8722     C
H       0.6551   0.1035  0.54763     H
C       0.6559   0.2158   0.8825     C
H       0.6645   0.2319   0.1006     H
Cu     0.66498  0.15713  0.32382    Cu
C       0.6662   0.2756   0.9231     C
H       0.6676    0.362  0.24873     H
P       0.6692    0.144  0.21794     P
C        0.684   0.2495  0.70347     C
C       0.6849   0.1773  0.71947     C
H       0.6858   0.9773   0.7314     H
C       0.6904   0.4858  0.88397     C
H       0.6944   0.3324  0.58207     H
H       0.6957   0.5131   0.0619     H
C       0.6977   0.9682   0.7731     C
H       0.6984   0.1395   0.8608     H
H       0.6989   0.5974  0.49933     H
C       0.7007   0.1778   0.8915     C
H       0.7026   0.4363  0.35683     H
H       0.7045    0.515  0.92287     H
C       0.7046   0.4226  0.64407     C
H       0.7085   0.0227   0.2686     H
C       0.7094    0.272   0.1252     C
C        0.718   0.2954   0.9774     C
C       0.7217   0.0918   0.1903     C
C       0.7244   0.3906  0.58977     C
C        0.728   0.4374  0.79187     C
H       0.7282   0.5249  0.68587     H
C       0.7286   0.2482   0.1844     C
C       0.7295   0.0318   0.2269     C
H       0.7337   0.2974  0.69017     H
C       0.7351   0.9458   0.8921     C
H       0.7354    0.176  0.71707     H
P      0.73595  0.38465  0.02675     P
C       0.7433   0.5022  0.65167     C
C       0.7486   0.3587  0.37353     C
C       0.7492   0.1924   0.9435     C
C       0.7505   0.4345  0.37013     C
H       0.7505   0.9385   0.9332     H
C       0.7518   0.4804  0.85107     C
H       0.7523   0.1427   0.1003     H
C       0.7541   0.1033   0.1278     C
C       0.7555   0.3524   0.1042     C
C       0.7589   0.2567    0.985     C
C       0.7636   0.9875   0.2078     C
H       0.7681   0.4326  0.76727     H
H       0.7691   0.9501   0.2352     H
H       0.7756   0.1608   0.9517     H
C       0.7761   0.0125   0.7922     C
C       0.7842   0.4401  0.54917     C
Br     0.78871   0.1648  0.36845    Br
C       0.7893   0.0542   0.1079     C
C       0.7907   0.9984   0.1461     C
C       0.7923   0.0016   0.8539     C
C       0.7954   0.3096   0.2173     C
H       0.7967   0.2718   0.0192     H
H       0.7992   0.4174  0.51487     H
C       0.8076   0.5568  0.61017     C
H       0.8105   0.2955   0.2562     H
H       0.8113   0.9643   0.1303     H
H        0.812   0.0615   0.0668     H
H       0.8174   0.3043  0.39523     H
C       0.8188   0.3561  0.39293     C
H        0.819   0.0499   0.7648     H
C         0.82   0.4109   0.1403     C
C       0.8222   0.5229  0.55817     C
C       0.8227   0.5076  0.38613     C
H        0.824   0.5594  0.38373     H
Br      0.8352  0.62391  0.03512    Br
C       0.8392   0.3873   0.1972     C
H       0.8392   0.6148  0.61837     H
H       0.8393   0.3717  0.88127     H
Cu     0.84287  0.50785  0.99049    Cu
H        0.847   0.0357   0.8697     H
H       0.8512    0.467   0.1264     H
P        0.856   0.5252  0.88461     P
H       0.8573   0.6096  0.76697     H
H       0.8605   0.5589  0.52747     H
C       0.8818   0.4004  0.85087     C
C       0.8909   0.4292  0.40893     C
C       0.8928    0.505  0.40553     C
H       0.8965   0.5516   0.2143     H
C       0.8967   0.6508  0.79447     C
H       0.8985   0.3011  0.83267     H
C       0.9068   0.4805  0.83977     C
C       0.9082   0.6299  0.85697     C
C       0.9127   0.4538   0.2346     C
C        0.915   0.3563  0.81997     C
C       0.9305   0.5349    0.236     C
H       0.9375   0.4157  0.00933     H
H       0.9385   0.7505  0.73347     H
H       0.9389   0.4274  0.42213     H
H       0.9421   0.5549  0.41643     H
C       0.9458   0.7351  0.77457     C
H       0.9501   0.7691  0.43147     H
N       0.9517   0.5247  0.03053     N
H       0.9551   0.3774    0.268     H
H       0.9603   0.4628  0.59737     H
C       0.9638   0.5204  0.79407     C
H       0.9643   0.8113  0.53637     H
C       0.9647   0.4327   0.2682     C
C       0.9682   0.6977  0.89357     C
C       0.9688   0.3909  0.77357     C
C       0.9715   0.4649  0.03273     C
H       0.9773   0.6858  0.93527     H
H       0.9816   0.5763  0.78237     H
H       0.9875   0.3611  0.74847     H
C       0.9875   0.7636  0.45887     C
H       0.9882   0.6364  0.06383     H
C       0.9953   0.4735  0.76487     C
C       0.9984   0.7907  0.52057     C
C        0.999   0.5918   0.2698     C
