data_I
_chemical_name_common  '/home/zhangsd/repos/MofS-CGCNN/ML/data/TSD/clean_cifs/GEGSIW_clean'
_cell_length_a 14.25430
_cell_length_b 15.44480
_cell_length_c 15.44480
_cell_angle_alpha 77.55480
_cell_angle_beta  90.00000
_cell_angle_gamma 90.00000
_space_group_name_H-M_alt      'P 1'


loop_
_space_group_symop_operation_xyz
  'x, y, z' 

loop_
_atom_site_label
_atom_site_fract_x
_atom_site_fract_y
_atom_site_fract_z
_atom_site_type_symbol
O      0.00021  0.37646   0.8735     O
O      0.00021   0.8735  0.37646     O
N       0.0037    0.556   0.6232     N
N       0.0037   0.6232    0.556     N
C       0.0539   0.3167   0.4237     C
C       0.0539   0.4237   0.3167     C
C       0.0731  0.10261  0.59257     C
C       0.0731  0.59257  0.10261     C
O      0.07366  0.05595  0.53493     O
O      0.07366  0.53493  0.05595     O
N       0.0931  0.34582  0.34582     N
O      0.10247   0.5803  0.84924     O
O      0.10247  0.84924   0.5803     O
H       0.1094   0.2119   0.6987     H
H       0.1094   0.6987   0.2119     H
Ca     0.11082  0.44042  0.96118    Ca
Ca     0.11082  0.96118  0.44042    Ca
H       0.1134   0.2961   0.7979     H
H       0.1134   0.7979   0.2961     H
H       0.1302   0.7105   0.7105     H
C        0.165  0.30469  0.30469     C
C      0.16548  0.13135  0.62467     C
C      0.16548  0.62467  0.13135     C
C      0.16558  0.18961  0.68205     C
C      0.16558  0.68205  0.18961     C
H       0.1738   0.1926   0.3998     H
H       0.1738   0.3998   0.1926     H
C       0.1756  0.30794  0.80942     C
C       0.1756  0.80942  0.30794     C
C       0.1842  0.73224  0.73224     C
C      0.18837   0.5976  0.85606     C
C      0.18837  0.85606   0.5976     C
C       0.2004   0.2229  0.34698     C
C       0.2004  0.34698   0.2229     C
N      0.20176  0.35896   0.8615     N
N      0.20176   0.8615  0.35896     N
C       0.2254  0.68671  0.81097     C
C       0.2254  0.81097  0.68671     C
O      0.24543   0.5428  0.89998     O
O      0.24543  0.89998   0.5428     O
H         0.25   0.0607   0.5607     H
C         0.25  0.09935  0.59935     C
C         0.25  0.21405  0.71405     C
N         0.25  0.27405  0.77405     N
H         0.25   0.5607   0.0607     H
C         0.25  0.59935  0.09935     C
C         0.25  0.71405  0.21405     C
N         0.25  0.77405  0.27405     N
O      0.25457   0.0428  0.39998     O
O      0.25457  0.39998   0.0428     O
C       0.2746  0.18671  0.31097     C
C       0.2746  0.31097  0.18671     C
N      0.29824   0.3615  0.85896     N
N      0.29824  0.85896   0.3615     N
C       0.2996   0.7229  0.84698     C
C       0.2996  0.84698   0.7229     C
C      0.31163   0.0976  0.35606     C
C      0.31163  0.35606   0.0976     C
C       0.3158  0.23224  0.23224     C
C       0.3244  0.30942  0.80794     C
C       0.3244  0.80794  0.30942     C
H       0.3262   0.6926   0.8998     H
H       0.3262   0.8998   0.6926     H
C      0.33442  0.18205  0.68961     C
C      0.33442  0.68961  0.18205     C
C      0.33452  0.12467  0.63135     C
C      0.33452  0.63135  0.12467     C
C        0.335  0.80469  0.80469     C
H       0.3698   0.2105   0.2105     H
H       0.3866   0.2979   0.7961     H
H       0.3866   0.7961   0.2979     H
Ca     0.38918  0.46118  0.94042    Ca
Ca     0.38918  0.94042  0.46118    Ca
H       0.3906   0.1987   0.7119     H
H       0.3906   0.7119   0.1987     H
O      0.39753   0.0803  0.34924     O
O      0.39753  0.34924   0.0803     O
N       0.4069  0.84582  0.84582     N
O      0.42634  0.03493  0.55595     O
O      0.42634  0.55595  0.03493     O
C       0.4269  0.09257  0.60261     C
C       0.4269  0.60261  0.09257     C
C       0.4461   0.8167   0.9237     C
C       0.4461   0.9237   0.8167     C
N       0.4963    0.056   0.1232     N
N       0.4963   0.1232    0.056     N
O      0.49979   0.3735  0.87646     O
O      0.49979  0.87646   0.3735     O
O      0.50021  0.12354   0.6265     O
O      0.50021   0.6265  0.12354     O
N       0.5037   0.8768    0.944     N
N       0.5037    0.944   0.8768     N
C       0.5539   0.0763   0.1833     C
C       0.5539   0.1833   0.0763     C
C       0.5731  0.39739  0.90743     C
C       0.5731  0.90743  0.39739     C
O      0.57366  0.44405  0.96507     O
O      0.57366  0.96507  0.44405     O
N       0.5931  0.15418  0.15418     N
O      0.60247  0.65076   0.9197     O
O      0.60247   0.9197  0.65076     O
H       0.6094   0.2881   0.8013     H
H       0.6094   0.8013   0.2881     H
Ca     0.61082  0.05958  0.53882    Ca
Ca     0.61082  0.53882  0.05958    Ca
H       0.6134   0.2039   0.7021     H
H       0.6134   0.7021   0.2039     H
H       0.6302   0.7895   0.7895     H
C        0.665  0.19531  0.19531     C
C      0.66548  0.36865  0.87533     C
C      0.66548  0.87533  0.36865     C
C      0.66558  0.31039  0.81795     C
C      0.66558  0.81795  0.31039     C
H       0.6738   0.1002   0.3074     H
H       0.6738   0.3074   0.1002     H
C       0.6756  0.19206  0.69058     C
C       0.6756  0.69058  0.19206     C
C       0.6842  0.76776  0.76776     C
C      0.68837  0.64394   0.9024     C
C      0.68837   0.9024  0.64394     C
C       0.7004  0.15302   0.2771     C
C       0.7004   0.2771  0.15302     C
N      0.70176  0.14104   0.6385     N
N      0.70176   0.6385  0.14104     N
C       0.7254  0.68903  0.81329     C
C       0.7254  0.81329  0.68903     C
O      0.74543  0.60002   0.9572     O
O      0.74543   0.9572  0.60002     O
N         0.75  0.22595  0.72595     N
C         0.75  0.28595  0.78595     C
C         0.75  0.40065  0.90065     C
H         0.75   0.4393   0.9393     H
N         0.75  0.72595  0.22595     N
C         0.75  0.78595  0.28595     C
C         0.75  0.90065  0.40065     C
H         0.75   0.9393   0.4393     H
O      0.75457  0.10002   0.4572     O
O      0.75457   0.4572  0.10002     O
C       0.7746  0.18903  0.31329     C
C       0.7746  0.31329  0.18903     C
N      0.79824   0.1385  0.64104     N
N      0.79824  0.64104   0.1385     N
C       0.7996  0.65302   0.7771     C
C       0.7996   0.7771  0.65302     C
C      0.81163  0.14394   0.4024     C
C      0.81163   0.4024  0.14394     C
C       0.8158  0.26776  0.26776     C
C       0.8244  0.19058  0.69206     C
C       0.8244  0.69206  0.19058     C
H       0.8262   0.6002   0.8074     H
H       0.8262   0.8074   0.6002     H
C      0.83442  0.31795  0.81039     C
C      0.83442  0.81039  0.31795     C
C      0.83452  0.37533  0.86865     C
C      0.83452  0.86865  0.37533     C
C        0.835  0.69531  0.69531     C
H       0.8698   0.2895   0.2895     H
H       0.8866   0.2021   0.7039     H
H       0.8866   0.7039   0.2021     H
Ca     0.88918  0.03882  0.55958    Ca
Ca     0.88918  0.55958  0.03882    Ca
H       0.8906   0.3013   0.7881     H
H       0.8906   0.7881   0.3013     H
O      0.89753  0.15076   0.4197     O
O      0.89753   0.4197  0.15076     O
N       0.9069  0.65418  0.65418     N
O      0.92634  0.46507  0.94405     O
O      0.92634  0.94405  0.46507     O
C       0.9269  0.40743  0.89739     C
C       0.9269  0.89739  0.40743     C
C       0.9461   0.5763   0.6833     C
C       0.9461   0.6833   0.5763     C
N       0.9963   0.3768    0.444     N
N       0.9963    0.444   0.3768     N
O      0.99979   0.1265  0.62354     O
O      0.99979  0.62354   0.1265     O
