data_I
_chemical_name_common  '/home/zhangsd/repos/MofS-CGCNN/ML/data/TSD/clean_cifs/GERWEH_clean'
_cell_length_a  9.10500
_cell_length_b 17.49200
_cell_length_c 17.49200
_cell_angle_alpha 90.00000
_cell_angle_beta  90.00000
_cell_angle_gamma 90.00000
_space_group_name_H-M_alt      'P 1'


loop_
_space_group_symop_operation_xyz
  'x, y, z' 

loop_
_atom_site_label
_atom_site_fract_x
_atom_site_fract_y
_atom_site_fract_z
_atom_site_type_symbol
Si         0.0     0.25     0.75    Si
Si         0.0     0.75     0.25    Si
C       0.1205     0.25   0.6625     C
C       0.1205     0.25   0.8375     C
C       0.1205   0.6625     0.25     C
C       0.1205   0.8375     0.25     C
H       0.1399   0.1352   0.6517     H
H       0.1399   0.1352   0.8483     H
H       0.1399   0.3648   0.6517     H
H       0.1399   0.3648   0.8483     H
H       0.1399   0.6517   0.1352     H
H       0.1399   0.6517   0.3648     H
H       0.1399   0.8483   0.1352     H
H       0.1399   0.8483   0.3648     H
C       0.1731  0.18145   0.6319     C
C       0.1731  0.18145   0.8681     C
C       0.1731  0.31855   0.6319     C
C       0.1731  0.31855   0.8681     C
C       0.1731   0.6319  0.18145     C
C       0.1731   0.6319  0.31855     C
C       0.1731   0.8681  0.18145     C
C       0.1731   0.8681  0.31855     C
C       0.2748   0.1813   0.5723     C
C       0.2748   0.1813   0.9277     C
C       0.2748   0.3187   0.5723     C
C       0.2748   0.3187   0.9277     C
C       0.2748   0.5723   0.1813     C
C       0.2748   0.5723   0.3187     C
C       0.2748   0.9277   0.1813     C
C       0.2748   0.9277   0.3187     C
O       0.2955    0.047   0.5675     O
O       0.2955    0.047   0.9325     O
O       0.2955    0.453   0.5675     O
O       0.2955    0.453   0.9325     O
O       0.2955   0.5675    0.047     O
O       0.2955   0.5675    0.453     O
O       0.2955   0.9325    0.047     O
O       0.2955   0.9325    0.453     O
C       0.3233     0.25   0.5427     C
C       0.3233     0.25   0.9573     C
C       0.3233   0.5427     0.25     C
C       0.3233   0.9573     0.25     C
C       0.3412   0.1095   0.5416     C
C       0.3412   0.1095   0.9584     C
C       0.3412   0.3905   0.5416     C
C       0.3412   0.3905   0.9584     C
C       0.3412   0.5416   0.1095     C
C       0.3412   0.5416   0.3905     C
C       0.3412   0.9584   0.1095     C
C       0.3412   0.9584   0.3905     C
H       0.3896     0.25   0.5022     H
H       0.3896     0.25   0.9978     H
H       0.3896   0.5022     0.25     H
H       0.3896   0.9978     0.25     H
Cu     0.41513  0.54372  0.54372    Cu
Cu     0.41513  0.54372  0.95628    Cu
Cu     0.41513  0.95628  0.54372    Cu
Cu     0.41513  0.95628  0.95628    Cu
O       0.4411  0.00621   0.1178     O
O       0.4411  0.00621   0.3822     O
O       0.4411   0.1178  0.00621     O
O       0.4411   0.1178  0.49379     O
O       0.4411   0.3822  0.00621     O
O       0.4411   0.3822  0.49379     O
O       0.4411  0.49379   0.1178     O
O       0.4411  0.49379   0.3822     O
O       0.5589  0.50621   0.6178     O
O       0.5589  0.50621   0.8822     O
O       0.5589   0.6178  0.50621     O
O       0.5589   0.6178  0.99379     O
O       0.5589   0.8822  0.50621     O
O       0.5589   0.8822  0.99379     O
O       0.5589  0.99379   0.6178     O
O       0.5589  0.99379   0.8822     O
Cu     0.58487  0.04372  0.04372    Cu
Cu     0.58487  0.04372  0.45628    Cu
Cu     0.58487  0.45628  0.04372    Cu
Cu     0.58487  0.45628  0.45628    Cu
H       0.6104   0.0022     0.75     H
H       0.6104   0.4978     0.75     H
H       0.6104     0.75   0.0022     H
H       0.6104     0.75   0.4978     H
C       0.6588   0.0416   0.6095     C
C       0.6588   0.0416   0.8905     C
C       0.6588   0.4584   0.6095     C
C       0.6588   0.4584   0.8905     C
C       0.6588   0.6095   0.0416     C
C       0.6588   0.6095   0.4584     C
C       0.6588   0.8905   0.0416     C
C       0.6588   0.8905   0.4584     C
C       0.6767   0.0427     0.75     C
C       0.6767   0.4573     0.75     C
C       0.6767     0.75   0.0427     C
C       0.6767     0.75   0.4573     C
O       0.7045   0.0675    0.547     O
O       0.7045   0.0675    0.953     O
O       0.7045   0.4325    0.547     O
O       0.7045   0.4325    0.953     O
O       0.7045    0.547   0.0675     O
O       0.7045    0.547   0.4325     O
O       0.7045    0.953   0.0675     O
O       0.7045    0.953   0.4325     O
C       0.7252   0.0723   0.6813     C
C       0.7252   0.0723   0.8187     C
C       0.7252   0.4277   0.6813     C
C       0.7252   0.4277   0.8187     C
C       0.7252   0.6813   0.0723     C
C       0.7252   0.6813   0.4277     C
C       0.7252   0.8187   0.0723     C
C       0.7252   0.8187   0.4277     C
C       0.8269   0.1319  0.68145     C
C       0.8269   0.1319  0.81855     C
C       0.8269   0.3681  0.68145     C
C       0.8269   0.3681  0.81855     C
C       0.8269  0.68145   0.1319     C
C       0.8269  0.68145   0.3681     C
C       0.8269  0.81855   0.1319     C
C       0.8269  0.81855   0.3681     C
H       0.8601   0.1517   0.6352     H
H       0.8601   0.1517   0.8648     H
H       0.8601   0.3483   0.6352     H
H       0.8601   0.3483   0.8648     H
H       0.8601   0.6352   0.1517     H
H       0.8601   0.6352   0.3483     H
H       0.8601   0.8648   0.1517     H
H       0.8601   0.8648   0.3483     H
C       0.8795   0.1625     0.75     C
C       0.8795   0.3375     0.75     C
C       0.8795     0.75   0.1625     C
C       0.8795     0.75   0.3375     C
