data_I
_chemical_name_common  '/home/zhangsd/repos/MofS-CGCNN/ML/data/TSD/clean_cifs/GESDUF_clean'
_cell_length_a  8.14550
_cell_length_b 13.18690
_cell_length_c 19.36650
_cell_angle_alpha 109.90500
_cell_angle_beta  99.43920
_cell_angle_gamma 90.00000
_space_group_name_H-M_alt      'P 1'


loop_
_space_group_symop_operation_xyz
  'x, y, z' 

loop_
_atom_site_label
_atom_site_fract_x
_atom_site_fract_y
_atom_site_fract_z
_atom_site_type_symbol
Co         0.0      0.0      0.0    Co
H       0.0137   0.9466   0.6786     H
C       0.0339  0.19154  0.13988     C
C       0.0354  0.71085   0.4795     C
H        0.045   0.6437   0.7506     H
C        0.046  0.90659  0.51618     C
C       0.0484  0.10194  0.55488     C
C        0.061  0.29725   0.5909     C
C       0.0627  0.33857  0.26354     C
O       0.0648  0.61538  0.48892     O
C       0.0889  0.80874  0.52948     C
H       0.0914   0.6564   0.5976     H
C        0.093  0.00853  0.57046     C
C       0.0972  0.20767  0.60734     C
H       0.1032   0.4544    0.364     H
O       0.1076  0.12045  0.09516     O
O        0.109  0.40038  0.63666     O
O       0.1127  0.78798  0.87576     O
C        0.121  0.97926  0.69312     C
C       0.1308  0.25343  0.21506     C
C       0.1515  0.39726  0.33232     C
C        0.154  0.61974  0.55948     C
H       0.1559   0.2149   0.6544     H
H        0.156   0.8131   0.5742     H
H       0.1595   0.3958   0.7374     H
H       0.1631   0.9621   0.7934     H
H       0.1706   0.5476   0.5594     H
C       0.1892  0.01772  0.64484     C
H       0.1911   0.6737   0.3062     H
C       0.2101    0.989    0.762     C
C       0.2185  0.41386  0.70372     C
H       0.2383   0.7619   0.2742     H
H       0.2398    0.089    0.431     H
O         0.25   0.9334     -0.0     O
H       0.2602    0.658    0.569     H
H       0.2617   0.4877   0.7258     H
C       0.2815  0.71014  0.29628     C
C       0.2899    0.227    0.238     C
H       0.3089   0.3675   0.6938     H
C       0.3108  0.37288  0.35516     C
H       0.3294   0.9882   0.4406     H
H       0.3369   0.1687   0.2066     H
H       0.3405   0.6584   0.2626     H
H        0.344   0.2389   0.4258     H
H       0.3441   0.5605   0.3456     H
C        0.346  0.06026  0.44052     C
C       0.3485  0.06494  0.66768     C
C       0.3692  0.03837  0.78494     C
C        0.379  0.28614  0.30688     C
O       0.3873  0.91222  0.12424     O
O        0.391  0.76372  0.36334     O
O       0.3924  0.02529  0.90484     O
H       0.3968   0.0904    0.636     H
C       0.4028  0.60033  0.39266     C
C        0.407  0.43807  0.42954     C
H       0.4086   0.0588   0.4024     H
C       0.4111  0.27926  0.47052     C
O       0.4352  0.12646  0.51108     O
C       0.4373  0.07503  0.73646     C
C        0.439  0.70635   0.4091     C
C       0.4516  0.54706  0.44512     C
C        0.454  0.39041  0.48382     C
H        0.455   0.8931   0.2494     H
C       0.4646  0.23135   0.5205     C
C       0.4661  0.05166  0.86012     C
H       0.4863    0.268   0.3214     H
Co         0.5      0.0      0.0    Co
H       0.5137    0.732   0.6786     H
C       0.5339  0.94834  0.13988     C
C       0.5354  0.76865   0.4795     C
H        0.545   0.1069   0.7506     H
C        0.546  0.60959  0.51618     C
C       0.5484  0.45294  0.55488     C
C        0.561  0.29365   0.5909     C
C       0.5627  0.92497  0.26354     C
O       0.5648  0.87354  0.48892     O
C       0.5889  0.72074  0.52948     C
H       0.5914   0.9412   0.5976     H
C        0.593  0.56193  0.57046     C
C       0.5972  0.39967  0.60734     C
H       0.6032   0.9096    0.364     H
O       0.6076  0.97471  0.09516     O
O        0.609  0.23628  0.63666     O
O       0.6127  0.08778  0.87576     O
C        0.621  0.71386  0.69312     C
C       0.6308  0.96163  0.21506     C
C       0.6515  0.93506  0.33232     C
C        0.654  0.93974  0.55948     C
H       0.6559   0.4395   0.6544     H
H        0.656   0.7611   0.5742     H
H       0.6595   0.3416   0.7374     H
H       0.6631   0.8313   0.7934     H
H       0.6706   0.0118   0.5594     H
C       0.6892  0.62712  0.64484     C
H       0.6911   0.6325   0.3062     H
C       0.7101    0.773    0.762     C
C       0.7185  0.28986  0.70372     C
H       0.7383   0.5123   0.2742     H
H       0.7398    0.342    0.431     H
O         0.75   0.0666      1.0     O
H       0.7602    0.911    0.569     H
H       0.7617   0.2381   0.7258     H
C       0.7815  0.58614  0.29628     C
C       0.7899    0.011    0.238     C
H       0.8089   0.3263   0.6938     H
C       0.8108  0.98228  0.35516     C
H       0.8294   0.4524   0.4406     H
H       0.8369   0.0379   0.2066     H
H       0.8405   0.6042   0.2626     H
H        0.844   0.1869   0.4258     H
H       0.8441   0.7851   0.3456     H
C        0.846  0.38026  0.44052     C
C       0.8485  0.60274  0.66768     C
C       0.8692  0.74657  0.78494     C
C        0.879  0.02074  0.30688     C
O       0.8873  0.21202  0.12424     O
O        0.891  0.59962  0.36334     O
O       0.8924  0.87955  0.90484     O
H       0.8968   0.5456    0.636     H
C       0.9028  0.79233  0.39266     C
C        0.907  0.99147  0.42954     C
H       0.9086   0.3436   0.4024     H
C       0.9111  0.19126  0.47052     C
O       0.9352  0.38462  0.51108     O
C       0.9373  0.66143  0.73646     C
C        0.939  0.70275   0.4091     C
C       0.9516  0.89806  0.44512     C
C        0.954  0.09341  0.48382     C
H        0.955   0.3563   0.2494     H
C       0.9646  0.28915   0.5205     C
C       0.9661  0.80846  0.86012     C
H       0.9863   0.0534   0.3214     H
