data_I
_chemical_name_common  '/home/zhangsd/repos/MofS-CGCNN/ML/data/TSD/clean_cifs/GESNOI_clean'
_cell_length_a 14.30300
_cell_length_b 18.71590
_cell_length_c 17.05110
_cell_angle_alpha 90.00000
_cell_angle_beta  102.11800
_cell_angle_gamma 90.00000
_space_group_name_H-M_alt      'P 1'


loop_
_space_group_symop_operation_xyz
  'x, y, z' 

loop_
_atom_site_label
_atom_site_fract_x
_atom_site_fract_y
_atom_site_fract_z
_atom_site_type_symbol
Nd         0.0  0.15277      0.0    Nd
Nd         0.0  0.84723      0.0    Nd
O        0.006   0.3978   0.3296     O
O        0.006   0.6022   0.3296     O
S       0.0073   0.4697   0.7036     S
S       0.0073   0.5303   0.7036     S
P      0.00998  0.16327  0.80974     P
P      0.00998  0.83673  0.80974     P
O        0.016      0.5    0.627     O
O       0.0265      0.0   0.1024     O
H       0.0293   0.2671   0.7383     H
H       0.0293   0.7329   0.7383     H
O       0.0323   0.1299   0.2697     O
O       0.0323   0.8701   0.2697     O
H        0.057   0.2828   0.8305     H
H        0.057   0.7172   0.8305     H
O        0.061   0.4546   0.7773     O
O        0.061   0.5454   0.7773     O
O       0.0636    0.185   0.1406     O
O       0.0636    0.815   0.1406     O
C       0.0639   0.2487   0.7893     C
C       0.0639   0.7513   0.7893     C
H       0.0799      0.5   0.1597     H
O       0.0882   0.1207   0.8635     O
O       0.0882   0.8793   0.8635     O
C       0.1144      0.5   0.2805     C
O       0.1178   0.2395   0.9963     O
O       0.1178   0.7605   0.9963     O
P      0.11953      0.0  0.07575     P
O       0.1292   0.0655    0.025     O
O       0.1292   0.9345    0.025     O
C       0.1307      0.5   0.2039     C
H        0.135   0.2976   0.2505     H
H        0.135   0.7024   0.2505     H
H       0.1373      0.0   0.2463     H
Nd     0.14316      0.0  0.89023    Nd
H       0.1475   0.2664   0.3941     H
H       0.1475   0.7336   0.3941     H
H       0.1512   0.2078   0.6712     H
H       0.1512   0.7922   0.6712     H
H       0.1603   0.1444   0.7328     H
H       0.1603   0.8556   0.7328     H
N       0.1679   0.2422   0.7869     N
N       0.1679   0.7578   0.7869     N
H       0.1748      0.5   0.3991     H
H       0.1762    0.333   0.7236     H
H       0.1762    0.667   0.7236     H
H       0.1837    0.212   0.1559     H
H       0.1837    0.788   0.1559     H
C       0.1848   0.1913   0.7235     C
C       0.1848   0.8087   0.7235     C
C       0.1883      0.5   0.3481     C
H        0.192   0.1759   0.3001     H
H        0.192   0.8241   0.3001     H
H       0.1985   0.3459   0.8166     H
H       0.1985   0.6541   0.8166     H
H       0.1993   0.2251   0.8353     H
H       0.1993   0.7749   0.8353     H
C          0.2      0.0   0.2392     C
C        0.201   0.3135   0.2629     C
C        0.201   0.6865   0.2629     C
H       0.2014   0.3637   0.2773     H
H       0.2014   0.6363   0.2773     H
H       0.2056   0.3318   0.1449     H
H       0.2056   0.6682   0.1449     H
H       0.2088   0.3359   0.4134     H
H       0.2088   0.6641   0.4134     H
C       0.2089   0.3136   0.7748     C
C       0.2089   0.6864   0.7748     C
C       0.2123   0.2847   0.4053     C
C       0.2123   0.7153   0.4053     C
C       0.2171      0.0   0.1611     C
P      0.22302  0.25539  0.00144     P
P      0.22302  0.74461  0.00144     P
C       0.2248      0.5   0.1937     C
O       0.2335   0.2806   0.5621     O
O       0.2335   0.7194   0.5621     O
H       0.2375      0.5   0.1424     H
O       0.2416   0.3356   0.0061     O
O       0.2416   0.6644   0.0061     O
C       0.2435   0.3052   0.1892     C
C       0.2435   0.6948   0.1892     C
N       0.2451   0.2282   0.1673     N
N       0.2451   0.7718   0.1673     N
N       0.2549   0.2718   0.3327     N
N       0.2549   0.7282   0.3327     N
C       0.2565   0.1948   0.3108     C
C       0.2565   0.8052   0.3108     C
O       0.2584   0.1644   0.4939     O
O       0.2584   0.8356   0.4939     O
H       0.2625      0.0   0.3576     H
O       0.2665   0.2194   0.9379     O
O       0.2665   0.7806   0.9379     O
C       0.2752      0.0   0.3063     C
P      0.27698  0.24461  0.49856     P
P      0.27698  0.75539  0.49856     P
C       0.2829      0.5   0.3389     C
C       0.2877   0.2153   0.0947     C
C       0.2877   0.7847   0.0947     C
C       0.2911   0.1864   0.7252     C
C       0.2911   0.8136   0.7252     C
H       0.2912   0.1641   0.0866     H
H       0.2912   0.8359   0.0866     H
H       0.2944   0.1682   0.3551     H
H       0.2944   0.8318   0.3551     H
H       0.2986   0.1363   0.2227     H
H       0.2986   0.8637   0.2227     H
C        0.299   0.1865   0.2371     C
C        0.299   0.8135   0.2371     C
C          0.3      0.5   0.2608     C
H       0.3007   0.2749   0.6647     H
H       0.3007   0.7251   0.6647     H
H       0.3015   0.1541   0.6834     H
H       0.3015   0.8459   0.6834     H
H        0.308   0.3241   0.1999     H
H        0.308   0.6759   0.1999     H
C       0.3117      0.0   0.1519     C
C       0.3152   0.3087   0.7765     C
C       0.3152   0.6913   0.7765     C
H       0.3163    0.288   0.3441     H
H       0.3163    0.712   0.3441     H
H       0.3238    0.167   0.7764     H
H       0.3238    0.833   0.7764     H
H       0.3252      0.0   0.1009     H
N       0.3321   0.2578   0.7131     N
N       0.3321   0.7422   0.7131     N
H       0.3397   0.3556   0.7672     H
H       0.3397   0.6444   0.7672     H
H       0.3488   0.2922   0.8288     H
H       0.3488   0.7078   0.8288     H
H       0.3525   0.2336   0.1059     H
H       0.3525   0.7664   0.1059     H
Nd     0.35684      0.5  0.60977    Nd
H       0.3627      0.5   0.2537     H
H        0.365   0.2024   0.2495     H
H        0.365   0.7976   0.2495     H
C       0.3693      0.0   0.2961     C
O       0.3708   0.4345    0.475     O
O       0.3708   0.5655    0.475     O
P      0.38047      0.5  0.42425     P
O       0.3822   0.2605   0.5037     O
O       0.3822   0.7395   0.5037     O
C       0.3856      0.0   0.2195     C
O       0.4118   0.3793   0.6365     O
O       0.4118   0.6207   0.6365     O
H       0.4201      0.0   0.3403     H
C       0.4361   0.2513   0.7107     C
C       0.4361   0.7487   0.7107     C
O       0.4364    0.315   0.3594     O
O       0.4364    0.685   0.3594     O
O        0.439   0.0454   0.7227     O
O        0.439   0.9546   0.7227     O
H        0.443   0.2172   0.6695     H
H        0.443   0.7828   0.6695     H
O       0.4677   0.3701   0.2303     O
O       0.4677   0.6299   0.2303     O
H       0.4707   0.2329   0.7617     H
H       0.4707   0.7671   0.7617     H
O       0.4735      0.5   0.3976     O
O        0.484      0.0    0.873     O
P      0.49002  0.33673  0.69026     P
P      0.49002  0.66327  0.69026     P
S       0.4927   0.0303   0.7964     S
S       0.4927   0.9697   0.7964     S
O        0.494   0.1022   0.1704     O
O        0.494   0.8978   0.1704     O
Nd         0.5  0.34723      0.5    Nd
Nd         0.5  0.65277      0.5    Nd
O        0.506   0.1022   0.8296     O
O        0.506   0.8978   0.8296     O
S       0.5073   0.0303   0.2036     S
S       0.5073   0.9697   0.2036     S
P      0.50998  0.33673  0.30974     P
P      0.50998  0.66327  0.30974     P
O        0.516      0.0    0.127     O
O       0.5265      0.5   0.6024     O
H       0.5293   0.2329   0.2383     H
H       0.5293   0.7671   0.2383     H
O       0.5323   0.3701   0.7697     O
O       0.5323   0.6299   0.7697     O
H        0.557   0.2172   0.3305     H
H        0.557   0.7828   0.3305     H
O        0.561   0.0454   0.2773     O
O        0.561   0.9546   0.2773     O
O       0.5636    0.315   0.6406     O
O       0.5636    0.685   0.6406     O
C       0.5639   0.2513   0.2893     C
C       0.5639   0.7487   0.2893     C
H       0.5799      0.0   0.6597     H
O       0.5882   0.3793   0.3635     O
O       0.5882   0.6207   0.3635     O
C       0.6144      0.0   0.7805     C
O       0.6178   0.2605   0.4963     O
O       0.6178   0.7395   0.4963     O
P      0.61953      0.5  0.57575     P
O       0.6292   0.4345    0.525     O
O       0.6292   0.5655    0.525     O
C       0.6307      0.0   0.7039     C
H        0.635   0.2024   0.7505     H
H        0.635   0.7976   0.7505     H
H       0.6373      0.5   0.7463     H
Nd     0.64316      0.5  0.39023    Nd
H       0.6475   0.2336   0.8941     H
H       0.6475   0.7664   0.8941     H
H       0.6512   0.2922   0.1712     H
H       0.6512   0.7078   0.1712     H
H       0.6603   0.3556   0.2328     H
H       0.6603   0.6444   0.2328     H
N       0.6679   0.2578   0.2869     N
N       0.6679   0.7422   0.2869     N
H       0.6748      0.0   0.8991     H
H       0.6762    0.167   0.2236     H
H       0.6762    0.833   0.2236     H
H       0.6837    0.288   0.6559     H
H       0.6837    0.712   0.6559     H
C       0.6848   0.3087   0.2235     C
C       0.6848   0.6913   0.2235     C
C       0.6883      0.0   0.8481     C
H        0.692   0.3241   0.8001     H
H        0.692   0.6759   0.8001     H
H       0.6985   0.1541   0.3166     H
H       0.6985   0.8459   0.3166     H
H       0.6993   0.2749   0.3353     H
H       0.6993   0.7251   0.3353     H
C          0.7      0.5   0.7392     C
C        0.701   0.1865   0.7629     C
C        0.701   0.8135   0.7629     C
H       0.7014   0.1363   0.7773     H
H       0.7014   0.8637   0.7773     H
H       0.7056   0.1682   0.6449     H
H       0.7056   0.8318   0.6449     H
H       0.7088   0.1641   0.9134     H
H       0.7088   0.8359   0.9134     H
C       0.7089   0.1864   0.2748     C
C       0.7089   0.8136   0.2748     C
C       0.7123   0.2153   0.9053     C
C       0.7123   0.7847   0.9053     C
C       0.7171      0.5   0.6611     C
P      0.72302  0.24461  0.50144     P
P      0.72302  0.75539  0.50144     P
C       0.7248      0.0   0.6937     C
O       0.7335   0.2194   0.0621     O
O       0.7335   0.7806   0.0621     O
H       0.7375      0.0   0.6424     H
O       0.7416   0.1644   0.5061     O
O       0.7416   0.8356   0.5061     O
C       0.7435   0.1948   0.6892     C
C       0.7435   0.8052   0.6892     C
N       0.7451   0.2718   0.6673     N
N       0.7451   0.7282   0.6673     N
N       0.7549   0.2282   0.8327     N
N       0.7549   0.7718   0.8327     N
C       0.7565   0.3052   0.8108     C
C       0.7565   0.6948   0.8108     C
O       0.7584   0.3356   0.9939     O
O       0.7584   0.6644   0.9939     O
H       0.7625      0.5   0.8576     H
O       0.7665   0.2806   0.4379     O
O       0.7665   0.7194   0.4379     O
C       0.7752      0.5   0.8063     C
P      0.77698  0.25539  0.99856     P
P      0.77698  0.74461  0.99856     P
C       0.7829      0.0   0.8389     C
C       0.7877   0.2847   0.5947     C
C       0.7877   0.7153   0.5947     C
C       0.7911   0.3136   0.2252     C
C       0.7911   0.6864   0.2252     C
H       0.7912   0.3359   0.5866     H
H       0.7912   0.6641   0.5866     H
H       0.7944   0.3318   0.8551     H
H       0.7944   0.6682   0.8551     H
H       0.7986   0.3637   0.7227     H
H       0.7986   0.6363   0.7227     H
C        0.799   0.3135   0.7371     C
C        0.799   0.6865   0.7371     C
C          0.8      0.0   0.7608     C
H       0.8007   0.2251   0.1647     H
H       0.8007   0.7749   0.1647     H
H       0.8015   0.3459   0.1834     H
H       0.8015   0.6541   0.1834     H
H        0.808   0.1759   0.6999     H
H        0.808   0.8241   0.6999     H
C       0.8117      0.5   0.6519     C
C       0.8152   0.1913   0.2765     C
C       0.8152   0.8087   0.2765     C
H       0.8163    0.212   0.8441     H
H       0.8163    0.788   0.8441     H
H       0.8238    0.333   0.2764     H
H       0.8238    0.667   0.2764     H
H       0.8252      0.5   0.6009     H
N       0.8321   0.2422   0.2131     N
N       0.8321   0.7578   0.2131     N
H       0.8397   0.1444   0.2672     H
H       0.8397   0.8556   0.2672     H
H       0.8488   0.2078   0.3288     H
H       0.8488   0.7922   0.3288     H
H       0.8525   0.2664   0.6059     H
H       0.8525   0.7336   0.6059     H
Nd     0.85684      0.0  0.10977    Nd
H       0.8627      0.0   0.7537     H
H        0.865   0.2976   0.7495     H
H        0.865   0.7024   0.7495     H
C       0.8693      0.5   0.7961     C
O       0.8708   0.0655    0.975     O
O       0.8708   0.9345    0.975     O
P      0.88047      0.0  0.92425     P
O       0.8822   0.2395   0.0037     O
O       0.8822   0.7605   0.0037     O
C       0.8856      0.5   0.7195     C
O       0.9118   0.1207   0.1365     O
O       0.9118   0.8793   0.1365     O
H       0.9201      0.5   0.8403     H
C       0.9361   0.2487   0.2107     C
C       0.9361   0.7513   0.2107     C
O       0.9364    0.185   0.8594     O
O       0.9364    0.815   0.8594     O
O        0.939   0.4546   0.2227     O
O        0.939   0.5454   0.2227     O
H        0.943   0.2828   0.1695     H
H        0.943   0.7172   0.1695     H
O       0.9677   0.1299   0.7303     O
O       0.9677   0.8701   0.7303     O
H       0.9707   0.2671   0.2617     H
H       0.9707   0.7329   0.2617     H
O       0.9735      0.0   0.8976     O
O        0.984      0.5    0.373     O
P      0.99002  0.16327  0.19026     P
P      0.99002  0.83673  0.19026     P
S       0.9927   0.4697   0.2964     S
S       0.9927   0.5303   0.2964     S
O        0.994   0.3978   0.6704     O
O        0.994   0.6022   0.6704     O
