data_I
_chemical_name_common  '/home/zhangsd/repos/MofS-CGCNN/ML/data/TSD/clean_cifs/GETXAG01_clean'
_cell_length_a  6.66730
_cell_length_b 13.07710
_cell_length_c 21.27510
_cell_angle_alpha 90.00000
_cell_angle_beta  90.00000
_cell_angle_gamma 102.49200
_space_group_name_H-M_alt      'P 1'


loop_
_space_group_symop_operation_xyz
  'x, y, z' 

loop_
_atom_site_label
_atom_site_fract_x
_atom_site_fract_y
_atom_site_fract_z
_atom_site_type_symbol
Co         0.0      0.5      0.0    Co
C       0.0069  0.86243  0.73694     C
Co     0.01751  0.04656  0.43305    Co
C       0.0176  0.78335  0.77923     C
H       0.0177   0.7429   0.2479     H
H       0.0354   0.6107   0.1757     H
H       0.0499   0.9169    0.923     H
H        0.053   0.0945   0.9317     H
C       0.0561  0.40109  0.58174     C
C       0.0582  0.50691  0.57715     C
N       0.0602  0.63546  0.87719     N
H       0.0677   0.4703   0.4217     H
H        0.071    0.648   0.4141     H
C       0.0744   0.9546  0.07141     C
N       0.0758  0.73302  0.56393     N
C       0.0763  0.06054  0.07632     C
N       0.0897  0.73523  0.04462     N
H        0.097   0.0286   0.6739     H
H        0.098   0.2449   0.1952     H
H        0.115   0.1114   0.2661     H
H        0.127   0.2196   0.6013     H
N       0.1316    0.878  0.34361     N
N       0.1325  0.56858  0.91409     N
C       0.1386  0.71576  0.24538     C
H         0.14   0.2585   0.0897     H
N       0.1414   0.8334  0.54858     N
C       0.1488  0.63694  0.20251     C
N       0.1547  0.64637  0.03847     N
N       0.1601  0.98558   0.6557     N
C       0.1749  0.90355  0.69888     C
N       0.1842  0.93897  0.39461     N
C       0.1961  0.74459  0.78478     C
C       0.2083  0.66696  0.83395     C
O      0.21342  0.05013   0.5122     O
H        0.216   0.4792   0.1462     H
H        0.234   0.1087   0.5249     H
N       0.2364  0.25847  0.58064     N
C       0.2396  0.36583  0.58029     C
C       0.2426   0.5806  0.57091     C
C       0.2437  0.69131  0.56099     C
C       0.2563  0.80869  0.06099     C
C       0.2574   0.9194  0.07091     C
C       0.2604  0.13417  0.08029     C
N       0.2636  0.24153  0.08064     N
H        0.266   0.3913   0.0249     H
H        0.284   0.0208   0.6462     H
O      0.28658  0.44987   0.0122     O
C       0.2917  0.83304  0.33395     C
C       0.3039  0.75541  0.28478     C
N       0.3158  0.56103  0.89461     N
C       0.3251  0.59645  0.19888     C
N       0.3399  0.51442   0.1557     N
N       0.3453  0.85363  0.53847     N
C       0.3512  0.86306  0.70251     C
N       0.3586   0.6666  0.04858     N
H         0.36   0.2415   0.5897     H
C       0.3614  0.78424  0.74538     C
N       0.3675  0.93142  0.41409     N
N       0.3684    0.622  0.84361     N
H        0.373   0.2804   0.1013     H
H        0.385   0.3886   0.7661     H
H        0.402   0.2551   0.6952     H
H        0.403   0.4714   0.1739     H
N       0.4103  0.76477  0.54462     N
C       0.4237  0.43946  0.57632     C
N       0.4242  0.76698  0.06393     N
C       0.4256   0.5454  0.57141     C
H        0.429    0.852   0.9141     H
H       0.4323   0.0297   0.9217     H
N       0.4398  0.86454  0.37719     N
C       0.4418  0.99309  0.07715     C
C       0.4439  0.09891  0.08174     C
H        0.447   0.4055   0.4317     H
H       0.4501   0.5831    0.423     H
H       0.4646   0.8893   0.6757     H
H       0.4823   0.7571   0.7479     H
C       0.4824  0.71665  0.27923     C
Co     0.48249  0.45344  0.93305    Co
C       0.4931  0.63757  0.23694     C
Co         0.5      0.0      0.5    Co
C       0.5069  0.36243  0.76306     C
Co     0.51751  0.54656  0.06695    Co
C       0.5176  0.28335  0.72077     C
H       0.5177   0.2429   0.2521     H
H       0.5354   0.1107   0.3243     H
H       0.5499   0.4169    0.577     H
H        0.553   0.5945   0.5683     H
C       0.5561  0.90109  0.91826     C
C       0.5582  0.00691  0.92285     C
N       0.5602  0.13546  0.62281     N
H       0.5677   0.9703   0.0783     H
H        0.571    0.148   0.0859     H
C       0.5744   0.4546  0.42859     C
N       0.5758  0.23302  0.93607     N
C       0.5763  0.56054  0.42368     C
N       0.5897  0.23523  0.45538     N
H        0.597   0.5286   0.8261     H
H        0.598   0.7449   0.3048     H
H        0.615   0.6114   0.2339     H
H        0.627   0.7196   0.8987     H
N       0.6316    0.378  0.15639     N
N       0.6325  0.06858  0.58591     N
C       0.6386  0.21576  0.25462     C
H         0.64   0.7585   0.4103     H
N       0.6414   0.3334  0.95142     N
C       0.6488  0.13694  0.29749     C
N       0.6547  0.14637  0.46153     N
N       0.6601  0.48558   0.8443     N
C       0.6749  0.40355  0.80112     C
N       0.6842  0.43897  0.10539     N
C       0.6961  0.24459  0.71522     C
C       0.7083  0.16696  0.66605     C
O      0.71342  0.55013   0.9878     O
H        0.716   0.9792   0.3538     H
H        0.734   0.6087   0.9751     H
N       0.7364  0.75847  0.91936     N
C       0.7396  0.86583  0.91971     C
C       0.7426   0.0806  0.92909     C
C       0.7437  0.19131  0.93901     C
C       0.7563  0.30869  0.43901     C
C       0.7574   0.4194  0.42909     C
C       0.7604  0.63417  0.41971     C
N       0.7636  0.74153  0.41936     N
H        0.766   0.8913   0.4751     H
H        0.784   0.5208   0.8538     H
O      0.78658  0.94987   0.4878     O
C       0.7917  0.33304  0.16605     C
C       0.8039  0.25541  0.21522     C
N       0.8158  0.06103  0.60539     N
C       0.8251  0.09645  0.30112     C
N       0.8399  0.01442   0.3443     N
N       0.8453  0.35363  0.96153     N
C       0.8512  0.36306  0.79749     C
N       0.8586   0.1666  0.45142     N
H         0.86   0.7415   0.9103     H
C       0.8614  0.28424  0.75462     C
N       0.8675  0.43142  0.08591     N
N       0.8684    0.122  0.65639     N
H        0.873   0.7804   0.3987     H
H        0.885   0.8886   0.7339     H
H        0.902   0.7551   0.8048     H
H        0.903   0.9714   0.3261     H
N       0.9103  0.26477  0.95538     N
C       0.9237  0.93946  0.92368     C
N       0.9242  0.26698  0.43607     N
C       0.9256   0.0454  0.92859     C
H        0.929    0.352   0.5859     H
H       0.9323   0.5297   0.5783     H
N       0.9398  0.36454  0.12281     N
C       0.9418  0.49309  0.42285     C
C       0.9439  0.59891  0.41826     C
H        0.947   0.9055   0.0683     H
H       0.9501   0.0831    0.077     H
H       0.9646   0.3893   0.8243     H
H       0.9823   0.2571   0.7521     H
C       0.9824  0.21665  0.22077     C
Co     0.98249  0.95344  0.56695    Co
C       0.9931  0.13757  0.26306     C
