data_I
_chemical_name_common  '/home/zhangsd/repos/MofS-CGCNN/ML/data/TSD/clean_cifs/GEVYEN_clean'
_cell_length_a  7.69780
_cell_length_b 17.25000
_cell_length_c 14.08900
_cell_angle_alpha 90.00000
_cell_angle_beta  93.10200
_cell_angle_gamma 90.00000
_space_group_name_H-M_alt      'P 1'


loop_
_space_group_symop_operation_xyz
  'x, y, z' 

loop_
_atom_site_label
_atom_site_fract_x
_atom_site_fract_y
_atom_site_fract_z
_atom_site_type_symbol
C       0.0096   0.0338   0.4805     C
C       0.0096   0.4662   0.9805     C
C       0.0122   0.5246   0.7041     C
C       0.0122   0.9754   0.2041     C
C       0.0308   0.0816   0.7327     C
C       0.0308   0.4184   0.2327     C
H       0.0381   0.6861   0.8195     H
H       0.0381   0.8139   0.3195     H
O       0.0426  0.60205    0.356     O
O       0.0426  0.89795    0.856     O
H       0.0459    0.159   0.3768     H
H       0.0459    0.341   0.8768     H
C       0.0666   0.6486   0.7755     C
C       0.0666   0.8514   0.2755     C
H       0.0737   0.5712   0.0078     H
H       0.0737   0.9288   0.5078     H
C       0.0952   0.5472   0.3096     C
C       0.0952   0.9528   0.8096     C
H       0.1258   0.0748   0.6955     H
H       0.1258   0.4252   0.1955     H
C       0.1392   0.1257   0.3695     C
C       0.1392   0.3743   0.8695     C
C       0.1503   0.0568   0.4199     C
C       0.1503   0.4432   0.9199     C
C       0.1567    0.535   0.6499     C
C       0.1567    0.965   0.1499     C
H       0.1883   0.0042   0.1089     H
H       0.1883   0.4958   0.6089     H
H       0.1895   0.1559   0.9109     H
H       0.1895   0.3441   0.4109     H
C       0.2057    0.661   0.7194     C
C       0.2057    0.839   0.2194     C
O       0.2419  0.54539   0.2714     O
O       0.2419  0.95461   0.7714     O
H       0.2529   0.1429   0.0712     H
H       0.2529   0.3571   0.5712     H
C       0.2542   0.6025   0.6557     C
C       0.2542   0.8975   0.1557     C
H       0.2558   0.1915   0.2754     H
H       0.2558   0.3085   0.7754     H
C       0.2664    0.145   0.3086     C
C       0.2664    0.355   0.8086     C
H       0.2684   0.5891    0.475     H
H       0.2684   0.9109    0.975     H
O       0.2867  0.72285   0.1456     O
O       0.2867  0.77715   0.6456     O
C       0.2871   0.7396   0.7196     C
C       0.2871   0.7604   0.2196     C
C       0.2959   0.0111    0.408     C
C       0.2959   0.4889    0.908     C
C        0.302   0.1433   0.9331     C
C        0.302   0.3567   0.4331     C
H       0.3114   0.5348   0.9421     H
H       0.3114   0.9652   0.4421     H
C       0.3406   0.1351   0.0294     C
C       0.3406   0.3649   0.5294     C
O       0.3457  0.73492   0.2995     O
O       0.3457  0.76508   0.7995     O
C       0.3783   0.6044   0.4983     C
C       0.3783   0.8956   0.9983     C
N       0.4034  0.10033   0.2947     N
N       0.4034  0.39967   0.7947     N
C       0.4045   0.6133   0.5952     C
C       0.4045   0.8867   0.0952     C
H       0.4049   0.1386   0.8054     H
H       0.4049   0.3614   0.3054     H
Zn     0.41149  0.62629  0.29507    Zn
Zn     0.41149  0.87371  0.79507    Zn
C        0.417    0.034   0.3457     C
C        0.417    0.466   0.8457     C
C       0.4295   0.1328   0.8704     C
C       0.4295   0.3672   0.3704     C
H       0.4869   0.5024   0.1618     H
H       0.4869   0.9976   0.6618     H
N       0.4994  0.61632   0.4353     N
N       0.4994  0.88368   0.9353     N
N       0.5006  0.11632   0.0647     N
N       0.5006  0.38368   0.5647     N
H       0.5131   0.0024   0.3382     H
H       0.5131   0.4976   0.8382     H
C       0.5705   0.6328   0.6296     C
C       0.5705   0.8672   0.1296     C
C        0.583    0.534   0.1543     C
C        0.583    0.966   0.6543     C
Zn     0.58851  0.12629  0.20493    Zn
Zn     0.58851  0.37371  0.70493    Zn
H       0.5951   0.6386   0.6946     H
H       0.5951   0.8614   0.1946     H
C       0.5955   0.1133   0.9048     C
C       0.5955   0.3867   0.4048     C
N       0.5966  0.60033   0.2053     N
N       0.5966  0.89967   0.7053     N
C       0.6217   0.1044   0.0017     C
C       0.6217   0.3956   0.5017     C
O       0.6543  0.23492   0.2005     O
O       0.6543  0.26508   0.7005     O
C       0.6594   0.6351   0.4706     C
C       0.6594   0.8649   0.9706     C
H       0.6886   0.0348   0.5579     H
H       0.6886   0.4652   0.0579     H
C        0.698   0.6433   0.5669     C
C        0.698   0.8567   0.0669     C
C       0.7041   0.5111    0.092     C
C       0.7041   0.9889    0.592     C
C       0.7129   0.2396   0.7804     C
C       0.7129   0.2604   0.2804     C
O       0.7133  0.22285   0.3544     O
O       0.7133  0.27715   0.8544     O
H       0.7316   0.0891    0.025     H
H       0.7316   0.4109    0.525     H
C       0.7336    0.645   0.1914     C
C       0.7336    0.855   0.6914     C
H       0.7442   0.6915   0.2246     H
H       0.7442   0.8085   0.7246     H
C       0.7458   0.1025   0.8443     C
C       0.7458   0.3975   0.3443     C
H       0.7471   0.6429   0.4288     H
H       0.7471   0.8571   0.9288     H
O       0.7581  0.04539   0.2286     O
O       0.7581  0.45461   0.7286     O
C       0.7943    0.161   0.7806     C
C       0.7943    0.339   0.2806     C
H       0.8105   0.6559   0.5891     H
H       0.8105   0.8441   0.0891     H
H       0.8117   0.5042   0.3911     H
H       0.8117   0.9958   0.8911     H
C       0.8433    0.035   0.8501     C
C       0.8433    0.465   0.3501     C
C       0.8497   0.5568   0.0801     C
C       0.8497   0.9432   0.5801     C
C       0.8608   0.6257   0.1305     C
C       0.8608   0.8743   0.6305     C
H       0.8742   0.5748   0.8045     H
H       0.8742   0.9252   0.3045     H
C       0.9048   0.0472   0.1904     C
C       0.9048   0.4528   0.6904     C
H       0.9263   0.0712   0.4922     H
H       0.9263   0.4288   0.9922     H
C       0.9334   0.1486   0.7245     C
C       0.9334   0.3514   0.2245     C
H       0.9541    0.659   0.1232     H
H       0.9541    0.841   0.6232     H
O       0.9574  0.10205    0.144     O
O       0.9574  0.39795    0.644     O
H       0.9619   0.1861   0.6805     H
H       0.9619   0.3139   0.1805     H
C       0.9692   0.5816   0.7673     C
C       0.9692   0.9184   0.2673     C
C       0.9878   0.0246   0.7959     C
C       0.9878   0.4754   0.2959     C
C       0.9904   0.5338   0.0195     C
C       0.9904   0.9662   0.5195     C
