data_I
_chemical_name_common  '/home/zhangsd/repos/MofS-CGCNN/ML/data/TSD/clean_cifs/GIQXEK_clean'
_cell_length_a  9.69210
_cell_length_b  9.69210
_cell_length_c 15.69380
_cell_angle_alpha 92.70170
_cell_angle_beta  92.70170
_cell_angle_gamma 99.01960
_space_group_name_H-M_alt      'P 1'


loop_
_space_group_symop_operation_xyz
  'x, y, z' 

loop_
_atom_site_label
_atom_site_fract_x
_atom_site_fract_y
_atom_site_fract_z
_atom_site_type_symbol
Ce      0.0114   0.9886     0.75    Ce
C       0.0152    0.504    0.215     C
P      0.02592  0.35134  0.84835     P
P      0.04528  0.35642   0.1439     P
O      0.04995  0.23219  0.78924     O
O      0.07722  0.24016  0.19762     O
O      0.08912  0.68836  0.91464     O
O      0.10125  0.69003  0.09716     O
O      0.10143  0.55017  0.73567     O
Ru     0.12006  0.54622  0.00207    Ru
H       0.1271   0.6349   0.3107     H
C       0.1432   0.5538   0.2751     C
O      0.15611  0.40771  0.90754     O
H         0.16   0.4782   0.3117     H
O      0.16807  0.41107  0.08909     O
H        0.176    0.492    0.729     H
H       0.2251   0.5803   0.2416     H
O      0.23219  0.04995  0.28924     O
O      0.24016  0.07722  0.69762     O
O      0.30997  0.89875  0.40284     O
O      0.31164  0.91088  0.58536     O
P      0.35134  0.02592  0.34835     P
P      0.35642  0.04528   0.6439     P
H       0.3651   0.8729   0.1893     H
O      0.40771  0.15611  0.40754     O
O      0.41107  0.16807  0.58909     O
H       0.4197   0.7749   0.2584     H
C       0.4462   0.8568   0.2249     C
O      0.44983  0.89857  0.76433     O
Ru     0.45378  0.87994  0.49793    Ru
H       0.4782     0.16   0.8117     H
H        0.492    0.176    0.229     H
C        0.496   0.9848    0.285     C
C        0.504   0.0152    0.715     C
H        0.508    0.824    0.771     H
H       0.5218     0.84   0.1883     H
Ru     0.54622  0.12006  0.50207    Ru
O      0.55017  0.10143  0.23567     O
C       0.5538   0.1432   0.7751     C
H       0.5803   0.2251   0.7416     H
O      0.58893  0.83193  0.41091     O
O      0.59229  0.84389  0.59246     O
H       0.6349   0.1271   0.8107     H
P      0.64358  0.95472   0.3561     P
P      0.64866  0.97408  0.65165     P
O      0.68836  0.08912  0.41464     O
O      0.69003  0.10125  0.59716     O
O      0.75984  0.92278  0.30238     O
O      0.76781  0.95005  0.71076     O
H       0.7749   0.4197   0.7584     H
H        0.824    0.508    0.271     H
O      0.83193  0.58893  0.91091     O
H         0.84   0.5218   0.6883     H
O      0.84389  0.59229  0.09246     O
C       0.8568   0.4462   0.7249     C
H       0.8729   0.3651   0.6893     H
Ru     0.87994  0.45378  0.99793    Ru
O      0.89857  0.44983  0.26433     O
O      0.89875  0.30997  0.90284     O
O      0.91088  0.31164  0.08536     O
O      0.92278  0.75984  0.80238     O
O      0.95005  0.76781  0.21076     O
P      0.95472  0.64358   0.8561     P
P      0.97408  0.64866  0.15165     P
C       0.9848    0.496    0.785     C
Ce      0.9886   0.0114     0.25    Ce
