data_I
_chemical_name_common  '/home/zhangsd/repos/MofS-CGCNN/ML/data/TSD/clean_cifs/GIQYEL_clean'
_cell_length_a  9.72000
_cell_length_b  9.72000
_cell_length_c 15.72620
_cell_angle_alpha 92.74140
_cell_angle_beta  92.74140
_cell_angle_gamma 99.08600
_space_group_name_H-M_alt      'P 1'


loop_
_space_group_symop_operation_xyz
  'x, y, z' 

loop_
_atom_site_label
_atom_site_fract_x
_atom_site_fract_y
_atom_site_fract_z
_atom_site_type_symbol
La     0.01171  0.98829     0.75    La
C      0.01501  0.50419  0.21435     C
P      0.02634   0.3519  0.84869     P
P      0.04578  0.35714  0.14359     P
O      0.05046  0.23372  0.78944     O
O      0.07834  0.24148   0.1973     O
O      0.08845  0.68839  0.91488     O
O      0.10061  0.68985  0.09704     O
O      0.10191  0.54991  0.73654     O
Ru     0.11972  0.54646  0.00209    Ru
H       0.1261   0.6347   0.3106     H
C      0.14273  0.55427  0.27486     C
O      0.15602  0.40836  0.90789     O
H       0.1596   0.4788   0.3111     H
O      0.16827  0.41187  0.08897     O
H        0.179    0.489    0.737     H
H       0.2245   0.5815   0.2416     H
O      0.23372  0.05046  0.28944     O
O      0.24148  0.07834   0.6973     O
O      0.31015  0.89939  0.40296     O
O      0.31161  0.91155  0.58512     O
P       0.3519  0.02634  0.34869     P
P      0.35714  0.04578  0.64359     P
H       0.3653   0.8739   0.1894     H
O      0.40836  0.15602  0.40789     O
O      0.41187  0.16827  0.58897     O
H       0.4185   0.7755   0.2584     H
C      0.44573  0.85727  0.22514     C
O      0.45009  0.89809  0.76346     O
Ru     0.45354  0.88028  0.49791    Ru
H       0.4788   0.1596   0.8111     H
H        0.489    0.179    0.237     H
C      0.49581  0.98499  0.28565     C
C      0.50419  0.01501  0.71435     C
H        0.511    0.821    0.763     H
H       0.5212   0.8404   0.1889     H
Ru     0.54646  0.11972  0.50209    Ru
O      0.54991  0.10191  0.23654     O
C      0.55427  0.14273  0.77486     C
H       0.5815   0.2245   0.7416     H
O      0.58813  0.83173  0.41103     O
O      0.59164  0.84398  0.59211     O
H       0.6347   0.1261   0.8106     H
P      0.64286  0.95422  0.35641     P
P       0.6481  0.97366  0.65131     P
O      0.68839  0.08845  0.41488     O
O      0.68985  0.10061  0.59704     O
O      0.75852  0.92166   0.3027     O
O      0.76628  0.94954  0.71056     O
H       0.7755   0.4185   0.7584     H
H        0.821    0.511    0.263     H
O      0.83173  0.58813  0.91103     O
H       0.8404   0.5212   0.6889     H
O      0.84398  0.59164  0.09211     O
C      0.85727  0.44573  0.72514     C
H       0.8739   0.3653   0.6894     H
Ru     0.88028  0.45354  0.99791    Ru
O      0.89809  0.45009  0.26346     O
O      0.89939  0.31015  0.90296     O
O      0.91155  0.31161  0.08512     O
O      0.92166  0.75852   0.8027     O
O      0.94954  0.76628  0.21056     O
P      0.95422  0.64286  0.85641     P
P      0.97366   0.6481  0.15131     P
C      0.98499  0.49581  0.78565     C
La     0.98829  0.01171     0.25    La
