data_I
_chemical_name_common  '/home/zhangsd/repos/MofS-CGCNN/ML/data/TSD/clean_cifs/GISWEM_clean'
_cell_length_a 17.24100
_cell_length_b 15.95000
_cell_length_c 16.74000
_cell_angle_alpha 90.00000
_cell_angle_beta  108.38600
_cell_angle_gamma 90.00000
_space_group_name_H-M_alt      'P 1'


loop_
_space_group_symop_operation_xyz
  'x, y, z' 

loop_
_atom_site_label
_atom_site_fract_x
_atom_site_fract_y
_atom_site_fract_z
_atom_site_type_symbol
C       0.0048   0.2205   0.9394     C
C       0.0048   0.7795   0.4394     C
C       0.0071   0.1308    0.055     C
C       0.0071   0.8692    0.555     C
H       0.0073   0.3947    0.587     H
H       0.0073   0.6053    0.087     H
H       0.0196    0.005   0.3487     H
H       0.0196    0.995   0.8487     H
C       0.0199   0.4445   0.9106     C
C       0.0199   0.5555   0.4106     C
C       0.0202   0.4942    0.467     C
C       0.0202   0.5058    0.967     C
H       0.0298   0.2609   0.9159     H
H       0.0298   0.7391   0.4159     H
H       0.0328   0.1125   0.1098     H
H       0.0328   0.8875   0.6098     H
C       0.0434   0.1935   0.0211     C
C       0.0434   0.8065   0.5211     C
H        0.057   0.4086   0.8141     H
H        0.057   0.5914   0.3141     H
H       0.0572   0.3769   0.4937     H
H       0.0572   0.6231   0.9937     H
C       0.0573   0.4215    0.458     C
C       0.0573   0.5785    0.958     C
C       0.0578   0.4528   0.8505     C
C       0.0578   0.5472   0.3505     C
C        0.067   0.0952   0.4916     C
C        0.067   0.9048   0.9916     C
C       0.0697   0.1885   0.6073     C
C       0.0697   0.8115   0.1073     C
C       0.0716   0.0113   0.8819     C
C       0.0716   0.9887   0.3819     C
O       0.0788   0.2724   0.7262     O
O       0.0788   0.7276   0.2262     O
H       0.0843   0.0975   0.8023     H
H       0.0843   0.9025   0.3023     H
C       0.0957   0.4118   0.3968     C
C       0.0957   0.5882   0.8968     C
C       0.0965   0.4747   0.3438     C
C       0.0965   0.5253   0.8438     C
C       0.1045    0.126   0.5726     C
C       0.1045    0.874   0.0726     C
C       0.1061   0.0267    0.457     C
C       0.1061   0.9733    0.957     C
C       0.1113    0.073   0.8541     C
C       0.1113    0.927   0.3541     C
C       0.1129   0.2202   0.6946     C
C       0.1129   0.7798   0.1946     C
H       0.1211   0.3612   0.3926     H
H       0.1211   0.6388   0.8926     H
C       0.1219   0.2356   0.0711     C
C       0.1219   0.7644   0.5711     C
H       0.1237   0.3446   0.2486     H
H       0.1237   0.6554   0.7486     H
N       0.1365   0.4659   0.2809     N
N       0.1365   0.5341   0.7809     N
C       0.1449   0.3964   0.2404     C
C       0.1449   0.6036   0.7404     C
O       0.1515   0.2232  0.14935     O
O       0.1515   0.7768  0.64935     O
H       0.1546   0.1037   0.6043     H
H       0.1546   0.8963   0.1043     H
O       0.1567   0.2852  0.03413     O
O       0.1567   0.7148  0.53413     O
C       0.1771   0.4729   0.7542     C
C       0.1771   0.5271   0.2542     C
C       0.1821   0.0022   0.9991     C
C       0.1821   0.9978   0.4991     C
O       0.1827    0.189  0.72978     O
O       0.1827    0.811  0.22978     O
H       0.1834   0.4173   0.7718     H
H       0.1834   0.5827   0.2718     H
N       0.1858   0.1008   0.8954     N
N       0.1858   0.8992   0.3954     N
N        0.186   0.4085    0.188     N
N        0.186   0.5915    0.688     N
C       0.2066   0.4906   0.1965     C
C       0.2066   0.5094   0.6965     C
H       0.2106   0.0214   0.5509     H
H       0.2106   0.9786   0.0509     H
C       0.2178   0.0648   0.9674     C
C       0.2178   0.9352   0.4674     C
H       0.2308    0.417   0.9997     H
H       0.2308    0.583   0.4997     H
H       0.2367   0.4819   0.6671     H
H       0.2367   0.5181   0.1671     H
Ni      0.2476  0.31315   0.1485    Ni
Ni      0.2476  0.68685   0.6485    Ni
Ni      0.2524  0.18685   0.8515    Ni
Ni      0.2524  0.81315   0.3515    Ni
H       0.2633   0.0181   0.3329     H
H       0.2633   0.9819   0.8329     H
H       0.2692    0.083   0.0003     H
H       0.2692    0.917   0.5003     H
C       0.2822   0.4352   0.0326     C
C       0.2822   0.5648   0.5326     C
H       0.2894   0.4786   0.4491     H
H       0.2894   0.5214   0.9491     H
C       0.2934   0.0094   0.8035     C
C       0.2934   0.9906   0.3035     C
N        0.314   0.0915    0.812     N
N        0.314   0.9085    0.312     N
N       0.3142   0.3992   0.1046     N
N       0.3142   0.6008   0.6046     N
H       0.3166   0.0827   0.2282     H
H       0.3166   0.9173   0.7282     H
O       0.3173    0.311  0.27022     O
O       0.3173    0.689  0.77022     O
C       0.3179   0.4978   0.0009     C
C       0.3179   0.5022   0.5009     C
C       0.3229   0.0271   0.2458     C
C       0.3229   0.9729   0.7458     C
O       0.3433   0.2148  0.96587     O
O       0.3433   0.7852  0.46587     O
H       0.3454   0.3963   0.3957     H
H       0.3454   0.6037   0.8957     H
O       0.3485   0.2768  0.85065     O
O       0.3485   0.7232  0.35065     O
C       0.3551   0.1036   0.7596     C
C       0.3551   0.8964   0.2596     C
N       0.3635   0.0341   0.7191     N
N       0.3635   0.9659   0.2191     N
H       0.3763   0.1554   0.7514     H
H       0.3763   0.8446   0.2514     H
C       0.3781   0.2644   0.9289     C
C       0.3781   0.7356   0.4289     C
H       0.3789   0.1388   0.6074     H
H       0.3789   0.8612   0.1074     H
C       0.3871   0.2798   0.3054     C
C       0.3871   0.7202   0.8054     C
C       0.3887    0.427   0.1459     C
C       0.3887    0.573   0.6459     C
C       0.3939   0.4733    0.543     C
C       0.3939   0.5267    0.043     C
C       0.3955    0.374   0.4274     C
C       0.3955    0.626   0.9274     C
C       0.4035   0.0253   0.6562     C
C       0.4035   0.9747   0.1562     C
C       0.4043   0.0882   0.6032     C
C       0.4043   0.9118   0.1032     C
H       0.4157   0.4025   0.1977     H
H       0.4157   0.5975   0.6977     H
O       0.4212   0.2276   0.2738     O
O       0.4212   0.7724   0.7738     O
C       0.4284   0.4887   0.1181     C
C       0.4284   0.5113   0.6181     C
C       0.4303   0.3115   0.3927     C
C       0.4303   0.6885   0.8927     C
C        0.433   0.4048   0.5084     C
C        0.433   0.5952   0.0084     C
C       0.4422   0.0472   0.1495     C
C       0.4422   0.9528   0.6495     C
C       0.4427   0.0785    0.542     C
C       0.4427   0.9215    0.042     C
H       0.4428   0.1231   0.5063     H
H       0.4428   0.8769   0.0063     H
H        0.443   0.0914   0.1859     H
H        0.443   0.9086   0.6859     H
C       0.4566   0.3065   0.9789     C
C       0.4566   0.6935   0.4789     C
H       0.4672   0.3875   0.8902     H
H       0.4672   0.6125   0.3902     H
H       0.4702   0.2391   0.0841     H
H       0.4702   0.7609   0.5841     H
C       0.4798   0.0058    0.533     C
C       0.4798   0.9942    0.033     C
C       0.4801   0.0555   0.0894     C
C       0.4801   0.9445   0.5894     C
H       0.4804    0.495   0.6513     H
H       0.4804    0.505   0.1513     H
H       0.4927   0.1053    0.413     H
H       0.4927   0.8947    0.913     H
C       0.4929   0.3692    0.945     C
C       0.4929   0.6308    0.445     C
C       0.4952   0.2795   0.0606     C
C       0.4952   0.7205   0.5606     C
C       0.5048   0.2795   0.4394     C
C       0.5048   0.7205   0.9394     C
C       0.5071   0.3692    0.555     C
C       0.5071   0.6308    0.055     C
H       0.5073   0.1053    0.087     H
H       0.5073   0.8947    0.587     H
H       0.5196    0.495   0.8487     H
H       0.5196    0.505   0.3487     H
C       0.5199   0.0555   0.4106     C
C       0.5199   0.9445   0.9106     C
C       0.5202   0.0058    0.967     C
C       0.5202   0.9942    0.467     C
H       0.5298   0.2391   0.4159     H
H       0.5298   0.7609   0.9159     H
H       0.5328   0.3875   0.6098     H
H       0.5328   0.6125   0.1098     H
C       0.5434   0.3065   0.5211     C
C       0.5434   0.6935   0.0211     C
H        0.557   0.0914   0.3141     H
H        0.557   0.9086   0.8141     H
H       0.5572   0.1231   0.9937     H
H       0.5572   0.8769   0.4937     H
C       0.5573   0.0785    0.958     C
C       0.5573   0.9215    0.458     C
C       0.5578   0.0472   0.3505     C
C       0.5578   0.9528   0.8505     C
C        0.567   0.4048   0.9916     C
C        0.567   0.5952   0.4916     C
C       0.5697   0.3115   0.1073     C
C       0.5697   0.6885   0.6073     C
C       0.5716   0.4887   0.3819     C
C       0.5716   0.5113   0.8819     C
O       0.5788   0.2276   0.2262     O
O       0.5788   0.7724   0.7262     O
H       0.5843   0.4025   0.3023     H
H       0.5843   0.5975   0.8023     H
C       0.5957   0.0882   0.8968     C
C       0.5957   0.9118   0.3968     C
C       0.5965   0.0253   0.8438     C
C       0.5965   0.9747   0.3438     C
C       0.6045    0.374   0.0726     C
C       0.6045    0.626   0.5726     C
C       0.6061   0.4733    0.957     C
C       0.6061   0.5267    0.457     C
C       0.6113    0.427   0.3541     C
C       0.6113    0.573   0.8541     C
C       0.6129   0.2798   0.1946     C
C       0.6129   0.7202   0.6946     C
H       0.6211   0.1388   0.8926     H
H       0.6211   0.8612   0.3926     H
C       0.6219   0.2644   0.5711     C
C       0.6219   0.7356   0.0711     C
H       0.6237   0.1554   0.7486     H
H       0.6237   0.8446   0.2486     H
N       0.6365   0.0341   0.7809     N
N       0.6365   0.9659   0.2809     N
C       0.6449   0.1036   0.7404     C
C       0.6449   0.8964   0.2404     C
O       0.6515   0.2768  0.64935     O
O       0.6515   0.7232  0.14935     O
H       0.6546   0.3963   0.1043     H
H       0.6546   0.6037   0.6043     H
O       0.6567   0.2148  0.53413     O
O       0.6567   0.7852  0.03413     O
C       0.6771   0.0271   0.2542     C
C       0.6771   0.9729   0.7542     C
C       0.6821   0.4978   0.4991     C
C       0.6821   0.5022   0.9991     C
O       0.6827    0.311  0.22978     O
O       0.6827    0.689  0.72978     O
H       0.6834   0.0827   0.2718     H
H       0.6834   0.9173   0.7718     H
N       0.6858   0.3992   0.3954     N
N       0.6858   0.6008   0.8954     N
N        0.686   0.0915    0.688     N
N        0.686   0.9085    0.188     N
C       0.7066   0.0094   0.6965     C
C       0.7066   0.9906   0.1965     C
H       0.7106   0.4786   0.0509     H
H       0.7106   0.5214   0.5509     H
C       0.7178   0.4352   0.4674     C
C       0.7178   0.5648   0.9674     C
H       0.7308    0.083   0.4997     H
H       0.7308    0.917   0.9997     H
H       0.7367   0.0181   0.1671     H
H       0.7367   0.9819   0.6671     H
Ni      0.7476  0.18685   0.6485    Ni
Ni      0.7476  0.81315   0.1485    Ni
Ni      0.7524  0.31315   0.3515    Ni
Ni      0.7524  0.68685   0.8515    Ni
H       0.7633   0.4819   0.8329     H
H       0.7633   0.5181   0.3329     H
H       0.7692    0.417   0.5003     H
H       0.7692    0.583   0.0003     H
C       0.7822   0.0648   0.5326     C
C       0.7822   0.9352   0.0326     C
H       0.7894   0.0214   0.9491     H
H       0.7894   0.9786   0.4491     H
C       0.7934   0.4906   0.3035     C
C       0.7934   0.5094   0.8035     C
N        0.814   0.4085    0.312     N
N        0.814   0.5915    0.812     N
N       0.8142   0.1008   0.6046     N
N       0.8142   0.8992   0.1046     N
H       0.8166   0.4173   0.7282     H
H       0.8166   0.5827   0.2282     H
O       0.8173    0.189  0.77022     O
O       0.8173    0.811  0.27022     O
C       0.8179   0.0022   0.5009     C
C       0.8179   0.9978   0.0009     C
C       0.8229   0.4729   0.7458     C
C       0.8229   0.5271   0.2458     C
O       0.8433   0.2852  0.46587     O
O       0.8433   0.7148  0.96587     O
H       0.8454   0.1037   0.8957     H
H       0.8454   0.8963   0.3957     H
O       0.8485   0.2232  0.35065     O
O       0.8485   0.7768  0.85065     O
C       0.8551   0.3964   0.2596     C
C       0.8551   0.6036   0.7596     C
N       0.8635   0.4659   0.2191     N
N       0.8635   0.5341   0.7191     N
H       0.8763   0.3446   0.2514     H
H       0.8763   0.6554   0.7514     H
C       0.8781   0.2356   0.4289     C
C       0.8781   0.7644   0.9289     C
H       0.8789   0.3612   0.1074     H
H       0.8789   0.6388   0.6074     H
C       0.8871   0.2202   0.8054     C
C       0.8871   0.7798   0.3054     C
C       0.8887    0.073   0.6459     C
C       0.8887    0.927   0.1459     C
C       0.8939   0.0267    0.043     C
C       0.8939   0.9733    0.543     C
C       0.8955    0.126   0.9274     C
C       0.8955    0.874   0.4274     C
C       0.9035   0.4747   0.1562     C
C       0.9035   0.5253   0.6562     C
C       0.9043   0.4118   0.1032     C
C       0.9043   0.5882   0.6032     C
H       0.9157   0.0975   0.6977     H
H       0.9157   0.9025   0.1977     H
O       0.9212   0.2724   0.7738     O
O       0.9212   0.7276   0.2738     O
C       0.9284   0.0113   0.6181     C
C       0.9284   0.9887   0.1181     C
C       0.9303   0.1885   0.8927     C
C       0.9303   0.8115   0.3927     C
C        0.933   0.0952   0.0084     C
C        0.933   0.9048   0.5084     C
C       0.9422   0.4528   0.6495     C
C       0.9422   0.5472   0.1495     C
C       0.9427   0.4215    0.042     C
C       0.9427   0.5785    0.542     C
H       0.9428   0.3769   0.0063     H
H       0.9428   0.6231   0.5063     H
H        0.943   0.4086   0.6859     H
H        0.943   0.5914   0.1859     H
C       0.9566   0.1935   0.4789     C
C       0.9566   0.8065   0.9789     C
H       0.9672   0.1125   0.3902     H
H       0.9672   0.8875   0.8902     H
H       0.9702   0.2609   0.5841     H
H       0.9702   0.7391   0.0841     H
C       0.9798   0.4942    0.033     C
C       0.9798   0.5058    0.533     C
C       0.9801   0.4445   0.5894     C
C       0.9801   0.5555   0.0894     C
H       0.9804    0.005   0.1513     H
H       0.9804    0.995   0.6513     H
H       0.9927   0.3947    0.913     H
H       0.9927   0.6053    0.413     H
C       0.9929   0.1308    0.445     C
C       0.9929   0.8692    0.945     C
C       0.9952   0.2205   0.5606     C
C       0.9952   0.7795   0.0606     C
