data_I
_chemical_name_common  '/home/zhangsd/repos/MofS-CGCNN/ML/data/TSD/clean_cifs/GITPIK_clean'
_cell_length_a  7.31710
_cell_length_b 15.21730
_cell_length_c 35.75700
_cell_angle_alpha 98.50210
_cell_angle_beta  90.00000
_cell_angle_gamma 103.91100
_space_group_name_H-M_alt      'P 1'


loop_
_space_group_symop_operation_xyz
  'x, y, z' 

loop_
_atom_site_label
_atom_site_fract_x
_atom_site_fract_y
_atom_site_fract_z
_atom_site_type_symbol
H       0.0004   0.7306    0.798     H
O      0.00214  0.86648  0.76851     O
Zn     0.00727   0.9047  0.71846    Zn
H       0.0086   0.4364    0.587     H
C      0.00939  0.75138  0.17742     C
C       0.0106    0.457  0.88857     C
N      0.01883  0.54526  0.88567     N
H       0.0262   0.7116   0.1203     H
C      0.02776  0.75812  0.82303     C
H       0.0279   0.6416   0.8435     H
C      0.03941  0.60682  0.62045     C
C       0.0406   0.9084  0.80173     C
C      0.04309  0.70438  0.85038     C
C       0.0523    0.852  0.83214     C
O      0.05461  0.45442  0.36116     O
N      0.05551  0.60482  0.14381     N
O      0.05808  0.83816  0.18238     O
N      0.06328  0.42596  0.91845     N
O       0.0704   0.9942  0.81177     O
C      0.07273  0.47666  0.57151     C
O      0.07614  0.69008  0.63208     O
O       0.0762   0.0058  0.68823     O
C      0.08105   0.7437  0.88808     C
C      0.08153  0.51686  0.19756     C
C      0.08646  0.70232  0.14304     C
C       0.0905   0.8912  0.86979     C
C      0.09269  0.60358  0.91643     C
O       0.0934   0.4948  0.79749     O
O      0.09905   0.2919  0.80103     O
Zn     0.10257   0.0953  0.78154    Zn
C       0.1029   0.8382  0.89751     C
C      0.10751  0.57082  0.58321     C
H        0.108   0.9542   0.8765     H
N      0.10828  0.69536  0.91741     N
H       0.1098   0.3798   0.5296     H
H        0.126   0.8656   0.9226     H
C       0.1322   0.0916  0.69827     C
C      0.13266  0.44272  0.53707     C
C       0.1339   0.4924  0.94791     C
O      0.13566  0.13352  0.73149     O
H       0.1394   0.7284   0.9392     H
H       0.1526      0.4   0.9762     H
H       0.1538   0.0458   0.6235     H
N      0.15481  0.58222  0.94858     N
Zn     0.17181  0.41936  0.31534    Zn
C      0.17879  0.57698  0.16965     C
N      0.18319  0.45878  0.97855     N
O      0.18487  0.48134  0.21514     O
O      0.19285   0.2919  0.30103     O
C       0.1993   0.1088  0.63021     C
C       0.2003    0.148  0.66786     C
C      0.20506  0.62912  0.55969     C
O      0.21992  0.16184  0.31762     O
H       0.2206    0.729   0.1421     H
C      0.22759  0.50198  0.51316     C
H        0.231    0.692   0.5675     H
H       0.2474      0.4   0.4762     H
Zn     0.24755  0.41936  0.81534    Zn
C      0.25801  0.24862  0.32258     C
H       0.2594   0.5446   0.1546     H
H       0.2595   0.6318   0.1838     H
H       0.2604   0.1344   0.5774     H
C       0.2647   0.1618  0.60249     C
C      0.26518  0.59616  0.52469     C
C      0.26964  0.24188  0.67697     C
H       0.2698   0.2694    0.702     H
H         0.27   0.3798   0.0296     H
C      0.27439  0.50198  0.01316     C
N      0.27559  0.45878  0.47855     N
H       0.2852   0.5446   0.6546     H
O      0.29647  0.48134  0.71514     O
H       0.3068   0.6364   0.0092     H
C      0.31006  0.44272  0.03707     C
H       0.3146   0.2884   0.3797     H
H       0.3296   0.6364   0.5092     H
C      0.33098  0.59616  0.02469     C
C      0.33735   0.2563  0.61192     C
C      0.33871  0.29562  0.64962     C
C       0.3585   0.4924  0.44791     C
N      0.36268  0.42596  0.41845     N
H       0.3723   0.6318   0.6838     H
C      0.38414  0.29768  0.35696     C
O      0.38606  0.30992  0.86792     O
H       0.3863   0.3584   0.6565     H
C      0.39819  0.57698  0.66965     C
O      0.39981  0.45442  0.86116     O
O       0.4014   0.4948  0.29749     O
C      0.40393  0.47666  0.07151     C
H        0.411   0.2716   0.5608     H
N      0.41292  0.30464  0.58259     N
C      0.42406  0.62912  0.05969     C
N      0.42741  0.58222  0.44858     N
H       0.4278   0.4364    0.087     H
C      0.43259  0.39318  0.87955     C
C      0.43533  0.51686  0.69756     C
C       0.4464    0.457  0.38857     C
N      0.45069  0.39518  0.35619     N
H        0.461    0.692   0.0675     H
C      0.46331  0.57082  0.08321     C
N      0.47357  0.45474  0.61433     N
C      0.48911  0.39642  0.58357     C
H       0.4916    0.271   0.3579     H
H       0.5084    0.729   0.6421     H
C      0.51089  0.60358  0.41643     C
N      0.52643  0.54526  0.38567     N
C      0.53669  0.42918  0.91679     C
H        0.539    0.308   0.9325     H
N      0.54931  0.60482  0.64381     N
C       0.5536    0.543  0.61143     C
C      0.56467  0.48314  0.30244     C
C      0.56741  0.60682  0.12045     C
H       0.5722   0.5636    0.913     H
N      0.57259  0.41778  0.55142     N
C      0.57594  0.37088  0.94031     C
N      0.58708  0.69536  0.41741     N
H        0.589   0.7284   0.4392     H
C      0.59607  0.52334  0.92849     C
O       0.5986   0.5052  0.70251     O
O      0.60019  0.54558  0.13884     O
C      0.60181  0.42302  0.33035     C
H       0.6137   0.6416   0.3435     H
O      0.61394  0.69008  0.13208     O
C      0.61586  0.70232  0.64304     C
H       0.6277   0.3682   0.3162     H
N      0.63732  0.57404  0.58155     N
C       0.6415   0.5076  0.55209     C
C      0.66129  0.70438  0.35038     C
C      0.66265   0.7437  0.38808     C
C      0.66902  0.40384  0.97531     C
H       0.6704   0.3636   0.4908     H
H       0.6854   0.7116   0.6203     H
C      0.68994  0.55728  0.96293     C
H       0.6932   0.3636   0.9908     H
O      0.70353  0.51866  0.28486     O
H       0.7148   0.4554   0.3454     H
N      0.72441  0.54122  0.52145     N
C      0.72561  0.49802  0.98684     C
H         0.73   0.6202   0.9704     H
H       0.7302   0.7306    0.298     H
C      0.73036  0.75812  0.32303     C
C      0.73482  0.40384  0.47531     C
C       0.7353   0.8382  0.39751     C
H       0.7396   0.8656   0.4226     H
H       0.7405   0.3682   0.8162     H
H       0.7406   0.4554   0.8454     H
C      0.74199  0.75138  0.67742     C
Zn     0.75245  0.58064  0.18466    Zn
H       0.7526      0.6   0.5238     H
H        0.769    0.308   0.4325     H
C      0.77241  0.49802  0.48684     C
H       0.7794    0.271   0.8579     H
O      0.78008  0.83816  0.68238     O
C      0.79494  0.37088  0.44031     C
C       0.7997    0.852  0.33214     C
C       0.8007   0.8912  0.36979     C
O      0.80715   0.7081  0.69897     O
O      0.81513  0.51866  0.78486     O
N      0.81681  0.54122  0.02145     N
C      0.82121  0.42302  0.83035     C
Zn     0.82819  0.58064  0.68466    Zn
N      0.84519  0.41778  0.05142     N
H       0.8462   0.9542   0.3765     H
H       0.8474      0.6   0.0238     H
H       0.8606   0.2716   0.0608     H
O      0.86434  0.86648  0.26851     O
C       0.8661   0.5076  0.05209     C
C      0.86734  0.55728  0.46293     C
C       0.8678   0.9084  0.30173     C
H        0.874   0.1344   0.0774     H
H       0.8902   0.6202   0.4704     H
N      0.89172  0.30464  0.08259     N
H        0.892   0.0458   0.1235     H
C      0.89249  0.42918  0.41679     C
C       0.8971   0.1618  0.10249     C
Zn     0.89743   0.9047  0.21846    Zn
O      0.90095   0.7081  0.19897     O
O       0.9066   0.5052  0.20251     O
C      0.90731  0.39642  0.08357     C
C       0.9095   0.1088  0.13021     C
C      0.91354  0.29768  0.85696     C
C      0.91847  0.48314  0.80244     C
C      0.91895   0.2563  0.11192     C
O       0.9238   0.9942  0.31177     O
O      0.92386  0.30992  0.36792     O
C      0.92727  0.52334  0.42849     C
O       0.9296   0.0058  0.18823     O
N      0.93672  0.57404  0.08155     N
O      0.94192  0.16184  0.81762     O
N      0.94449  0.39518  0.85619     N
O      0.94539  0.54558  0.63884     O
C       0.9477    0.148  0.16786     C
C      0.95691  0.29562  0.14962     C
C       0.9594   0.0916  0.19827     C
C      0.96059  0.39318  0.37955     C
H       0.9721   0.3584   0.1565     H
C      0.97224  0.24188  0.17697     C
H       0.9738   0.2884   0.8797     H
N      0.98117  0.45474  0.11433     N
C       0.9894    0.543  0.11143     C
C      0.99061  0.24862  0.82258     C
H       0.9914   0.5636    0.413     H
Zn     0.99273   0.0953  0.28154    Zn
O      0.99786  0.13352  0.23149     O
H       0.9996   0.2694    0.202     H
