data_I
_chemical_name_common  '/home/zhangsd/repos/MofS-CGCNN/ML/data/TSD/clean_cifs/GITTUZ_clean'
_cell_length_a 18.48820
_cell_length_b 26.64070
_cell_length_c 26.64070
_cell_angle_alpha 120.00000
_cell_angle_beta  90.00000
_cell_angle_gamma 90.00000
_space_group_name_H-M_alt      'P 1'


loop_
_space_group_symop_operation_xyz
  'x, y, z' 

loop_
_atom_site_label
_atom_site_fract_x
_atom_site_fract_y
_atom_site_fract_z
_atom_site_type_symbol
C          0.0      0.0   0.3839     C
H          0.0      0.0   0.4196     H
H          0.0      0.0   0.5804     H
C          0.0      0.0   0.6161     C
C          0.0   0.3839      0.0     C
C          0.0   0.3839   0.3839     C
H          0.0   0.4196     -0.0     H
H          0.0   0.4196   0.4196     H
H          0.0   0.5804      0.0     H
H          0.0   0.5804   0.5804     H
C          0.0   0.6161      0.0     C
C          0.0   0.6161   0.6161     C
H       0.0053   0.1913   0.5467     H
H       0.0053   0.1913   0.6446     H
H       0.0053   0.3554   0.5467     H
H       0.0053   0.3554   0.8087     H
H       0.0053   0.4533   0.6446     H
H       0.0053   0.4533   0.8087     H
C        0.015   0.1898   0.4317     C
C        0.015   0.1898   0.7581     C
C        0.015   0.2419   0.4317     C
C        0.015   0.2419   0.8102     C
C        0.015   0.5683   0.7581     C
C        0.015   0.5683   0.8102     C
C        0.018   0.5532   0.1633     C
C        0.018   0.5532   0.3899     C
C        0.018   0.6101   0.1633     C
C        0.018   0.6101   0.4468     C
C        0.018   0.8367   0.3899     C
C        0.018   0.8367   0.4468     C
C       0.0201   0.2326   0.0273     C
C       0.0201   0.2326   0.2053     C
C       0.0201   0.7947   0.0273     C
C       0.0201   0.7947   0.7674     C
C       0.0201   0.9727   0.2053     C
C       0.0201   0.9727   0.7674     C
C        0.021   0.3225   0.0271     C
C        0.021   0.3225   0.2954     C
C        0.021   0.7046   0.0271     C
C        0.021   0.7046   0.6775     C
C        0.021   0.9729   0.2954     C
C        0.021   0.9729   0.6775     C
H        0.031   0.2104   0.0453     H
H        0.031   0.2104   0.1651     H
H        0.031   0.8349   0.0453     H
H        0.031   0.8349   0.7896     H
H        0.031   0.9547   0.1651     H
H        0.031   0.9547   0.7896     H
N        0.034   0.3816   0.0437     N
N        0.034   0.3816   0.3379     N
N        0.034   0.6621   0.0437     N
N        0.034   0.6621   0.6184     N
N        0.034   0.9563   0.3379     N
N        0.034   0.9563   0.6184     N
C        0.043   0.2905   0.0541     C
C        0.043   0.2905   0.2364     C
C        0.043   0.7636   0.0541     C
C        0.043   0.7636   0.7095     C
C        0.043   0.9459   0.2364     C
C        0.043   0.9459   0.7095     C
N       0.0495   0.4366   0.1766     N
N       0.0495   0.4366     0.26     N
N       0.0495     0.74   0.1766     N
N       0.0495     0.74   0.5634     N
N       0.0495   0.8234     0.26     N
N       0.0495   0.8234   0.5634     N
N       0.0529   0.5166   0.1214     N
N       0.0529   0.5166   0.3952     N
N       0.0529   0.6048   0.1214     N
N       0.0529   0.6048   0.4834     N
N       0.0529   0.8786   0.3952     N
N       0.0529   0.8786   0.4834     N
H       0.0717   0.3073   0.0883     H
H       0.0717   0.3073    0.219     H
H       0.0717    0.781   0.0883     H
H       0.0717    0.781   0.6927     H
H       0.0717   0.9117    0.219     H
H       0.0717   0.9117   0.6927     H
C       0.0777   0.5477   0.0954     C
C       0.0777   0.5477   0.4523     C
C       0.0777   0.9046   0.4523     C
C       0.0799   0.1626   0.4291     C
C       0.0799   0.1626   0.7335     C
C       0.0799   0.2665   0.4291     C
C       0.0799   0.2665   0.8374     C
C       0.0799   0.5709   0.7335     C
C       0.0799   0.5709   0.8374     C
H         0.08   0.1276   0.4305     H
H         0.08   0.1276   0.6971     H
H         0.08   0.3029   0.4305     H
H         0.08   0.3029   0.8724     H
H         0.08   0.5695   0.6971     H
H         0.08   0.5695   0.8724     H
C       0.0862   0.4389  0.21945     C
C       0.0862  0.78055  0.21945     C
C       0.0862  0.78055   0.5611     C
Zn     0.08718     0.44  0.10823    Zn
Zn     0.08718     0.44  0.33177    Zn
Zn     0.08718  0.66823  0.10823    Zn
Zn     0.08718  0.66823     0.56    Zn
Zn     0.08718  0.89177  0.33177    Zn
Zn     0.08718  0.89177     0.56    Zn
N       0.1136  0.52515   0.0503     N
N       0.1136  0.52515  0.47485     N
N       0.1136   0.9497  0.47485     N
O       0.1245   0.4717   0.0268     O
O       0.1245   0.4717   0.4449     O
O       0.1245   0.5551   0.0268     O
O       0.1245   0.5551   0.5283     O
O       0.1245   0.9732   0.4449     O
O       0.1245   0.9732   0.5283     O
H       0.1374   0.4421  0.22105     H
H       0.1374  0.77895  0.22105     H
H       0.1374  0.77895   0.5579     H
C       0.1445   0.1863   0.4246     C
C       0.1445   0.1863   0.7617     C
C       0.1445   0.2383   0.4246     C
C       0.1445   0.2383   0.8137     C
C       0.1445   0.5754   0.7617     C
C       0.1445   0.5754   0.8137     C
H       0.1888   0.1669   0.4214     H
H       0.1888   0.1669   0.7455     H
H       0.1888   0.2545   0.4214     H
H       0.1888   0.2545   0.8331     H
H       0.1888   0.5786   0.7455     H
H       0.1888   0.5786   0.8331     H
H       0.1895    0.332   0.0176     H
H       0.1895    0.332   0.3144     H
H       0.1895   0.6856   0.0176     H
H       0.1895   0.6856    0.668     H
H       0.1895   0.9824   0.3144     H
H       0.1895   0.9824    0.668     H
O       0.1942   0.5158   0.1879     O
O       0.1942   0.5158   0.3279     O
O       0.1942   0.6721   0.1879     O
O       0.1942   0.6721   0.4842     O
O       0.1942   0.8121   0.3279     O
O       0.1942   0.8121   0.4842     O
N       0.1952    0.415   0.0958     N
N       0.1952    0.415   0.3192     N
N       0.1952   0.6808   0.0958     N
N       0.1952   0.6808    0.585     N
N       0.1952   0.9042   0.3192     N
N       0.1952   0.9042    0.585     N
C       0.2196   0.3617   0.0456     C
C       0.2196   0.3617   0.3161     C
C       0.2196   0.6839   0.0456     C
C       0.2196   0.6839   0.6383     C
C       0.2196   0.9544   0.3161     C
C       0.2196   0.9544   0.6383     C
C         0.25   0.4478   0.1261     C
C         0.25   0.4478   0.3217     C
N         0.25    0.496   0.1711     N
N         0.25    0.496   0.3249     N
N         0.25   0.6751   0.1711     N
N         0.25   0.6751    0.504     N
C         0.25   0.6783   0.1261     C
C         0.25   0.6783   0.5522     C
N         0.25   0.8289   0.3249     N
N         0.25   0.8289    0.504     N
C         0.25   0.8739   0.3217     C
C         0.25   0.8739   0.5522     C
C       0.2804   0.3617   0.0456     C
C       0.2804   0.3617   0.3161     C
C       0.2804   0.6839   0.0456     C
C       0.2804   0.6839   0.6383     C
C       0.2804   0.9544   0.3161     C
C       0.2804   0.9544   0.6383     C
N       0.3048    0.415   0.0958     N
N       0.3048    0.415   0.3192     N
N       0.3048   0.6808   0.0958     N
N       0.3048   0.6808    0.585     N
N       0.3048   0.9042   0.3192     N
N       0.3048   0.9042    0.585     N
O       0.3058   0.5158   0.1879     O
O       0.3058   0.5158   0.3279     O
O       0.3058   0.6721   0.1879     O
O       0.3058   0.6721   0.4842     O
O       0.3058   0.8121   0.3279     O
O       0.3058   0.8121   0.4842     O
H       0.3105    0.332   0.0176     H
H       0.3105    0.332   0.3144     H
H       0.3105   0.6856   0.0176     H
H       0.3105   0.6856    0.668     H
H       0.3105   0.9824   0.3144     H
H       0.3105   0.9824    0.668     H
H       0.3112   0.1669   0.4214     H
H       0.3112   0.1669   0.7455     H
H       0.3112   0.2545   0.4214     H
H       0.3112   0.2545   0.8331     H
H       0.3112   0.5786   0.7455     H
H       0.3112   0.5786   0.8331     H
C       0.3555   0.1863   0.4246     C
C       0.3555   0.1863   0.7617     C
C       0.3555   0.2383   0.4246     C
C       0.3555   0.2383   0.8137     C
C       0.3555   0.5754   0.7617     C
C       0.3555   0.5754   0.8137     C
H       0.3626   0.4421  0.22105     H
H       0.3626  0.77895  0.22105     H
H       0.3626  0.77895   0.5579     H
O       0.3755   0.4717   0.0268     O
O       0.3755   0.4717   0.4449     O
O       0.3755   0.5551   0.0268     O
O       0.3755   0.5551   0.5283     O
O       0.3755   0.9732   0.4449     O
O       0.3755   0.9732   0.5283     O
N       0.3864  0.52515   0.0503     N
N       0.3864  0.52515  0.47485     N
N       0.3864   0.9497  0.47485     N
Zn     0.41282     0.44  0.10823    Zn
Zn     0.41282     0.44  0.33177    Zn
Zn     0.41282  0.66823  0.10823    Zn
Zn     0.41282  0.66823     0.56    Zn
Zn     0.41282  0.89177  0.33177    Zn
Zn     0.41282  0.89177     0.56    Zn
C       0.4138   0.4389  0.21945     C
C       0.4138  0.78055  0.21945     C
C       0.4138  0.78055   0.5611     C
H         0.42   0.1276   0.4305     H
H         0.42   0.1276   0.6971     H
H         0.42   0.3029   0.4305     H
H         0.42   0.3029   0.8724     H
H         0.42   0.5695   0.6971     H
H         0.42   0.5695   0.8724     H
C       0.4201   0.1626   0.4291     C
C       0.4201   0.1626   0.7335     C
C       0.4201   0.2665   0.4291     C
C       0.4201   0.2665   0.8374     C
C       0.4201   0.5709   0.7335     C
C       0.4201   0.5709   0.8374     C
C       0.4223   0.5477   0.0954     C
C       0.4223   0.5477   0.4523     C
C       0.4223   0.9046   0.4523     C
H       0.4283   0.3073   0.0883     H
H       0.4283   0.3073    0.219     H
H       0.4283    0.781   0.0883     H
H       0.4283    0.781   0.6927     H
H       0.4283   0.9117    0.219     H
H       0.4283   0.9117   0.6927     H
N       0.4471   0.5166   0.1214     N
N       0.4471   0.5166   0.3952     N
N       0.4471   0.6048   0.1214     N
N       0.4471   0.6048   0.4834     N
N       0.4471   0.8786   0.3952     N
N       0.4471   0.8786   0.4834     N
N       0.4505   0.4366   0.1766     N
N       0.4505   0.4366     0.26     N
N       0.4505     0.74   0.1766     N
N       0.4505     0.74   0.5634     N
N       0.4505   0.8234     0.26     N
N       0.4505   0.8234   0.5634     N
C        0.457   0.2905   0.0541     C
C        0.457   0.2905   0.2364     C
C        0.457   0.7636   0.0541     C
C        0.457   0.7636   0.7095     C
C        0.457   0.9459   0.2364     C
C        0.457   0.9459   0.7095     C
N        0.466   0.3816   0.0437     N
N        0.466   0.3816   0.3379     N
N        0.466   0.6621   0.0437     N
N        0.466   0.6621   0.6184     N
N        0.466   0.9563   0.3379     N
N        0.466   0.9563   0.6184     N
H        0.469   0.2104   0.0453     H
H        0.469   0.2104   0.1651     H
H        0.469   0.8349   0.0453     H
H        0.469   0.8349   0.7896     H
H        0.469   0.9547   0.1651     H
H        0.469   0.9547   0.7896     H
C        0.479   0.3225   0.0271     C
C        0.479   0.3225   0.2954     C
C        0.479   0.7046   0.0271     C
C        0.479   0.7046   0.6775     C
C        0.479   0.9729   0.2954     C
C        0.479   0.9729   0.6775     C
C       0.4799   0.2326   0.0273     C
C       0.4799   0.2326   0.2053     C
C       0.4799   0.7947   0.0273     C
C       0.4799   0.7947   0.7674     C
C       0.4799   0.9727   0.2053     C
C       0.4799   0.9727   0.7674     C
C        0.482   0.5532   0.1633     C
C        0.482   0.5532   0.3899     C
C        0.482   0.6101   0.1633     C
C        0.482   0.6101   0.4468     C
C        0.482   0.8367   0.3899     C
C        0.482   0.8367   0.4468     C
C        0.485   0.1898   0.4317     C
C        0.485   0.1898   0.7581     C
C        0.485   0.2419   0.4317     C
C        0.485   0.2419   0.8102     C
C        0.485   0.5683   0.7581     C
C        0.485   0.5683   0.8102     C
H       0.4947   0.1913   0.5467     H
H       0.4947   0.1913   0.6446     H
H       0.4947   0.3554   0.5467     H
H       0.4947   0.3554   0.8087     H
H       0.4947   0.4533   0.6446     H
H       0.4947   0.4533   0.8087     H
C          0.5      0.0   0.3839     C
H          0.5      0.0   0.4196     H
H          0.5      0.0   0.5804     H
C          0.5      0.0   0.6161     C
C          0.5   0.3839      0.0     C
C          0.5   0.3839   0.3839     C
H          0.5   0.4196      0.0     H
H          0.5   0.4196   0.4196     H
H          0.5   0.5804      0.0     H
H          0.5   0.5804   0.5804     H
C          0.5   0.6161      0.0     C
C          0.5   0.6161   0.6161     C
H       0.5053   0.5467   0.1913     H
H       0.5053   0.5467   0.3554     H
H       0.5053   0.6446   0.1913     H
H       0.5053   0.6446   0.4533     H
H       0.5053   0.8087   0.3554     H
H       0.5053   0.8087   0.4533     H
C        0.515   0.4317   0.1898     C
C        0.515   0.4317   0.2419     C
C        0.515   0.7581   0.1898     C
C        0.515   0.7581   0.5683     C
C        0.515   0.8102   0.2419     C
C        0.515   0.8102   0.5683     C
C        0.518   0.1633   0.5532     C
C        0.518   0.1633   0.6101     C
C        0.518   0.3899   0.5532     C
C        0.518   0.3899   0.8367     C
C        0.518   0.4468   0.6101     C
C        0.518   0.4468   0.8367     C
C       0.5201   0.0273   0.2326     C
C       0.5201   0.0273   0.7947     C
C       0.5201   0.2053   0.2326     C
C       0.5201   0.2053   0.9727     C
C       0.5201   0.7674   0.7947     C
C       0.5201   0.7674   0.9727     C
C        0.521   0.0271   0.3225     C
C        0.521   0.0271   0.7046     C
C        0.521   0.2954   0.3225     C
C        0.521   0.2954   0.9729     C
C        0.521   0.6775   0.7046     C
C        0.521   0.6775   0.9729     C
H        0.531   0.0453   0.2104     H
H        0.531   0.0453   0.8349     H
H        0.531   0.1651   0.2104     H
H        0.531   0.1651   0.9547     H
H        0.531   0.7896   0.8349     H
H        0.531   0.7896   0.9547     H
N        0.534   0.0437   0.3816     N
N        0.534   0.0437   0.6621     N
N        0.534   0.3379   0.3816     N
N        0.534   0.3379   0.9563     N
N        0.534   0.6184   0.6621     N
N        0.534   0.6184   0.9563     N
C        0.543   0.0541   0.2905     C
C        0.543   0.0541   0.7636     C
C        0.543   0.2364   0.2905     C
C        0.543   0.2364   0.9459     C
C        0.543   0.7095   0.7636     C
C        0.543   0.7095   0.9459     C
N       0.5495   0.1766   0.4366     N
N       0.5495   0.1766     0.74     N
N       0.5495     0.26   0.4366     N
N       0.5495     0.26   0.8234     N
N       0.5495   0.5634     0.74     N
N       0.5495   0.5634   0.8234     N
N       0.5529   0.1214   0.5166     N
N       0.5529   0.1214   0.6048     N
N       0.5529   0.3952   0.5166     N
N       0.5529   0.3952   0.8786     N
N       0.5529   0.4834   0.6048     N
N       0.5529   0.4834   0.8786     N
H       0.5717   0.0883   0.3073     H
H       0.5717   0.0883    0.781     H
H       0.5717    0.219   0.3073     H
H       0.5717    0.219   0.9117     H
H       0.5717   0.6927    0.781     H
H       0.5717   0.6927   0.9117     H
C       0.5777   0.0954   0.5477     C
C       0.5777   0.4523   0.5477     C
C       0.5777   0.4523   0.9046     C
C       0.5799   0.4291   0.1626     C
C       0.5799   0.4291   0.2665     C
C       0.5799   0.7335   0.1626     C
C       0.5799   0.7335   0.5709     C
C       0.5799   0.8374   0.2665     C
C       0.5799   0.8374   0.5709     C
H         0.58   0.4305   0.1276     H
H         0.58   0.4305   0.3029     H
H         0.58   0.6971   0.1276     H
H         0.58   0.6971   0.5695     H
H         0.58   0.8724   0.3029     H
H         0.58   0.8724   0.5695     H
C       0.5862  0.21945   0.4389     C
C       0.5862  0.21945  0.78055     C
C       0.5862   0.5611  0.78055     C
Zn     0.58718  0.10823     0.44    Zn
Zn     0.58718  0.10823  0.66823    Zn
Zn     0.58718  0.33177     0.44    Zn
Zn     0.58718  0.33177  0.89177    Zn
Zn     0.58718     0.56  0.66823    Zn
Zn     0.58718     0.56  0.89177    Zn
N       0.6136   0.0503  0.52515     N
N       0.6136  0.47485  0.52515     N
N       0.6136  0.47485   0.9497     N
O       0.6245   0.0268   0.4717     O
O       0.6245   0.0268   0.5551     O
O       0.6245   0.4449   0.4717     O
O       0.6245   0.4449   0.9732     O
O       0.6245   0.5283   0.5551     O
O       0.6245   0.5283   0.9732     O
H       0.6374  0.22105   0.4421     H
H       0.6374  0.22105  0.77895     H
H       0.6374   0.5579  0.77895     H
C       0.6445   0.4246   0.1863     C
C       0.6445   0.4246   0.2383     C
C       0.6445   0.7617   0.1863     C
C       0.6445   0.7617   0.5754     C
C       0.6445   0.8137   0.2383     C
C       0.6445   0.8137   0.5754     C
H       0.6888   0.4214   0.1669     H
H       0.6888   0.4214   0.2545     H
H       0.6888   0.7455   0.1669     H
H       0.6888   0.7455   0.5786     H
H       0.6888   0.8331   0.2545     H
H       0.6888   0.8331   0.5786     H
H       0.6895   0.0176    0.332     H
H       0.6895   0.0176   0.6856     H
H       0.6895   0.3144    0.332     H
H       0.6895   0.3144   0.9824     H
H       0.6895    0.668   0.6856     H
H       0.6895    0.668   0.9824     H
O       0.6942   0.1879   0.5158     O
O       0.6942   0.1879   0.6721     O
O       0.6942   0.3279   0.5158     O
O       0.6942   0.3279   0.8121     O
O       0.6942   0.4842   0.6721     O
O       0.6942   0.4842   0.8121     O
N       0.6952   0.0958    0.415     N
N       0.6952   0.0958   0.6808     N
N       0.6952   0.3192    0.415     N
N       0.6952   0.3192   0.9042     N
N       0.6952    0.585   0.6808     N
N       0.6952    0.585   0.9042     N
C       0.7196   0.0456   0.3617     C
C       0.7196   0.0456   0.6839     C
C       0.7196   0.3161   0.3617     C
C       0.7196   0.3161   0.9544     C
C       0.7196   0.6383   0.6839     C
C       0.7196   0.6383   0.9544     C
C         0.75   0.1261   0.4478     C
C         0.75   0.1261   0.6783     C
N         0.75   0.1711    0.496     N
N         0.75   0.1711   0.6751     N
C         0.75   0.3217   0.4478     C
C         0.75   0.3217   0.8739     C
N         0.75   0.3249    0.496     N
N         0.75   0.3249   0.8289     N
N         0.75    0.504   0.6751     N
N         0.75    0.504   0.8289     N
C         0.75   0.5522   0.6783     C
C         0.75   0.5522   0.8739     C
C       0.7804   0.0456   0.3617     C
C       0.7804   0.0456   0.6839     C
C       0.7804   0.3161   0.3617     C
C       0.7804   0.3161   0.9544     C
C       0.7804   0.6383   0.6839     C
C       0.7804   0.6383   0.9544     C
N       0.8048   0.0958    0.415     N
N       0.8048   0.0958   0.6808     N
N       0.8048   0.3192    0.415     N
N       0.8048   0.3192   0.9042     N
N       0.8048    0.585   0.6808     N
N       0.8048    0.585   0.9042     N
O       0.8058   0.1879   0.5158     O
O       0.8058   0.1879   0.6721     O
O       0.8058   0.3279   0.5158     O
O       0.8058   0.3279   0.8121     O
O       0.8058   0.4842   0.6721     O
O       0.8058   0.4842   0.8121     O
H       0.8105   0.0176    0.332     H
H       0.8105   0.0176   0.6856     H
H       0.8105   0.3144    0.332     H
H       0.8105   0.3144   0.9824     H
H       0.8105    0.668   0.6856     H
H       0.8105    0.668   0.9824     H
H       0.8112   0.4214   0.1669     H
H       0.8112   0.4214   0.2545     H
H       0.8112   0.7455   0.1669     H
H       0.8112   0.7455   0.5786     H
H       0.8112   0.8331   0.2545     H
H       0.8112   0.8331   0.5786     H
C       0.8555   0.4246   0.1863     C
C       0.8555   0.4246   0.2383     C
C       0.8555   0.7617   0.1863     C
C       0.8555   0.7617   0.5754     C
C       0.8555   0.8137   0.2383     C
C       0.8555   0.8137   0.5754     C
H       0.8626  0.22105   0.4421     H
H       0.8626  0.22105  0.77895     H
H       0.8626   0.5579  0.77895     H
O       0.8755   0.0268   0.4717     O
O       0.8755   0.0268   0.5551     O
O       0.8755   0.4449   0.4717     O
O       0.8755   0.4449   0.9732     O
O       0.8755   0.5283   0.5551     O
O       0.8755   0.5283   0.9732     O
N       0.8864   0.0503  0.52515     N
N       0.8864  0.47485  0.52515     N
N       0.8864  0.47485   0.9497     N
Zn     0.91282  0.10823     0.44    Zn
Zn     0.91282  0.10823  0.66823    Zn
Zn     0.91282  0.33177     0.44    Zn
Zn     0.91282  0.33177  0.89177    Zn
Zn     0.91282     0.56  0.66823    Zn
Zn     0.91282     0.56  0.89177    Zn
C       0.9138  0.21945   0.4389     C
C       0.9138  0.21945  0.78055     C
C       0.9138   0.5611  0.78055     C
H         0.92   0.4305   0.1276     H
H         0.92   0.4305   0.3029     H
H         0.92   0.6971   0.1276     H
H         0.92   0.6971   0.5695     H
H         0.92   0.8724   0.3029     H
H         0.92   0.8724   0.5695     H
C       0.9201   0.4291   0.1626     C
C       0.9201   0.4291   0.2665     C
C       0.9201   0.7335   0.1626     C
C       0.9201   0.7335   0.5709     C
C       0.9201   0.8374   0.2665     C
C       0.9201   0.8374   0.5709     C
C       0.9223   0.0954   0.5477     C
C       0.9223   0.4523   0.5477     C
C       0.9223   0.4523   0.9046     C
H       0.9283   0.0883   0.3073     H
H       0.9283   0.0883    0.781     H
H       0.9283    0.219   0.3073     H
H       0.9283    0.219   0.9117     H
H       0.9283   0.6927    0.781     H
H       0.9283   0.6927   0.9117     H
N       0.9471   0.1214   0.5166     N
N       0.9471   0.1214   0.6048     N
N       0.9471   0.3952   0.5166     N
N       0.9471   0.3952   0.8786     N
N       0.9471   0.4834   0.6048     N
N       0.9471   0.4834   0.8786     N
N       0.9505   0.1766   0.4366     N
N       0.9505   0.1766     0.74     N
N       0.9505     0.26   0.4366     N
N       0.9505     0.26   0.8234     N
N       0.9505   0.5634     0.74     N
N       0.9505   0.5634   0.8234     N
C        0.957   0.0541   0.2905     C
C        0.957   0.0541   0.7636     C
C        0.957   0.2364   0.2905     C
C        0.957   0.2364   0.9459     C
C        0.957   0.7095   0.7636     C
C        0.957   0.7095   0.9459     C
N        0.966   0.0437   0.3816     N
N        0.966   0.0437   0.6621     N
N        0.966   0.3379   0.3816     N
N        0.966   0.3379   0.9563     N
N        0.966   0.6184   0.6621     N
N        0.966   0.6184   0.9563     N
H        0.969   0.0453   0.2104     H
H        0.969   0.0453   0.8349     H
H        0.969   0.1651   0.2104     H
H        0.969   0.1651   0.9547     H
H        0.969   0.7896   0.8349     H
H        0.969   0.7896   0.9547     H
C        0.979   0.0271   0.3225     C
C        0.979   0.0271   0.7046     C
C        0.979   0.2954   0.3225     C
C        0.979   0.2954   0.9729     C
C        0.979   0.6775   0.7046     C
C        0.979   0.6775   0.9729     C
C       0.9799   0.0273   0.2326     C
C       0.9799   0.0273   0.7947     C
C       0.9799   0.2053   0.2326     C
C       0.9799   0.2053   0.9727     C
C       0.9799   0.7674   0.7947     C
C       0.9799   0.7674   0.9727     C
C        0.982   0.1633   0.5532     C
C        0.982   0.1633   0.6101     C
C        0.982   0.3899   0.5532     C
C        0.982   0.3899   0.8367     C
C        0.982   0.4468   0.6101     C
C        0.982   0.4468   0.8367     C
C        0.985   0.4317   0.1898     C
C        0.985   0.4317   0.2419     C
C        0.985   0.7581   0.1898     C
C        0.985   0.7581   0.5683     C
C        0.985   0.8102   0.2419     C
C        0.985   0.8102   0.5683     C
H       0.9947   0.5467   0.1913     H
H       0.9947   0.5467   0.3554     H
H       0.9947   0.6446   0.1913     H
H       0.9947   0.6446   0.4533     H
H       0.9947   0.8087   0.3554     H
H       0.9947   0.8087   0.4533     H
