data_I
_chemical_name_common  '/home/zhangsd/repos/MofS-CGCNN/ML/data/TSD/clean_cifs/GIXGOK_clean'
_cell_length_a 26.13150
_cell_length_b 26.13150
_cell_length_c 26.13150
_cell_angle_alpha 109.47100
_cell_angle_beta  109.47100
_cell_angle_gamma 109.47100
_space_group_name_H-M_alt      'P 1'


loop_
_space_group_symop_operation_xyz
  'x, y, z' 

loop_
_atom_site_label
_atom_site_fract_x
_atom_site_fract_y
_atom_site_fract_z
_atom_site_type_symbol
H          0.0   0.1555   0.7077     H
C          0.0   0.1667   0.6773     C
C          0.0   0.1964   0.5914     C
C          0.0   0.2124   0.5396     C
H          0.0   0.2923   0.8445     H
C          0.0   0.3227   0.8333     C
C          0.0   0.4086   0.8036     C
C          0.0   0.4604   0.7876     C
C          0.0   0.5396   0.2124     C
C          0.0   0.5914   0.1964     C
C          0.0   0.6773   0.1667     C
H          0.0   0.7077   0.1555     H
C          0.0   0.7876   0.4604     C
C          0.0   0.8036   0.4086     C
C          0.0   0.8333   0.3227     C
H          0.0   0.8445   0.2923     H
O      0.05199  0.24458  0.54727     O
O      0.05199  0.50472  0.80741     O
O      0.05199  0.54727  0.24458     O
O      0.05199  0.80741  0.50472     O
N       0.0549   0.2177    0.639     N
N       0.0549   0.4159   0.8372     N
N       0.0549    0.639   0.2177     N
N       0.0549   0.8372   0.4159     N
C       0.0562    0.203   0.6828     C
C       0.0562   0.3734   0.8532     C
C       0.0562   0.6828    0.203     C
C       0.0562   0.8532   0.3734     C
H       0.0664   0.4508   0.6156     H
H       0.0664   0.6156   0.4508     H
C       0.0823   0.4384   0.6439     C
C       0.0823   0.6439   0.4384     C
H       0.0869   0.3687   0.5856     H
H       0.0869   0.5013   0.7182     H
H       0.0869   0.5856   0.3687     H
H       0.0869   0.7182   0.5013     H
H       0.0943    0.217   0.7169     H
H       0.0943   0.3774   0.8773     H
H       0.0943   0.7169    0.217     H
H       0.0943   0.8773   0.3774     H
C       0.0945   0.3894   0.6263     C
C       0.0945   0.4682   0.7051     C
C       0.0945   0.6263   0.3894     C
C       0.0945   0.7051   0.4682     C
N       0.1172   0.3713   0.6673     N
N       0.1172   0.4499   0.7459     N
N       0.1172   0.6673   0.3713     N
N       0.1172   0.7459   0.4499     N
H       0.1227    0.217   0.5001     H
H       0.1227   0.5001    0.217     H
H       0.1227   0.6226   0.9057     H
H       0.1227   0.9057   0.6226     H
C       0.1276   0.4031   0.7245     C
C       0.1276   0.7245   0.4031     C
Cd     0.14513  0.29026  0.64513    Cd
Cd     0.14513      0.5  0.85487    Cd
Cd     0.14513  0.64513  0.29026    Cd
Cd     0.14513  0.85487      0.5    Cd
C       0.1468    0.203   0.5202     C
C       0.1468   0.5202    0.203     C
C       0.1468   0.6266   0.9438     C
C       0.1468   0.9438   0.6266     C
C       0.1535   0.3825    0.771     C
C       0.1535    0.771   0.3825     C
H       0.1555     -0.0   0.7077     H
H       0.1555   0.1555   0.4478     H
H       0.1555   0.4478   0.1555     H
H       0.1555   0.7077      0.0     H
N       0.1628   0.2177   0.5787     N
N       0.1628   0.5787   0.2177     N
N       0.1628   0.5841   0.9451     N
N       0.1628   0.9451   0.5841     N
O      0.16364  0.33812  0.75156     O
O      0.16364  0.41208  0.82552     O
O      0.16364  0.75156  0.33812     O
O      0.16364  0.82552  0.41208     O
H       0.1648   0.5492   0.6156     H
H       0.1648   0.6156   0.5492     H
C       0.1667      0.0   0.6773     C
C       0.1667   0.1667   0.4894     C
C       0.1667   0.4894   0.1667     C
C       0.1667   0.6773      0.0     C
O      0.17448  0.33812  0.58656     O
O      0.17448  0.58656  0.33812     O
O      0.17448  0.58792  0.83636     O
O      0.17448  0.83636  0.58792     O
O      0.19259  0.24458  0.69731     O
O      0.19259  0.49528  0.94801     O
O      0.19259  0.69731  0.24458     O
O      0.19259  0.94801  0.49528     O
C       0.1964      0.0   0.5914     C
C       0.1964   0.1964    0.605     C
C       0.1964   0.5914      0.0     C
C       0.1964    0.605   0.1964     C
C        0.203   0.0562   0.6828     C
C        0.203   0.1468   0.5202     C
C        0.203   0.5202   0.1468     C
C        0.203   0.6828   0.0562     C
C       0.2055   0.5616   0.6439     C
C       0.2055   0.6439   0.5616     C
C       0.2124      0.0   0.5396     C
C       0.2124   0.2124   0.6728     C
C       0.2124   0.5396     -0.0     C
C       0.2124   0.6728   0.2124     C
H       0.2169   0.4987   0.5856     H
H       0.2169   0.5856   0.4987     H
H       0.2169   0.6313   0.7182     H
H       0.2169   0.7182   0.6313     H
H        0.217   0.0943   0.7169     H
H        0.217   0.1227   0.5001     H
H        0.217   0.5001   0.1227     H
H        0.217   0.7169   0.0943     H
N       0.2177   0.0549    0.639     N
N       0.2177   0.1628   0.5787     N
N       0.2177   0.5787   0.1628     N
N       0.2177    0.639   0.0549     N
C        0.229   0.3825   0.6115     C
C        0.229   0.6115   0.3825     C
C        0.229   0.6175   0.8465     C
C        0.229   0.8465   0.6175     C
C       0.2369   0.5318   0.6263     C
C       0.2369   0.6106   0.7051     C
C       0.2369   0.6263   0.5318     C
C       0.2369   0.7051   0.6106     C
O      0.24458  0.05199  0.54727     O
O      0.24458  0.19259  0.69731     O
O      0.24458  0.54727  0.05199     O
O      0.24458  0.69731  0.19259     O
O      0.24844  0.41208  0.58656     O
O      0.24844  0.58656  0.41208     O
O      0.24844  0.66188  0.83636     O
O      0.24844  0.83636  0.66188     O
N       0.2541   0.3713    0.704     N
N       0.2541   0.5501   0.8828     N
N       0.2541    0.704   0.3713     N
N       0.2541   0.8828   0.5501     N
C       0.2755   0.4031   0.6786     C
C       0.2755   0.5969   0.8724     C
C       0.2755   0.6786   0.4031     C
C       0.2755   0.8724   0.5969     C
H       0.2818   0.3687   0.7831     H
H       0.2818   0.4987   0.9131     H
H       0.2818   0.7831   0.3687     H
H       0.2818   0.9131   0.4987     H
H       0.2831   0.3774   0.5001     H
H       0.2831   0.5001   0.3774     H
H       0.2831    0.783   0.9057     H
H       0.2831   0.9057    0.783     H
Cd     0.29026  0.14513  0.64513    Cd
Cd     0.29026  0.64513  0.14513    Cd
H       0.2923      0.0   0.8445     H
H       0.2923   0.2923   0.4478     H
H       0.2923   0.4478   0.2923     H
H       0.2923   0.8445      0.0     H
C       0.2949   0.3894   0.7631     C
C       0.2949   0.5318   0.9055     C
C       0.2949   0.7631   0.3894     C
C       0.2949   0.9055   0.5318     C
N        0.296   0.5501   0.6673     N
N        0.296   0.6287   0.7459     N
N        0.296   0.6673   0.5501     N
N        0.296   0.7459   0.6287     N
O      0.30269  0.49528  0.54727     O
O      0.30269  0.54727  0.49528     O
O      0.30269  0.75542  0.80741     O
O      0.30269  0.80741  0.75542     O
C       0.3172   0.3734   0.5202     C
C       0.3172   0.5202   0.3734     C
C       0.3172    0.797   0.9438     C
C       0.3172   0.9438    0.797     C
C       0.3214   0.5969   0.7245     C
C       0.3214   0.7245   0.5969     C
C       0.3227      0.0   0.8333     C
C       0.3227   0.3227   0.4894     C
C       0.3227   0.4894   0.3227     C
C       0.3227   0.8333      0.0     C
C       0.3272   0.5396   0.5396     C
C       0.3272   0.7876   0.7876     C
N       0.3327   0.4499    0.704     N
N       0.3327   0.6287   0.8828     N
N       0.3327    0.704   0.4499     N
N       0.3327   0.8828   0.6287     N
O      0.33812  0.16364  0.75156     O
O      0.33812  0.17448  0.58656     O
O      0.33812  0.58656  0.17448     O
O      0.33812  0.75156  0.16364     O
Cd     0.35487      0.5  0.64513    Cd
Cd     0.35487  0.64513      0.5    Cd
Cd     0.35487  0.70974  0.85487    Cd
Cd     0.35487  0.85487  0.70974    Cd
C       0.3561   0.4384   0.7945     C
C       0.3561   0.5616   0.9177     C
C       0.3561   0.7945   0.4384     C
C       0.3561   0.9177   0.5616     C
N        0.361   0.4159   0.5787     N
N        0.361   0.5787   0.4159     N
N        0.361   0.7823   0.9451     N
N        0.361   0.9451   0.7823     N
H       0.3687   0.0869   0.5856     H
H       0.3687   0.2818   0.7831     H
H       0.3687   0.5856   0.0869     H
H       0.3687   0.7831   0.2818     H
N       0.3713   0.1172   0.6673     N
N       0.3713   0.2541    0.704     N
N       0.3713   0.6673   0.1172     N
N       0.3713    0.704   0.2541     N
C       0.3734   0.0562   0.8532     C
C       0.3734   0.3172   0.5202     C
C       0.3734   0.5202   0.3172     C
C       0.3734   0.8532   0.0562     C
C       0.3737   0.4682   0.7631     C
C       0.3737   0.6106   0.9055     C
C       0.3737   0.7631   0.4682     C
C       0.3737   0.9055   0.6106     C
H       0.3774   0.0943   0.8773     H
H       0.3774   0.2831   0.5001     H
H       0.3774   0.5001   0.2831     H
H       0.3774   0.8773   0.0943     H
C       0.3825   0.1535    0.771     C
C       0.3825    0.229   0.6115     C
C       0.3825   0.6115    0.229     C
C       0.3825    0.771   0.1535     C
H       0.3844   0.4508   0.8352     H
H       0.3844   0.5492   0.9336     H
H       0.3844   0.8352   0.4508     H
H       0.3844   0.9336   0.5492     H
C       0.3885   0.6175    0.771     C
C       0.3885    0.771   0.6175     C
C       0.3894   0.0945   0.6263     C
C       0.3894   0.2949   0.7631     C
C       0.3894   0.6263   0.0945     C
C       0.3894   0.7631   0.2949     C
C        0.395   0.5914   0.5914     C
C        0.395   0.8036   0.8036     C
C       0.4031   0.1276   0.7245     C
C       0.4031   0.2755   0.6786     C
C       0.4031   0.6786   0.2755     C
C       0.4031   0.7245   0.1276     C
C       0.4086     -0.0   0.8036     C
C       0.4086   0.4086    0.605     C
C       0.4086    0.605   0.4086     C
C       0.4086   0.8036      0.0     C
O      0.41208  0.16364  0.82552     O
O      0.41208  0.24844  0.58656     O
O      0.41208  0.58656  0.24844     O
O      0.41208  0.82552  0.16364     O
O      0.41344  0.58792  0.75156     O
O      0.41344  0.66188  0.82552     O
O      0.41344  0.75156  0.58792     O
O      0.41344  0.82552  0.66188     O
H       0.4144   0.5013   0.7831     H
H       0.4144   0.6313   0.9131     H
H       0.4144   0.7831   0.5013     H
H       0.4144   0.9131   0.6313     H
N       0.4159   0.0549   0.8372     N
N       0.4159    0.361   0.5787     N
N       0.4159   0.5787    0.361     N
N       0.4159   0.8372   0.0549     N
N       0.4213   0.5841    0.639     N
N       0.4213    0.639   0.5841     N
N       0.4213   0.7823   0.8372     N
N       0.4213   0.8372   0.7823     N
C       0.4384   0.0823   0.6439     C
C       0.4384   0.3561   0.7945     C
C       0.4384   0.6439   0.0823     C
C       0.4384   0.7945   0.3561     C
H       0.4478   0.1555   0.1555     H
H       0.4478   0.2923   0.2923     H
N       0.4499   0.1172   0.7459     N
N       0.4499   0.3327    0.704     N
N       0.4499    0.704   0.3327     N
N       0.4499   0.7459   0.1172     N
H       0.4508   0.0664   0.6156     H
H       0.4508   0.3844   0.8352     H
H       0.4508   0.6156   0.0664     H
H       0.4508   0.8352   0.3844     H
O      0.45273  0.50472  0.69731     O
O      0.45273  0.69731  0.50472     O
O      0.45273  0.75542  0.94801     O
O      0.45273  0.94801  0.75542     O
C       0.4604     -0.0   0.7876     C
C       0.4604   0.4604   0.6728     C
C       0.4604   0.6728   0.4604     C
C       0.4604   0.7876      0.0     C
C       0.4682   0.0945   0.7051     C
C       0.4682   0.3737   0.7631     C
C       0.4682   0.7051   0.0945     C
C       0.4682   0.7631   0.3737     C
C       0.4798   0.6266   0.6828     C
C       0.4798   0.6828   0.6266     C
C       0.4798    0.797   0.8532     C
C       0.4798   0.8532    0.797     C
C       0.4894   0.1667   0.1667     C
C       0.4894   0.3227   0.3227     C
O      0.49528  0.19259  0.94801     O
O      0.49528  0.30269  0.54727     O
O      0.49528  0.54727  0.30269     O
O      0.49528  0.94801  0.19259     O
H       0.4987   0.2169   0.5856     H
H       0.4987   0.2818   0.9131     H
H       0.4987   0.5856   0.2169     H
H       0.4987   0.9131   0.2818     H
H       0.4999   0.6226   0.7169     H
H       0.4999   0.7169   0.6226     H
H       0.4999    0.783   0.8773     H
H       0.4999   0.8773    0.783     H
Cd         0.5  0.14513  0.85487    Cd
Cd         0.5  0.35487  0.64513    Cd
Cd         0.5  0.64513  0.35487    Cd
Cd         0.5  0.85487  0.14513    Cd
H       0.5001   0.1227    0.217     H
H       0.5001    0.217   0.1227     H
H       0.5001   0.2831   0.3774     H
H       0.5001   0.3774   0.2831     H
H       0.5013   0.0869   0.7182     H
H       0.5013   0.4144   0.7831     H
H       0.5013   0.7182   0.0869     H
H       0.5013   0.7831   0.4144     H
O      0.50472  0.05199  0.80741     O
O      0.50472  0.45273  0.69731     O
O      0.50472  0.69731  0.45273     O
O      0.50472  0.80741  0.05199     O
C       0.5106   0.6773   0.6773     C
C       0.5106   0.8333   0.8333     C
C       0.5202   0.1468    0.203     C
C       0.5202    0.203   0.1468     C
C       0.5202   0.3172   0.3734     C
C       0.5202   0.3734   0.3172     C
C       0.5318   0.2369   0.6263     C
C       0.5318   0.2949   0.9055     C
C       0.5318   0.6263   0.2369     C
C       0.5318   0.9055   0.2949     C
C       0.5396      0.0   0.2124     C
C       0.5396   0.2124      0.0     C
C       0.5396   0.3272   0.5396     C
C       0.5396   0.5396   0.3272     C
O      0.54727  0.05199  0.24458     O
O      0.54727  0.24458  0.05199     O
O      0.54727  0.30269  0.49528     O
O      0.54727  0.49528  0.30269     O
H       0.5492   0.1648   0.6156     H
H       0.5492   0.3844   0.9336     H
H       0.5492   0.6156   0.1648     H
H       0.5492   0.9336   0.3844     H
N       0.5501   0.2541   0.8828     N
N       0.5501    0.296   0.6673     N
N       0.5501   0.6673    0.296     N
N       0.5501   0.8828   0.2541     N
H       0.5522   0.7077   0.7077     H
H       0.5522   0.8445   0.8445     H
C       0.5616   0.2055   0.6439     C
C       0.5616   0.3561   0.9177     C
C       0.5616   0.6439   0.2055     C
C       0.5616   0.9177   0.3561     C
N       0.5787   0.1628   0.2177     N
N       0.5787   0.2177   0.1628     N
N       0.5787    0.361   0.4159     N
N       0.5787   0.4159    0.361     N
N       0.5841   0.1628   0.9451     N
N       0.5841   0.4213    0.639     N
N       0.5841    0.639   0.4213     N
N       0.5841   0.9451   0.1628     N
H       0.5856   0.0869   0.3687     H
H       0.5856   0.2169   0.4987     H
H       0.5856   0.3687   0.0869     H
H       0.5856   0.4987   0.2169     H
O      0.58656  0.17448  0.33812     O
O      0.58656  0.24844  0.41208     O
O      0.58656  0.33812  0.17448     O
O      0.58656  0.41208  0.24844     O
O      0.58792  0.17448  0.83636     O
O      0.58792  0.41344  0.75156     O
O      0.58792  0.75156  0.41344     O
O      0.58792  0.83636  0.17448     O
C       0.5914     -0.0   0.1964     C
C       0.5914   0.1964     -0.0     C
C       0.5914    0.395   0.5914     C
C       0.5914   0.5914    0.395     C
C       0.5969   0.2755   0.8724     C
C       0.5969   0.3214   0.7245     C
C       0.5969   0.7245   0.3214     C
C       0.5969   0.8724   0.2755     C
C        0.605   0.1964   0.1964     C
C        0.605   0.4086   0.4086     C
C       0.6106   0.2369   0.7051     C
C       0.6106   0.3737   0.9055     C
C       0.6106   0.7051   0.2369     C
C       0.6106   0.9055   0.3737     C
C       0.6115    0.229   0.3825     C
C       0.6115   0.3825    0.229     C
H       0.6156   0.0664   0.4508     H
H       0.6156   0.1648   0.5492     H
H       0.6156   0.4508   0.0664     H
H       0.6156   0.5492   0.1648     H
C       0.6175    0.229   0.8465     C
C       0.6175   0.3885    0.771     C
C       0.6175    0.771   0.3885     C
C       0.6175   0.8465    0.229     C
H       0.6226   0.1227   0.9057     H
H       0.6226   0.4999   0.7169     H
H       0.6226   0.7169   0.4999     H
H       0.6226   0.9057   0.1227     H
C       0.6263   0.0945   0.3894     C
C       0.6263   0.2369   0.5318     C
C       0.6263   0.3894   0.0945     C
C       0.6263   0.5318   0.2369     C
C       0.6266   0.1468   0.9438     C
C       0.6266   0.4798   0.6828     C
C       0.6266   0.6828   0.4798     C
C       0.6266   0.9438   0.1468     C
N       0.6287    0.296   0.7459     N
N       0.6287   0.3327   0.8828     N
N       0.6287   0.7459    0.296     N
N       0.6287   0.8828   0.3327     N
H       0.6313   0.2169   0.7182     H
H       0.6313   0.4144   0.9131     H
H       0.6313   0.7182   0.2169     H
H       0.6313   0.9131   0.4144     H
N        0.639   0.0549   0.2177     N
N        0.639   0.2177   0.0549     N
N        0.639   0.4213   0.5841     N
N        0.639   0.5841   0.4213     N
C       0.6439   0.0823   0.4384     C
C       0.6439   0.2055   0.5616     C
C       0.6439   0.4384   0.0823     C
C       0.6439   0.5616   0.2055     C
Cd     0.64513  0.14513  0.29026    Cd
Cd     0.64513  0.29026  0.14513    Cd
Cd     0.64513  0.35487      0.5    Cd
Cd     0.64513      0.5  0.35487    Cd
O      0.66188  0.24844  0.83636     O
O      0.66188  0.41344  0.82552     O
O      0.66188  0.82552  0.41344     O
O      0.66188  0.83636  0.24844     O
N       0.6673   0.1172   0.3713     N
N       0.6673    0.296   0.5501     N
N       0.6673   0.3713   0.1172     N
N       0.6673   0.5501    0.296     N
C       0.6728   0.2124   0.2124     C
C       0.6728   0.4604   0.4604     C
C       0.6773     -0.0   0.1667     C
C       0.6773   0.1667      0.0     C
C       0.6773   0.5106   0.6773     C
C       0.6773   0.6773   0.5106     C
C       0.6786   0.2755   0.4031     C
C       0.6786   0.4031   0.2755     C
C       0.6828   0.0562    0.203     C
C       0.6828    0.203   0.0562     C
C       0.6828   0.4798   0.6266     C
C       0.6828   0.6266   0.4798     C
O      0.69731  0.19259  0.24458     O
O      0.69731  0.24458  0.19259     O
O      0.69731  0.45273  0.50472     O
O      0.69731  0.50472  0.45273     O
N        0.704   0.2541   0.3713     N
N        0.704   0.3327   0.4499     N
N        0.704   0.3713   0.2541     N
N        0.704   0.4499   0.3327     N
C       0.7051   0.0945   0.4682     C
C       0.7051   0.2369   0.6106     C
C       0.7051   0.4682   0.0945     C
C       0.7051   0.6106   0.2369     C
H       0.7077      0.0   0.1555     H
H       0.7077   0.1555      0.0     H
H       0.7077   0.5522   0.7077     H
H       0.7077   0.7077   0.5522     H
Cd     0.70974  0.35487  0.85487    Cd
Cd     0.70974  0.85487  0.35487    Cd
H       0.7169   0.0943    0.217     H
H       0.7169    0.217   0.0943     H
H       0.7169   0.4999   0.6226     H
H       0.7169   0.6226   0.4999     H
H       0.7182   0.0869   0.5013     H
H       0.7182   0.2169   0.6313     H
H       0.7182   0.5013   0.0869     H
H       0.7182   0.6313   0.2169     H
C       0.7245   0.1276   0.4031     C
C       0.7245   0.3214   0.5969     C
C       0.7245   0.4031   0.1276     C
C       0.7245   0.5969   0.3214     C
N       0.7459   0.1172   0.4499     N
N       0.7459    0.296   0.6287     N
N       0.7459   0.4499   0.1172     N
N       0.7459   0.6287    0.296     N
O      0.75156  0.16364  0.33812     O
O      0.75156  0.33812  0.16364     O
O      0.75156  0.41344  0.58792     O
O      0.75156  0.58792  0.41344     O
O      0.75542  0.30269  0.80741     O
O      0.75542  0.45273  0.94801     O
O      0.75542  0.80741  0.30269     O
O      0.75542  0.94801  0.45273     O
C       0.7631   0.2949   0.3894     C
C       0.7631   0.3737   0.4682     C
C       0.7631   0.3894   0.2949     C
C       0.7631   0.4682   0.3737     C
C        0.771   0.1535   0.3825     C
C        0.771   0.3825   0.1535     C
C        0.771   0.3885   0.6175     C
C        0.771   0.6175   0.3885     C
N       0.7823    0.361   0.9451     N
N       0.7823   0.4213   0.8372     N
N       0.7823   0.8372   0.4213     N
N       0.7823   0.9451    0.361     N
H        0.783   0.2831   0.9057     H
H        0.783   0.4999   0.8773     H
H        0.783   0.8773   0.4999     H
H        0.783   0.9057   0.2831     H
H       0.7831   0.2818   0.3687     H
H       0.7831   0.3687   0.2818     H
H       0.7831   0.4144   0.5013     H
H       0.7831   0.5013   0.4144     H
C       0.7876     -0.0   0.4604     C
C       0.7876   0.3272   0.7876     C
C       0.7876   0.4604      1.0     C
C       0.7876   0.7876   0.3272     C
C       0.7945   0.3561   0.4384     C
C       0.7945   0.4384   0.3561     C
C        0.797   0.3172   0.9438     C
C        0.797   0.4798   0.8532     C
C        0.797   0.8532   0.4798     C
C        0.797   0.9438   0.3172     C
C       0.8036     -0.0   0.4086     C
C       0.8036    0.395   0.8036     C
C       0.8036   0.4086      0.0     C
C       0.8036   0.8036    0.395     C
O      0.80741  0.05199  0.50472     O
O      0.80741  0.30269  0.75542     O
O      0.80741  0.50472  0.05199     O
O      0.80741  0.75542  0.30269     O
O      0.82552  0.16364  0.41208     O
O      0.82552  0.41208  0.16364     O
O      0.82552  0.41344  0.66188     O
O      0.82552  0.66188  0.41344     O
C       0.8333      0.0   0.3227     C
C       0.8333   0.3227      1.0     C
C       0.8333   0.5106   0.8333     C
C       0.8333   0.8333   0.5106     C
H       0.8352   0.3844   0.4508     H
H       0.8352   0.4508   0.3844     H
O      0.83636  0.17448  0.58792     O
O      0.83636  0.24844  0.66188     O
O      0.83636  0.58792  0.17448     O
O      0.83636  0.66188  0.24844     O
N       0.8372   0.0549   0.4159     N
N       0.8372   0.4159   0.0549     N
N       0.8372   0.4213   0.7823     N
N       0.8372   0.7823   0.4213     N
H       0.8445     -0.0   0.2923     H
H       0.8445   0.2923      0.0     H
H       0.8445   0.5522   0.8445     H
H       0.8445   0.8445   0.5522     H
C       0.8465    0.229   0.6175     C
C       0.8465   0.6175    0.229     C
C       0.8532   0.0562   0.3734     C
C       0.8532   0.3734   0.0562     C
C       0.8532   0.4798    0.797     C
C       0.8532    0.797   0.4798     C
Cd     0.85487  0.14513      0.5    Cd
Cd     0.85487  0.35487  0.70974    Cd
Cd     0.85487      0.5  0.14513    Cd
Cd     0.85487  0.70974  0.35487    Cd
C       0.8724   0.2755   0.5969     C
C       0.8724   0.5969   0.2755     C
H       0.8773   0.0943   0.3774     H
H       0.8773   0.3774   0.0943     H
H       0.8773   0.4999    0.783     H
H       0.8773    0.783   0.4999     H
N       0.8828   0.2541   0.5501     N
N       0.8828   0.3327   0.6287     N
N       0.8828   0.5501   0.2541     N
N       0.8828   0.6287   0.3327     N
C       0.9055   0.2949   0.5318     C
C       0.9055   0.3737   0.6106     C
C       0.9055   0.5318   0.2949     C
C       0.9055   0.6106   0.3737     C
H       0.9057   0.1227   0.6226     H
H       0.9057   0.2831    0.783     H
H       0.9057   0.6226   0.1227     H
H       0.9057    0.783   0.2831     H
H       0.9131   0.2818   0.4987     H
H       0.9131   0.4144   0.6313     H
H       0.9131   0.4987   0.2818     H
H       0.9131   0.6313   0.4144     H
C       0.9177   0.3561   0.5616     C
C       0.9177   0.5616   0.3561     C
H       0.9336   0.3844   0.5492     H
H       0.9336   0.5492   0.3844     H
C       0.9438   0.1468   0.6266     C
C       0.9438   0.3172    0.797     C
C       0.9438   0.6266   0.1468     C
C       0.9438    0.797   0.3172     C
N       0.9451   0.1628   0.5841     N
N       0.9451    0.361   0.7823     N
N       0.9451   0.5841   0.1628     N
N       0.9451   0.7823    0.361     N
O      0.94801  0.19259  0.49528     O
O      0.94801  0.45273  0.75542     O
O      0.94801  0.49528  0.19259     O
O      0.94801  0.75542  0.45273     O
