data_I
_chemical_name_common  '/home/zhangsd/repos/MofS-CGCNN/ML/data/TSD/clean_cifs/GIYSEN_clean'
_cell_length_a  9.67010
_cell_length_b 11.74200
_cell_length_c 18.85200
_cell_angle_alpha 90.00000
_cell_angle_beta  97.91000
_cell_angle_gamma 90.00000
_space_group_name_H-M_alt      'P 1'


loop_
_space_group_symop_operation_xyz
  'x, y, z' 

loop_
_atom_site_label
_atom_site_fract_x
_atom_site_fract_y
_atom_site_fract_z
_atom_site_type_symbol
Mo         0.0  0.37281     0.25    Mo
Mo         0.0  0.62719     0.75    Mo
N       0.0038   0.4704   0.0251     N
N       0.0038   0.5296   0.5251     N
H       0.0139   0.2349   0.9774     H
H       0.0139   0.7651   0.4774     H
Cu     0.03814  0.37517  0.11034    Cu
Cu     0.03814  0.62483  0.61034    Cu
C        0.088   0.1944   0.0046     C
C        0.088   0.8056   0.5046     C
H       0.0949   0.0735   0.9296     H
H       0.0949   0.9265   0.4296     H
S       0.1184   0.2672  0.33622     S
S       0.1184   0.7328  0.83622     S
C       0.1364    0.098   0.9757     C
C       0.1364    0.902   0.4757     C
N       0.1402   0.2352   0.0703     N
N       0.1402   0.7648   0.5703     N
S       0.1532     0.48  0.20161     S
S       0.1532     0.52  0.70161     S
H       0.2076    0.442    0.892     H
H       0.2076    0.558    0.392     H
H       0.2186   0.1075   0.4512     H
H       0.2186   0.8925   0.9512     H
C       0.2455   0.0349   0.0124     C
C       0.2455   0.9651   0.5124     C
C       0.2479   0.1735   0.1056     C
C       0.2479   0.8265   0.6056     C
Cu     0.27939  0.37286  0.28959    Cu
Cu     0.27939  0.62714  0.78959    Cu
H       0.2883   0.1982   0.1518     H
H       0.2883   0.8018   0.6518     H
C       0.2989   0.0687   0.4795     C
C       0.2989   0.9313   0.9795     C
C       0.3002   0.0785    0.078     C
C       0.3002   0.9215    0.578     C
C       0.3067   0.4376   0.8989     C
C       0.3067   0.5624   0.3989     C
H       0.3122   0.4279   0.5673     H
H       0.3122   0.5721   0.0673     H
H       0.3167   0.3055   0.9682     H
H       0.3167   0.6945   0.4682     H
H       0.3168    0.176   0.5664     H
H       0.3168    0.824   0.0664     H
H       0.3256   0.2944   0.4651     H
H       0.3256   0.7056   0.9651     H
H       0.3621   0.0438   0.4454     H
H       0.3621   0.9562   0.9454     H
C       0.3719   0.3572   0.9454     C
C       0.3719   0.6428   0.4454     C
C       0.3756    0.155   0.5293     C
C       0.3756    0.845   0.0293     C
H       0.3772   0.0409   0.1048     H
H       0.3772   0.9591   0.6048     H
N       0.3792   0.4905   0.3632     N
N       0.3792   0.5095   0.8632     N
C       0.4114   0.4275   0.5755     C
C       0.4114   0.5725   0.0755     C
C       0.4122   0.2613   0.4911     C
C       0.4122   0.7387   0.9911     C
H       0.4287    0.443    0.146     H
H       0.4287    0.557    0.646     H
C       0.4453   0.3009   0.2599     C
C       0.4453   0.6991   0.7599     C
H       0.4624   0.1201   0.5539     H
H       0.4624   0.8799   0.0539     H
H       0.4736   0.2404   0.4553     H
H       0.4736   0.7596   0.9553     H
C       0.4819   0.4954   0.1225     C
C       0.4819   0.5046   0.6225     C
C       0.4848   0.3504   0.5407     C
C       0.4848   0.6496   0.0407     C
C       0.5152   0.3504   0.9593     C
C       0.5152   0.6496   0.4593     C
C       0.5181   0.4954   0.3775     C
C       0.5181   0.5046   0.8775     C
H       0.5264   0.2404   0.0447     H
H       0.5264   0.7596   0.5447     H
H       0.5376   0.1201   0.9461     H
H       0.5376   0.8799   0.4461     H
C       0.5547   0.3009   0.2401     C
C       0.5547   0.6991   0.7401     C
H       0.5713    0.443    0.354     H
H       0.5713    0.557    0.854     H
C       0.5878   0.2613   0.0089     C
C       0.5878   0.7387   0.5089     C
C       0.5886   0.4275   0.9245     C
C       0.5886   0.5725   0.4245     C
N       0.6208   0.4905   0.1368     N
N       0.6208   0.5095   0.6368     N
H       0.6228   0.0409   0.3952     H
H       0.6228   0.9591   0.8952     H
C       0.6244    0.155   0.9707     C
C       0.6244    0.845   0.4707     C
C       0.6281   0.3572   0.5546     C
C       0.6281   0.6428   0.0546     C
H       0.6379   0.0438   0.0546     H
H       0.6379   0.9562   0.5546     H
H       0.6744   0.2944   0.0349     H
H       0.6744   0.7056   0.5349     H
H       0.6832    0.176   0.9336     H
H       0.6832    0.824   0.4336     H
H       0.6833   0.3055   0.5318     H
H       0.6833   0.6945   0.0318     H
H       0.6878   0.4279   0.9327     H
H       0.6878   0.5721   0.4327     H
C       0.6933   0.4376   0.6011     C
C       0.6933   0.5624   0.1011     C
C       0.6998   0.0785    0.422     C
C       0.6998   0.9215    0.922     C
C       0.7011   0.0687   0.0205     C
C       0.7011   0.9313   0.5205     C
H       0.7117   0.1982   0.3482     H
H       0.7117   0.8018   0.8482     H
Cu     0.72061  0.37286  0.21041    Cu
Cu     0.72061  0.62714  0.71041    Cu
C       0.7521   0.1735   0.3944     C
C       0.7521   0.8265   0.8944     C
C       0.7545   0.0349   0.4876     C
C       0.7545   0.9651   0.9876     C
H       0.7814   0.1075   0.0488     H
H       0.7814   0.8925   0.5488     H
H       0.7924    0.442    0.608     H
H       0.7924    0.558    0.108     H
S       0.8468     0.48  0.29839     S
S       0.8468     0.52  0.79839     S
N       0.8598   0.2352   0.4297     N
N       0.8598   0.7648   0.9297     N
C       0.8636    0.098   0.5243     C
C       0.8636    0.902   0.0243     C
S       0.8816   0.2672  0.16378     S
S       0.8816   0.7328  0.66378     S
H       0.9051   0.0735   0.5704     H
H       0.9051   0.9265   0.0704     H
C        0.912   0.1944   0.4954     C
C        0.912   0.8056   0.9954     C
Cu     0.96186  0.37517  0.38966    Cu
Cu     0.96186  0.62483  0.88966    Cu
H       0.9861   0.2349   0.5226     H
H       0.9861   0.7651   0.0226     H
N       0.9962   0.4704   0.4749     N
N       0.9962   0.5296   0.9749     N
