data_I
_chemical_name_common  '/home/zhangsd/repos/MofS-CGCNN/ML/data/TSD/clean_cifs/GIYSOX_clean'
_cell_length_a  9.63620
_cell_length_b 11.46200
_cell_length_c 19.14700
_cell_angle_alpha 90.00000
_cell_angle_beta  97.98000
_cell_angle_gamma 90.00000
_space_group_name_H-M_alt      'P 1'


loop_
_space_group_symop_operation_xyz
  'x, y, z' 

loop_
_atom_site_label
_atom_site_fract_x
_atom_site_fract_y
_atom_site_fract_z
_atom_site_type_symbol
Mo         0.0  0.38353     0.25    Mo
Mo         0.0  0.61647     0.75    Mo
H       0.0007    0.253   0.5209     H
H       0.0007    0.747   0.0209     H
N       0.0054   0.4746   0.0258     N
N       0.0054   0.5254   0.5258     N
Cu     0.04016  0.38322  0.11294    Cu
Cu     0.04016  0.61678  0.61294    Cu
C       0.0751   0.2098   0.0036     C
C       0.0751   0.7902   0.5036     C
H       0.0771    0.083   0.9291     H
H       0.0771    0.917   0.4291     H
S       0.1181   0.2745  0.33439     S
S       0.1181   0.7255  0.83439     S
C       0.1213   0.1089   0.9738     C
C       0.1213   0.8911   0.4738     C
N       0.1398   0.2476   0.0691     N
N       0.1398   0.7524   0.5691     N
S       0.1538   0.4934  0.20228     S
S       0.1538   0.5066  0.70228     S
H       0.1974   0.1059   0.4512     H
H       0.1974   0.8941   0.9512     H
H       0.2119   0.4243   0.8876     H
H       0.2119   0.5757   0.3876     H
C       0.2322   0.0457   0.0096     C
C       0.2322   0.9543   0.5096     C
C       0.2507   0.1844   0.1048     C
C       0.2507   0.8156   0.6048     C
Cu     0.27973  0.38231  0.28841    Cu
Cu     0.27973  0.61769  0.78841    Cu
C       0.2807   0.0643   0.4752     C
C       0.2807   0.9357   0.9752     C
H       0.2949   0.2103   0.1496     H
H       0.2949   0.7897   0.6496     H
C       0.2969   0.0835   0.0751     C
C       0.2969   0.9165   0.5751     C
H       0.3053   0.2973   0.4691     H
H       0.3053   0.7027   0.9691     H
H       0.3085   0.4255   0.5645     H
H       0.3085   0.5745   0.0645     H
C       0.3112   0.4255   0.8976     C
C       0.3112   0.5745   0.3976     C
H       0.3113   0.1665   0.5658     H
H       0.3113   0.8335   0.0658     H
H       0.3194   0.2973   0.9711     H
H       0.3194   0.7027   0.4711     H
H       0.3389   0.0413   0.4387     H
H       0.3389   0.9587   0.9387     H
C        0.365    0.148   0.5267     C
C        0.365    0.852   0.0267     C
H       0.3727   0.0403   0.0995     H
H       0.3727   0.9597   0.5995     H
C        0.375   0.3484   0.9475     C
C        0.375   0.6516   0.4475     C
N       0.3796   0.4993    0.363     N
N       0.3796   0.5007    0.863     N
C        0.395   0.2599   0.4885     C
C        0.395   0.7401   0.9885     C
C        0.408   0.4233   0.5732     C
C        0.408   0.5767   0.0732     C
H       0.4276   0.4498   0.1465     H
H       0.4276   0.5502   0.6465     H
C       0.4437    0.305   0.2591     C
C       0.4437    0.695   0.7591     C
H       0.4458   0.2405   0.4485     H
H       0.4458   0.7595   0.9485     H
H       0.4542   0.1108   0.5469     H
H       0.4542   0.8892   0.0469     H
C       0.4803   0.4979   0.6221     C
C       0.4803   0.5021   0.1221     C
C        0.482   0.3453   0.5371     C
C        0.482   0.6547   0.0371     C
C        0.518   0.3453   0.9629     C
C        0.518   0.6547   0.4629     C
C       0.5197   0.4979   0.8779     C
C       0.5197   0.5021   0.3779     C
H       0.5458   0.1108   0.9531     H
H       0.5458   0.8892   0.4531     H
H       0.5542   0.2405   0.0515     H
H       0.5542   0.7595   0.5515     H
C       0.5563    0.305   0.2409     C
C       0.5563    0.695   0.7409     C
H       0.5724   0.4498   0.3535     H
H       0.5724   0.5502   0.8535     H
C        0.592   0.4233   0.9268     C
C        0.592   0.5767   0.4268     C
C        0.605   0.2599   0.0115     C
C        0.605   0.7401   0.5115     C
N       0.6204   0.4993    0.137     N
N       0.6204   0.5007    0.637     N
C        0.625   0.3484   0.5525     C
C        0.625   0.6516   0.0525     C
H       0.6273   0.0403   0.4005     H
H       0.6273   0.9597   0.9005     H
C        0.635    0.148   0.9733     C
C        0.635    0.852   0.4733     C
H       0.6611   0.0413   0.0613     H
H       0.6611   0.9587   0.5613     H
H       0.6806   0.2973   0.5289     H
H       0.6806   0.7027   0.0289     H
H       0.6887   0.1665   0.9342     H
H       0.6887   0.8335   0.4342     H
C       0.6888   0.4255   0.6024     C
C       0.6888   0.5745   0.1024     C
H       0.6915   0.4255   0.9355     H
H       0.6915   0.5745   0.4355     H
H       0.6947   0.2973   0.0309     H
H       0.6947   0.7027   0.5309     H
C       0.7031   0.0835   0.4249     C
C       0.7031   0.9165   0.9249     C
H       0.7051   0.2103   0.3504     H
H       0.7051   0.7897   0.8504     H
C       0.7193   0.0643   0.0248     C
C       0.7193   0.9357   0.5248     C
Cu     0.72027  0.38231  0.21159    Cu
Cu     0.72027  0.61769  0.71159    Cu
C       0.7493   0.1844   0.3952     C
C       0.7493   0.8156   0.8952     C
C       0.7678   0.0457   0.4904     C
C       0.7678   0.9543   0.9904     C
H       0.7881   0.4243   0.6124     H
H       0.7881   0.5757   0.1124     H
H       0.8026   0.1059   0.0488     H
H       0.8026   0.8941   0.5488     H
S       0.8462   0.4934  0.29772     S
S       0.8462   0.5066  0.79772     S
N       0.8602   0.2476   0.4309     N
N       0.8602   0.7524   0.9309     N
C       0.8787   0.1089   0.5262     C
C       0.8787   0.8911   0.0262     C
S       0.8819   0.2745  0.16561     S
S       0.8819   0.7255  0.66561     S
H       0.9229    0.083   0.5709     H
H       0.9229    0.917   0.0709     H
C       0.9249   0.2098   0.4964     C
C       0.9249   0.7902   0.9964     C
Cu     0.95984  0.38322  0.38706    Cu
Cu     0.95984  0.61678  0.88706    Cu
N       0.9946   0.4746   0.4742     N
N       0.9946   0.5254   0.9742     N
H       0.9993    0.253   0.9791     H
H       0.9993    0.747   0.4791     H
