data_I
_chemical_name_common  '/home/zhangsd/repos/MofS-CGCNN/ML/data/TSD/clean_cifs/GIYSUD_clean'
_cell_length_a  8.96900
_cell_length_b  9.41900
_cell_length_c 17.29000
_cell_angle_alpha 100.46800
_cell_angle_beta  92.75400
_cell_angle_gamma 117.70200
_space_group_name_H-M_alt      'P 1'


loop_
_space_group_symop_operation_xyz
  'x, y, z' 

loop_
_atom_site_label
_atom_site_fract_x
_atom_site_fract_y
_atom_site_fract_z
_atom_site_type_symbol
H       0.0094   0.5996   0.0658     H
H        0.015   0.9706    0.884     H
H        0.025    0.834    0.036     H
H       0.0281   0.3455   0.8494     H
C       0.0315    0.833   0.0852     C
H       0.0391   0.0668   0.8164     H
C       0.0467   0.3458   0.9052     C
H       0.0514   0.3547   0.5757     H
C       0.0589   0.5458   0.5382     C
C       0.0605   0.0797   0.8735     C
C       0.0986   0.4688   0.5887     C
H       0.1136   0.7739   0.5291     H
C       0.1353   0.7149   0.5616     C
C       0.2085   0.5592   0.6591     C
C       0.2189   0.9354   0.1191     C
H       0.2332   0.5028   0.6922     H
C       0.2363   0.4402   0.9359     C
C       0.2437   0.7976   0.6328     C
H        0.251    0.449    0.992     H
C       0.2537   0.1756   0.9019     C
O       0.2708   0.9272   0.1862     O
N       0.2806   0.7214   0.6821     N
H       0.2932   0.9119   0.6471     H
H        0.297    0.179    0.965     H
C       0.3112   0.6162   0.9249     C
H       0.3135   0.3515   0.8357     H
O       0.3159   0.0374   0.0822     O
O       0.3188   0.6339   0.8548     O
C       0.3268   0.3526   0.8918     C
C       0.3302   0.0821    0.852     C
O       0.3516   0.9792   0.8834     O
O       0.3587   0.0972   0.7843     O
O       0.3597    0.728   0.9867     O
H       0.4476   0.4131   0.9125     H
Cd     0.45725  0.84964  0.79928    Cd
Cd         0.5      0.0      0.0    Cd
Cd     0.54275  0.15036  0.20072    Cd
H       0.5524   0.5869   0.0875     H
O       0.6403    0.272   0.0133     O
O       0.6413   0.9028   0.2157     O
O       0.6484   0.0208   0.1166     O
C       0.6698   0.9179    0.148     C
C       0.6732   0.6474   0.1082     C
O       0.6812   0.3661   0.1452     O
O       0.6841   0.9626   0.9178     O
H       0.6865   0.6485   0.1643     H
C       0.6888   0.3838   0.0751     C
H        0.703    0.821    0.035     H
H       0.7068   0.0881   0.3529     H
N       0.7194   0.2786   0.3179     N
O       0.7292   0.0728   0.8138     O
C       0.7463   0.8244   0.0981     C
H        0.749    0.551    0.008     H
C       0.7563   0.2024   0.3672     C
C       0.7637   0.5598   0.0641     C
H       0.7668   0.4972   0.3078     H
C       0.7811   0.0646   0.8809     C
C       0.7915   0.4408   0.3409     C
C       0.8647   0.2851   0.4384     C
H       0.8864   0.2261   0.4709     H
C       0.9014   0.5312   0.4113     C
C       0.9395   0.9203   0.1265     C
C       0.9411   0.4542   0.4618     C
H       0.9486   0.6453   0.4243     H
C       0.9533   0.6542   0.0948     C
H       0.9609   0.9332   0.1836     H
C       0.9685    0.167   0.9148     C
H       0.9719   0.6545   0.1506     H
H        0.975    0.166    0.964     H
H        0.985   0.0294    0.116     H
H       0.9906   0.4004   0.9342     H
