data_I
_chemical_name_common  '/home/zhangsd/repos/MofS-CGCNN/ML/data/TSD/clean_cifs/GOBXAY_clean'
_cell_length_a 14.10510
_cell_length_b 15.33650
_cell_length_c 17.81620
_cell_angle_alpha 89.98500
_cell_angle_beta  86.89000
_cell_angle_gamma 89.74700
_space_group_name_H-M_alt      'P 1'


loop_
_space_group_symop_operation_xyz
  'x, y, z' 

loop_
_atom_site_label
_atom_site_fract_x
_atom_site_fract_y
_atom_site_fract_z
_atom_site_type_symbol
C       0.0009    0.622    0.001     C
C       0.0021   0.4541   0.5686     C
H        0.004   0.4239   0.6137     H
H       0.0055   0.5408   0.9156     H
O       0.0071   0.3518    0.734     O
C       0.0114   0.0752   0.0408     C
H       0.0118   0.5167   0.7275     H
C       0.0166   0.2716   0.8924     C
H       0.0196    0.126   0.0681     H
C       0.0264   0.9773   0.4296     C
H       0.0318   0.0327   0.2326     H
O       0.0322    0.859    0.247     O
C       0.0342    0.421   0.0573     C
H       0.0459   0.9627   0.3805     H
C       0.0515   0.3155   0.9636     C
C       0.0573   0.9855    0.935     C
H       0.0609   0.6077   0.0168     H
O       0.0613   0.7054   0.1278     O
H       0.0666   0.6627   0.7215     H
C       0.0668   0.9876   0.5577     C
C       0.0671    0.059    0.976     C
O       0.0671   0.2123   0.8662     O
C       0.0723   0.4924    0.446     C
C       0.0758   0.5289   0.7318     C
C       0.0761   0.4464   0.5121     C
H       0.0871   0.1731   0.2434     H
C       0.0893   0.9635   0.4842     C
C       0.0964   0.0427   0.2357     C
C       0.0986   0.3721    0.735     C
C       0.1085   0.6173   0.7301     C
H       0.1125   0.0998   0.9601     H
O       0.1131   0.0047   0.6833     O
O       0.1143   0.5282   0.1634     O
C       0.1183   0.9682   0.8638     C
C       0.1216   0.4108   0.0783     C
C        0.127   0.8727    0.241     C
O       0.1271   0.8922   0.8396     O
H       0.1277     0.41   0.5197     H
Ce     0.12908  0.15794  0.74768    Ce
C       0.1293   0.1263   0.2404     C
C       0.1334   0.9769   0.6183     C
C       0.1382   0.4643   0.7395     C
C       0.1447   0.2963   0.9856     C
Ce     0.14472  0.65862   0.2374    Ce
H       0.1477   0.9376   0.4717     H
O       0.1506   0.5123   0.3215     O
C       0.1544   0.4756   0.3851     C
C       0.1608   0.9712   0.2356     C
O       0.1629   0.0326   0.8282     O
C       0.1652   0.4626    0.138     C
O       0.1653   0.3156   0.7343     O
C       0.1768    0.345   0.0483     C
O       0.1802   0.7831   0.7087     O
H       0.1828   0.2544    0.961     H
O       0.1877   0.8168   0.2353     O
C       0.2003    0.634   0.7412     C
O        0.203   0.2931   0.2762     O
O       0.2069   0.9289   0.6017     O
O       0.2217   0.4319    0.403     O
C       0.2275   0.1404   0.2407     C
C       0.2327   0.7278   0.7351     C
C       0.2335   0.4814   0.7449     C
H       0.2348   0.3325   0.0681     H
O        0.246   0.4442   0.1572     O
C       0.2574   0.9887   0.2383     C
Ce     0.25934  0.92473    0.738    Ce
C        0.264   0.2374   0.2471     C
C       0.2667   0.5682   0.7461     C
H       0.2764   0.4354   0.7479     H
O       0.2819   0.0993   0.6876     O
C       0.2876   0.0761   0.2373     C
H       0.3012   0.9434   0.2407     H
Ce     0.30642   0.4266  0.27629    Ce
O       0.3078   0.6137    0.266     O
O       0.3232   0.7513   0.7577     O
H       0.3308   0.5805   0.7499     H
O       0.3352   0.9199   0.8618     O
H       0.3375   0.9985   0.9881     H
H       0.3523    0.088   0.2343     H
H       0.3546    0.249   0.6357     H
H       0.3571   0.9869   0.5615     H
O       0.3573    0.253   0.2371     O
H       0.3632   0.5334   0.5695     H
H       0.3646   0.4265    0.474     H
H       0.3658    0.764   0.2396     H
C       0.3714   0.0948   0.7095     C
H       0.3717   0.0714   0.4578     H
C       0.3871     0.61   0.2965     C
H       0.3992   0.0611   0.0929     H
O       0.4011   0.0288   0.7408     O
O       0.4018   0.8669   0.6627     O
C       0.4028   0.9981   0.9927     C
H       0.4056   0.5435   0.1053     H
H       0.4075   0.6237   0.9953     H
C       0.4091   0.2459   0.6628     C
O       0.4142   0.5402   0.3237     O
C       0.4164   0.9913   0.5365     C
C       0.4191   0.5206   0.5415     C
C       0.4206   0.4553   0.4837     C
O       0.4209   0.6606   0.6416     O
C       0.4212   0.9157   0.8717     C
C       0.4221   0.7617   0.2643     C
C       0.4249   0.0429   0.4747     C
O       0.4263   0.3507   0.3517     O
C       0.4311   0.1721   0.7014     C
C       0.4404   0.0375   0.0557     C
C        0.442   0.5255    0.063     C
C        0.446   0.5745   0.9977     C
O       0.4464    0.151    0.351     O
C        0.447   0.6866   0.2995     C
H       0.4535   0.3665   0.6412     H
O       0.4566   0.4136   0.1958     O
H        0.462   0.8885   0.2441     H
C        0.462   0.9579   0.9364     C
O       0.4636   0.6829   0.8742     O
C         0.47   0.3152   0.6651     C
O       0.4742   0.8764   0.8294     O
C       0.4807    0.836    0.265     C
C       0.4834   0.8835   0.6275     C
Ce     0.48346  0.75024  0.74697    Ce
C       0.4882   0.9469   0.5633     C
C       0.4958   0.4464   0.0633     C
C       0.4966   0.6264   0.6193     C
C       0.4973   0.4354   0.4452     C
C       0.4977   0.3897   0.1318     C
C       0.5023   0.6103   0.8682     C
C       0.5027   0.5646   0.5548     C
C       0.5034   0.3736   0.3807     C
C       0.5042   0.5536   0.9367     C
C       0.5118   0.0531   0.4367     C
Ce     0.51654  0.24976  0.25303    Ce
C       0.5166   0.1165   0.3725     C
C       0.5193    0.164    0.735     C
O       0.5258   0.1236   0.1706     O
C         0.53   0.6848   0.3349     C
O       0.5364   0.3171   0.1258     O
C        0.538   0.0421   0.0636     C
H        0.538   0.1115   0.7559     H
O       0.5434   0.5864   0.8042     O
H       0.5465   0.6335   0.3588     H
C        0.553   0.3134   0.7005     C
O       0.5536    0.849    0.649     O
C        0.554   0.4255   0.0023     C
C        0.558   0.4745    0.937     C
C       0.5596   0.9625   0.9443     C
C       0.5689   0.8279   0.2986     C
O       0.5737   0.6493   0.6483     O
C       0.5751   0.9571   0.5253     C
C       0.5779   0.2383   0.7357     C
C       0.5788   0.0843   0.1283     C
O       0.5791   0.3394   0.3584     O
C       0.5794   0.5447   0.5163     C
C       0.5809   0.4794   0.4585     C
C       0.5836   0.0087   0.4635     C
O       0.5858   0.4598   0.6763     O
C       0.5909   0.7541   0.3372     C
H       0.5925   0.3763   0.0047     H
H       0.5944   0.4565   0.8947     H
C       0.5972   0.0019   0.0073     C
O       0.5982   0.1331   0.3373     O
O       0.5989   0.9712   0.2592     O
H       0.6008   0.9389   0.9071     H
C       0.6129     0.39   0.7035     C
H       0.6283   0.9286   0.5422     H
C       0.6286   0.9052   0.2905     C
H       0.6342    0.236   0.7604     H
H       0.6354   0.5735    0.526     H
H       0.6368   0.4666   0.4305     H
O       0.6427    0.747   0.7629     O
H       0.6429   0.0131   0.4385     H
H       0.6454    0.751   0.3643     H
H       0.6477    0.912   0.7657     H
H       0.6625   0.0015   0.0119     H
O       0.6648   0.0801   0.1382     O
H       0.6692   0.4195   0.2501     H
O       0.6768   0.2487   0.2423     O
O       0.6922   0.3863    0.734     O
Ce     0.69358   0.5734  0.72371    Ce
H       0.6988   0.0566   0.7593     H
C       0.7124   0.9239   0.7627     C
O       0.7181   0.9007   0.3124     O
H       0.7236   0.5646   0.2521     H
C       0.7333   0.4318   0.2539     C
C        0.736   0.7626   0.7529     C
Ce     0.74066  0.07527    0.262    Ce
C       0.7426   0.0113   0.7617     C
O        0.754   0.5558   0.8428     O
H       0.7652   0.6675   0.9319     H
C       0.7665   0.5186   0.2551     C
C       0.7673   0.2722   0.2649     C
C       0.7725   0.8596   0.7593     C
O       0.7783   0.5681    0.597     O
O       0.7931   0.0711   0.3983     O
O        0.797   0.7069   0.7238     O
C       0.7997    0.366   0.2588     C
O       0.8123   0.1832   0.7647     O
H       0.8172   0.7456    0.039     H
O       0.8198   0.2169   0.2913     O
C       0.8232    0.655   0.9517     C
O       0.8347   0.6844   0.2657     O
C       0.8348   0.5374    0.862     C
O       0.8371   0.9674   0.1718     O
C       0.8392   0.0288   0.7644     C
C       0.8456   0.5244   0.6149     C
O       0.8494   0.4877   0.6785     O
H       0.8523   0.0624   0.5283     H
Ce     0.85528  0.34138   0.7626    Ce
C       0.8553   0.7037   0.0144     C
C       0.8618   0.5357   0.2605     C
C       0.8666   0.0231   0.3817     C
C       0.8707   0.8737   0.7596     C
Ce     0.87092  0.84206  0.25232    Ce
H       0.8723     0.59   0.4803     H
O       0.8729   0.1078   0.1604     O
C        0.873   0.1273    0.759     C
C       0.8784   0.5892   0.9217     C
C       0.8817   0.0318   0.1362     C
O       0.8857   0.4718   0.8366     O
O       0.8869   0.9953   0.3167     O
H       0.8875   0.9002   0.0399     H
C       0.8915   0.3827   0.2699     C
C       0.9014   0.6279    0.265     C
C       0.9036   0.9573   0.7643     C
C       0.9107   0.0365   0.5158     C
H       0.9129   0.8269   0.7566     H
C       0.9239   0.5536   0.4879     C
C       0.9242   0.4711   0.2682     C
C       0.9277   0.5076    0.554     C
O       0.9329   0.7877   0.1338     O
C       0.9329    0.941    0.024     C
C       0.9332   0.0124   0.4423     C
H       0.9334   0.3373   0.2785     H
O       0.9387   0.2946   0.8722     O
H       0.9391   0.3923   0.9832     H
C       0.9427   0.0145    0.065     C
C       0.9485   0.6845   0.0364     C
H       0.9541   0.0373   0.6195     H
C       0.9658    0.579   0.9427     C
O       0.9678    0.141    0.753     O
H       0.9682   0.9673   0.7674     H
C       0.9736   0.0227   0.5704     C
H       0.9804    0.874   0.9319     H
C       0.9834   0.7284   0.1076     C
H       0.9882   0.4833   0.2725     H
C       0.9886   0.9248   0.9592     C
O       0.9929   0.6482    0.266     O
H       0.9945   0.4592   0.0844     H
H        0.996   0.5761   0.3863     H
C       0.9979   0.5459   0.4314     C
C       0.9991    0.378    0.999     C
