data_I
_chemical_name_common  '/home/zhangsd/repos/MofS-CGCNN/ML/data/TSD/clean_cifs/GOQSIQ_clean'
_cell_length_a  9.51610
_cell_length_b 30.15750
_cell_length_c 45.93670
_cell_angle_alpha 90.00000
_cell_angle_beta  90.00000
_cell_angle_gamma 90.00000
_space_group_name_H-M_alt      'P 1'


loop_
_space_group_symop_operation_xyz
  'x, y, z' 

loop_
_atom_site_label
_atom_site_fract_x
_atom_site_fract_y
_atom_site_fract_z
_atom_site_type_symbol
N       0.0006   0.9558  0.27809     N
H       0.0011   0.3433   0.4171     H
Zn     0.00145   0.9456  0.23536    Zn
Zn     0.00354  0.67173  0.76321    Zn
H       0.0046   0.3267   0.6969     H
H       0.0059   0.1215   0.8001     H
H       0.0075   0.8925     0.04     H
C       0.0107   0.6921   0.3531     C
N       0.0118  0.06888  0.19601     N
C       0.0135    0.646  0.06007     C
C        0.014   0.5381   0.0934     C
C       0.0149   0.2601  0.33634     C
C       0.0156   0.1527  0.80177     C
N       0.0186  0.18237   0.7793     N
C       0.0197   0.3622  0.46018     C
H       0.0205   0.2759   0.3185     H
N        0.022   0.4998  0.28837     N
C        0.023   0.0405  0.21709     C
N       0.0235   0.2579  0.88821     N
N       0.0236  0.66996  0.21947     N
C        0.024   0.3351  0.43647     C
N       0.0269  0.50114  0.10947     N
N       0.0273  0.04241  0.89907     N
C       0.0287   0.1757  0.82679     C
H       0.0294    0.163   0.8457     H
H       0.0311   0.0914   0.6913     H
C       0.0314   0.2221  0.79163     C
H       0.0337   0.2491    0.781     H
C       0.0341   0.7118  0.13108     C
C       0.0341   0.8298   0.9182     C
H       0.0347   0.3773   0.8562     H
N       0.0363   0.2344  0.00458     N
N       0.0378  0.69044  0.05842     N
H       0.0382   0.3445   0.5923     H
C       0.0386   0.2986   0.7029     C
C       0.0388   0.8651  0.65529     C
N       0.0395  0.24237  0.38266     N
N       0.0409  0.21976  0.82096     N
C       0.0419   0.5444   0.3259     C
N       0.0423  0.22954  0.71843     N
C       0.0423   0.7649   0.7862     C
C       0.0424   0.9411  0.95421     C
H       0.0427   0.3682   0.3126     H
C       0.0427   0.4953    0.522     C
N        0.044  0.82741  0.94762     N
C        0.046    0.067  0.87453     C
N       0.0475   0.8214  0.66494     N
C       0.0487    0.655  0.24594     C
N       0.0493  0.42262  0.52744     N
N       0.0494  0.66905   0.3294     N
N       0.0499  0.98571  0.95706     N
C       0.0503   0.7719   0.5671     C
C       0.0522   0.7699   0.4564     C
N       0.0531  0.72046  0.15934     N
N       0.0535   0.2399  0.93515     N
H       0.0592   0.7872   0.4392     H
N       0.0602  0.33924    0.484     N
H       0.0606   0.5546   0.3451     H
H       0.0614   0.0484   0.2355     H
N       0.0618  0.47301  0.17655     N
H       0.0619   0.5242   0.5148     H
N       0.0648  0.15121  0.23716     N
C       0.0648   0.5026   0.3158     C
N        0.067  0.29423  0.44544     N
H       0.0682   0.1323   0.4321     H
C       0.0695   0.2557    0.031     C
C       0.0695   0.5614  0.64267     C
H       0.0701   0.6861   0.1218     H
Zn     0.07038  0.27058  0.84729    Zn
C       0.0704   0.7826  0.59528     C
Zn     0.07208  0.13154  0.19598    Zn
H       0.0726   0.5636   0.0947     H
C       0.0729   0.2729  0.36227     C
H       0.0805   0.1924   0.1385     H
H       0.0833   0.5746   0.6612     H
C        0.085   0.9784  0.39797     C
Zn     0.08599  0.35769  0.52476    Zn
C       0.0872    0.965   0.3225     C
Zn     0.08772  0.23741  0.42481    Zn
C       0.0903   0.2985  0.47411     C
C       0.0927   0.2328  0.90708     C
C        0.093   0.7405   0.4952     C
C       0.0954   0.0334   0.4251     C
H       0.0967   0.9247   0.9406     H
C       0.0973   0.5229  0.60444     C
H       0.0988   0.5794   0.1825     H
H          0.1   0.7844   0.5511     H
C       0.1005   0.4689  0.20426     C
H       0.1051   0.4791   0.3268     H
H       0.1053   0.1304   0.9325     H
C       0.1054   0.4573   0.5127     C
C       0.1089    0.093   0.7042     C
H        0.109   0.9516   0.3883     H
C       0.1177   0.3689  0.29892     C
C       0.1183   0.9528   0.2942     C
C       0.1185   0.1745  0.28137     C
H       0.1218   0.0539   0.4398     H
H       0.1245   0.2752   0.4861     H
C       0.1247    0.715    0.363     C
H       0.1254   0.0849   0.8701     H
H       0.1256   0.4256   0.6187     H
H       0.1263   0.3501   0.6391     H
H       0.1263   0.7338   0.3796     H
C       0.1269   0.6244   0.0485     C
N       0.1271  0.12411  0.72459     N
H       0.1275   0.2988   0.3654     H
N       0.1317  0.39834  0.27614     N
H       0.1361   0.5031   0.5905     H
H       0.1368   0.8034   0.6025     H
H       0.1372   0.5931   0.0468     H
H       0.1403   0.6474   0.2525     H
H       0.1405   0.7662   0.7826     H
H       0.1441   0.7341   0.5125     H
C       0.1446   0.8078  0.90621     C
C       0.1515    0.887  0.66496     C
H       0.1515   0.9675   0.3383     H
C       0.1516   0.1232   0.9502     C
Zn     0.15175  0.21838  0.97008    Zn
Zn     0.15511  0.02926  0.93277    Zn
Zn     0.15798  0.68311  0.18749    Zn
C       0.1581   0.8034  0.95261     C
H       0.1612   0.2594   0.0388     H
N       0.1621  0.99408  0.41912     N
N       0.1624   0.7551  0.47282     N
H       0.1626   0.2119   0.9015     H
N       0.1627  0.53352  0.62901     N
H       0.1639   0.8051    0.886     H
Zn     0.16414  0.49645  0.14204    Zn
H       0.1653   0.9346   0.4865     H
C       0.1672    0.694  0.04634     C
C       0.1685   0.5877  0.16872     C
C       0.1687   0.8205  0.68006     C
C       0.1704   0.1639  0.25553     C
C       0.1705   0.2434  0.71121     C
H       0.1705   0.9175   0.6613     H
H       0.1717   0.1837   0.2978     H
N        0.174  0.28549  0.70214     N
H       0.1767   0.4553   0.4983     H
C       0.1813   0.6793  0.32583     C
C       0.1824   0.4154   0.6344     C
N       0.1831   0.1542  0.96878     N
N       0.1834   0.0832  0.95596     N
C       0.1842   0.3738  0.64547     C
N       0.1899  0.64891  0.77508     N
H       0.1905   0.7962   0.9716     H
N       0.1921  0.92232  0.22523     N
H       0.1933   0.4749   0.2108     H
H       0.2034   0.7946   0.6893     H
H       0.2075   0.8579    0.505     H
H       0.2076   0.8697   0.2509     H
H       0.2079   0.9439   0.2873     H
H       0.2139   0.7213   0.0428     H
C       0.2174    0.064   0.7046     C
H       0.2181   0.6008   0.7451     H
N       0.2187  0.62886  0.16707     N
N       0.2204  0.65456  0.04004     N
N       0.2222  0.55946  0.14997     N
N       0.2231  0.79035  0.92843     N
C       0.2263   0.9128   0.4786     C
H       0.2278   0.0387   0.6926     H
C       0.2284   0.3415  0.29841     C
H       0.2329    0.835   0.7505     H
N       0.2331  0.70678  0.34552     N
N       0.2354  0.85931  0.68081     N
H       0.2361   0.6679   0.3102     H
C       0.2441   0.8694   0.4874     C
H       0.2468   0.3188   0.3123     H
C       0.2475   0.3854  0.26232     C
H       0.2484   0.7749   0.2124     H
C       0.2494   0.1133   0.7359     C
C       0.2506   0.8867   0.2359     C
H       0.2516   0.2251   0.7124     H
C       0.2525   0.6146  0.76232     C
H       0.2532   0.6812   0.8123     H
C       0.2559   0.1306   0.9874     C
H       0.2639   0.3321   0.8102     H
N       0.2646  0.14069  0.18081     N
N       0.2669  0.29322  0.84552     N
H       0.2671    0.165   0.2505     H
C       0.2716   0.6585  0.79841     C
H       0.2722   0.9613   0.1926     H
C       0.2737   0.0872   0.9786     C
N       0.2769  0.20965  0.42843     N
N       0.2778  0.44054  0.64997     N
N       0.2796  0.34544  0.54004     N
N       0.2813  0.37114  0.66707     N
H       0.2819   0.3992   0.2451     H
C       0.2826    0.936   0.2046     C
H       0.2861   0.2787   0.5428     H
H       0.2921   0.0561   0.7873     H
H       0.2924   0.1303   0.7509     H
H       0.2925   0.1421    0.005     H
H       0.2966   0.2054   0.1893     H
H       0.3067   0.5251   0.7108     H
N       0.3079  0.07768  0.72523     N
H       0.3095   0.2038   0.4716     H
N       0.3101  0.35109  0.27508     N
C       0.3158   0.6262  0.14547     C
N       0.3166   0.9168  0.45596     N
N       0.3169   0.8458  0.46878     N
C       0.3176   0.5846   0.1344     C
C       0.3187   0.3207  0.82583     C
H       0.3233   0.5447   0.9983     H
N        0.326  0.71451  0.20214     N
H       0.3283   0.8163   0.7978     H
H       0.3295   0.0825   0.1613     H
C       0.3295   0.7566  0.21121     C
C       0.3296   0.8361  0.75553     C
C       0.3313   0.1795  0.18006     C
C       0.3315   0.4123  0.66872     C
C       0.3328    0.306  0.54634     C
H       0.3347   0.0654   0.9865     H
Zn     0.33586  0.50355  0.64204    Zn
H       0.3361   0.1949    0.386     H
N       0.3373  0.46648  0.12901     N
H       0.3374   0.7881   0.4015     H
N       0.3376   0.2449  0.97282     N
N       0.3379  0.00592  0.91912     N
H       0.3388   0.7406   0.5388     H
C       0.3419   0.1966  0.45261     C
Zn     0.34202  0.31689  0.68749    Zn
Zn     0.34489  0.97074  0.43277    Zn
Zn     0.34825  0.78162  0.47008    Zn
C       0.3484   0.8768   0.4502     C
H       0.3485   0.0325   0.8383     H
C       0.3485    0.113  0.16496     C
C       0.3554   0.1922  0.40621     C
H       0.3559   0.2659   0.0125     H
H       0.3595   0.2338   0.2826     H
H       0.3597   0.3526   0.7525     H
H       0.3628   0.4069   0.5468     H
H       0.3632   0.1966   0.1025     H
H       0.3639   0.4969   0.0905     H
N       0.3683  0.60166  0.77614     N
H       0.3725   0.7012   0.8654     H
N       0.3729  0.87589  0.22459     N
C       0.3731   0.3756   0.5485     C
H       0.3737   0.2662   0.8796     H
H       0.3737   0.6499   0.1391     H
H       0.3744   0.5744   0.1187     H
H       0.3746   0.9151   0.3701     H
C       0.3753    0.285    0.863     C
H       0.3755   0.7248   0.9861     H
H       0.3782   0.9461   0.9398     H
C       0.3815   0.8255  0.78137     C
C       0.3817   0.0472   0.7942     C
C       0.3823   0.6311  0.79892     C
H        0.391   0.0484   0.8883     H
C       0.3911    0.907   0.2042     C
C       0.3946   0.5427   0.0127     C
H       0.3947   0.8696   0.4325     H
H       0.3949   0.5209   0.8268     H
C       0.3995   0.5311  0.70426     C
H          0.4   0.2156   0.0511     H
H       0.4012   0.4206   0.6825     H
C       0.4027   0.4771  0.10444     C
H       0.4033   0.0753   0.4406     H
C       0.4046   0.9666   0.9251     C
C        0.407   0.2595   0.9952     C
C       0.4073   0.7672  0.40708     C
C       0.4097   0.7015  0.97411     C
Zn     0.41228  0.76259  0.92481    Zn
C       0.4128    0.035   0.8225     C
Zn     0.41401  0.64231  0.02476    Zn
C        0.415   0.0216  0.89797     C
H       0.4167   0.4254   0.1612     H
H       0.4195   0.8076   0.6385     H
C       0.4271   0.7271  0.86227     C
H       0.4274   0.4364   0.5947     H
Zn     0.42792  0.86846  0.69598    Zn
C       0.4296   0.2174  0.09528     C
Zn     0.42962  0.72942  0.34729    Zn
H       0.4299   0.3139   0.6218     H
C       0.4305   0.4386  0.14267     C
C       0.4305   0.7443    0.531     C
H       0.4318   0.8677   0.9321     H
N        0.433  0.70577  0.94544     N
C       0.4352   0.4974   0.8158     C
N       0.4352  0.84879  0.73716     N
H       0.4381   0.4758   0.0148     H
N       0.4382  0.52699  0.67655     N
H       0.4386   0.9516   0.7355     H
H       0.4394   0.4454   0.8451     H
N       0.4398  0.66076    0.984     N
H       0.4408   0.2128   0.9392     H
N       0.4465   0.7601  0.43515     N
N       0.4469  0.27954  0.65934     N
C       0.4478   0.2301   0.9564     C
C       0.4497   0.2281   0.0671     C
N       0.4501  0.01429  0.45706     N
N       0.4506  0.33095   0.8294     N
N       0.4507  0.57738  0.02744     N
C       0.4513    0.345  0.74594     C
N       0.4525   0.1786  0.16494     N
C        0.454    0.933  0.37453     C
N        0.456  0.17259  0.44762     N
C       0.4573   0.5047    0.022     C
H       0.4573   0.6318   0.8126     H
C       0.4576   0.0589  0.45421     C
C       0.4577   0.2351   0.2862     C
N       0.4577  0.77046  0.21843     N
C       0.4581   0.4556   0.8259     C
N       0.4591  0.78024  0.32096     N
N       0.4605  0.75763  0.88266     N
C       0.4612   0.1349  0.15529     C
C       0.4614   0.7014   0.2029     C
H       0.4618   0.6555   0.0923     H
N       0.4622  0.30956  0.55842     N
N       0.4637   0.7656  0.50458     N
H       0.4653   0.6227   0.3562     H
C       0.4659   0.1702   0.4182     C
C       0.4659   0.2882  0.63108     C
H       0.4663   0.7509    0.281     H
C       0.4686   0.7779  0.29163     C
H       0.4689   0.9086   0.1913     H
H       0.4706    0.837   0.3457     H
C       0.4713   0.8243  0.32679     C
N       0.4727  0.95759  0.39907     N
N       0.4731  0.49886  0.60947     N
C        0.476   0.6649  0.93647     C
N       0.4764  0.33004  0.71947     N
N       0.4765   0.7421  0.38821     N
C        0.477   0.9595  0.71709     C
N        0.478   0.5002  0.78837     N
H       0.4795   0.7241   0.8185     H
C       0.4803   0.6378  0.96018     C
N       0.4814  0.81763   0.2793     N
C       0.4844   0.8473  0.30177     C
C       0.4851   0.7399  0.83634     C
C        0.486   0.4619   0.5934     C
C       0.4865    0.354  0.56007     C
N       0.4882  0.93112  0.69601     N
C       0.4893   0.3079   0.8531     C
H       0.4925   0.1075     0.54     H
H       0.4941   0.8785   0.3001     H
H       0.4954   0.6733   0.1969     H
Zn     0.49646  0.32827  0.26321    Zn
Zn     0.49855   0.0544  0.73536    Zn
H       0.4989   0.6567   0.9171     H
N       0.4994   0.0442  0.77809     N
N       0.5006   0.5442  0.72191     N
H       0.5011   0.1567   0.5829     H
Zn     0.50145   0.5544  0.76464    Zn
Zn     0.50354  0.82827  0.23679    Zn
H       0.5046   0.1733   0.3031     H
H       0.5059   0.3785   0.1999     H
H       0.5075   0.6075     0.96     H
C       0.5107   0.8079   0.6469     C
N       0.5118  0.43112  0.80399     N
C       0.5135    0.854  0.93993     C
C        0.514   0.9619   0.9066     C
C       0.5149   0.2399  0.66366     C
C       0.5156   0.3473  0.19823     C
N       0.5186  0.31763   0.2207     N
C       0.5197   0.1378  0.53982     C
H       0.5205   0.2241   0.6815     H
N        0.522   0.0002  0.71163     N
C        0.523   0.4595  0.78291     C
N       0.5235   0.2421  0.11179     N
N       0.5236  0.83004  0.78053     N
C        0.524   0.1649  0.56353     C
N       0.5269  0.99886  0.89053     N
N       0.5273  0.45759  0.10093     N
C       0.5287   0.3243  0.17321     C
H       0.5294    0.337   0.1543     H
H       0.5311   0.4086   0.3087     H
C       0.5314   0.2779  0.20837     C
H       0.5337   0.2509    0.219     H
C       0.5341   0.6702   0.0818     C
C       0.5341   0.7882  0.86892     C
H       0.5347   0.1227   0.1438     H
N       0.5363   0.2656  0.99542     N
N       0.5378  0.80956  0.94158     N
H       0.5382   0.1555   0.4077     H
C       0.5386   0.2014   0.2971     C
C       0.5388   0.6349  0.34471     C
N       0.5395  0.25763  0.61734     N
N       0.5409  0.28024  0.17904     N
C       0.5419   0.9556   0.6741     C
N       0.5423  0.27046  0.28157     N
C       0.5423   0.7351   0.2138     C
C       0.5424   0.5589  0.04579     C
C       0.5427   0.0047    0.478     C
H       0.5427   0.1318   0.6874     H
N        0.544  0.67259  0.05238     N
C        0.546    0.433  0.12547     C
N       0.5475   0.6786  0.33506     N
C       0.5487    0.845  0.75406     C
N       0.5493  0.07738  0.47256     N
N       0.5494  0.83095   0.6706     N
N       0.5499  0.51429  0.04294     N
C       0.5503   0.7281   0.4329     C
C       0.5522   0.7301   0.5436     C
N       0.5531  0.77954  0.84066     N
N       0.5535   0.2601  0.06485     N
H       0.5592   0.7128   0.5608     H
N       0.5602  0.16076    0.516     N
H       0.5606   0.9454   0.6549     H
H       0.5614   0.4516   0.7645     H
N       0.5618  0.02699  0.82345     N
H       0.5619   0.9758   0.4852     H
N       0.5648  0.34879  0.76284     N
C       0.5648   0.9974   0.6842     C
N        0.567  0.20577  0.55456     N
H       0.5682   0.3677   0.5679     H
C       0.5695   0.2443    0.969     C
C       0.5695   0.9386  0.35733     C
H       0.5701   0.8139   0.8782     H
Zn     0.57038  0.22942  0.15271    Zn
C       0.5704   0.7174  0.40472     C
Zn     0.57208  0.36846  0.80402    Zn
H       0.5726   0.9364   0.9053     H
C       0.5729   0.2271  0.63773     C
H       0.5805   0.3076   0.8615     H
H       0.5833   0.9254   0.3388     H
C        0.585   0.5216  0.60203     C
Zn     0.58599  0.14231  0.47524    Zn
C       0.5872    0.535   0.6775     C
Zn     0.58772  0.26259  0.57519    Zn
C       0.5903   0.2015  0.52589     C
C       0.5927   0.2672  0.09292     C
C        0.593   0.7595   0.5048     C
C       0.5954   0.4666   0.5749     C
H       0.5967   0.5753   0.0594     H
C       0.5973   0.9771  0.39556     C
H       0.5988   0.9206   0.8175     H
H          0.6   0.7156   0.4489     H
C       0.6005   0.0311  0.79574     C
H       0.6051   0.0209   0.6732     H
H       0.6053   0.3696   0.0675     H
C       0.6054   0.0427   0.4873     C
C       0.6089    0.407   0.2958     C
H        0.609   0.5484   0.6117     H
C       0.6177   0.1311  0.70108     C
C       0.6183   0.5472   0.7058     C
C       0.6185   0.3255  0.71863     C
H       0.6218   0.4461   0.5602     H
H       0.6245   0.2248   0.5139     H
C       0.6247    0.785    0.637     C
H       0.6254   0.4151   0.1299     H
H       0.6256   0.0744   0.3813     H
H       0.6263   0.1499   0.3609     H
H       0.6263   0.7662   0.6204     H
C       0.6269   0.8756   0.9515     C
N       0.6271  0.37589  0.27541     N
H       0.6275   0.2012   0.6346     H
N       0.6317  0.10166  0.72386     N
H       0.6361   0.9969   0.4095     H
H       0.6368   0.6966   0.3975     H
H       0.6372   0.9069   0.9532     H
H       0.6403   0.8526   0.7475     H
H       0.6405   0.7338   0.2174     H
H       0.6441   0.7659   0.4875     H
C       0.6446   0.6922  0.09379     C
H       0.6515   0.5325   0.6617     H
C       0.6515    0.613  0.33504     C
C       0.6516   0.3768   0.0498     C
Zn     0.65175  0.28162  0.02992    Zn
Zn     0.65511  0.47074  0.06723    Zn
Zn     0.65798  0.81689  0.81251    Zn
C       0.6581   0.6966  0.04739     C
H       0.6612   0.2406   0.9612     H
N       0.6621  0.50592  0.58088     N
N       0.6624   0.7449  0.52718     N
H       0.6626   0.2881   0.0985     H
N       0.6627  0.96648  0.37099     N
H       0.6639   0.6949    0.114     H
Zn     0.66414  0.00355  0.85796    Zn
H       0.6653   0.5654   0.5135     H
C       0.6672    0.806  0.95366     C
C       0.6685   0.9123  0.83128     C
C       0.6687   0.6795  0.31994     C
C       0.6704   0.3361  0.74447     C
C       0.6705   0.2566  0.28879     C
H       0.6705   0.5825   0.3387     H
H       0.6717   0.3163   0.7022     H
N        0.674  0.21451  0.29786     N
H       0.6767   0.0447   0.5017     H
C       0.6813   0.8207  0.67417     C
C       0.6824   0.0846   0.3656     C
N       0.6831   0.3458  0.03122     N
N       0.6834   0.4168  0.04404     N
C       0.6842   0.1262  0.35453     C
N       0.6899  0.85109  0.22492     N
H       0.6905   0.7038   0.0284     H
N       0.6921  0.57768  0.77477     N
H       0.6933   0.0251   0.7892     H
H       0.7034   0.7054   0.3107     H
H       0.7075   0.6421    0.495     H
H       0.7076   0.6303   0.7491     H
H       0.7079   0.5561   0.7127     H
H       0.7139   0.7787   0.9572     H
C       0.7174    0.436   0.2954     C
H       0.7181   0.8992   0.2549     H
N       0.7187  0.87114  0.83293     N
N       0.7204  0.84544  0.95996     N
N       0.7222  0.94054  0.85003     N
N       0.7231  0.70965  0.07157     N
C       0.7263   0.5872   0.5214     C
H       0.7278   0.4613   0.3074     H
C       0.7284   0.1585  0.70159     C
H       0.7329    0.665   0.2495     H
N       0.7331  0.79322  0.65448     N
N       0.7354  0.64069  0.31919     N
H       0.7361   0.8321   0.6898     H
C       0.7441   0.6306   0.5126     C
H       0.7468   0.1812   0.6877     H
C       0.7475   0.1146  0.73768     C
H       0.7484   0.7251   0.7876     H
C       0.7494   0.3867   0.2641     C
C       0.7506   0.6133   0.7641     C
H       0.7516   0.2749   0.2876     H
C       0.7525   0.8854  0.23768     C
H       0.7532   0.8188   0.1877     H
C       0.7559   0.3694   0.0126     C
H       0.7639   0.1679   0.1898     H
N       0.7646  0.35931  0.81919     N
N       0.7669  0.20678  0.15448     N
H       0.7671    0.335   0.7495     H
C       0.7716   0.8415  0.20159     C
H       0.7722   0.5387   0.8074     H
C       0.7737   0.4128   0.0214     C
N       0.7769  0.29035  0.57157     N
N       0.7778  0.05946  0.35003     N
N       0.7796  0.15456  0.45996     N
N       0.7813  0.12886  0.33293     N
H       0.7819   0.1008   0.7549     H
C       0.7826    0.564   0.7954     C
H       0.7861   0.2213   0.4572     H
H       0.7921   0.4439   0.2127     H
H       0.7924   0.3697   0.2491     H
H       0.7925   0.3579    0.995     H
H       0.7966   0.2946   0.8107     H
H       0.8067   0.9749   0.2892     H
N       0.8079  0.42232  0.27477     N
H       0.8095   0.2962   0.5284     H
N       0.8101  0.14891  0.72492     N
C       0.8158   0.8738  0.85453     C
N       0.8166   0.5832  0.54404     N
N       0.8169   0.6542  0.53122     N
C       0.8176   0.9154   0.8656     C
C       0.8187   0.1793  0.17417     C
H       0.8233   0.9553   0.0017     H
N        0.826  0.78549  0.79786     N
H       0.8283   0.6837   0.2022     H
H       0.8295   0.4175   0.8387     H
C       0.8295   0.7434  0.78879     C
C       0.8296   0.6639  0.24447     C
C       0.8313   0.3205  0.81994     C
C       0.8315   0.0877  0.33128     C
C       0.8328    0.194  0.45366     C
H       0.8347   0.4346   0.0135     H
Zn     0.83586  0.99645  0.35796    Zn
H       0.8361   0.3051    0.614     H
N       0.8373  0.03352  0.87099     N
H       0.8374   0.7119   0.5985     H
N       0.8376   0.2551  0.02718     N
N       0.8379  0.49408  0.08088     N
H       0.8388   0.7594   0.4612     H
C       0.8419   0.3034  0.54739     C
Zn     0.84202  0.18311  0.31251    Zn
Zn     0.84489  0.52926  0.56723    Zn
Zn     0.84825  0.71838  0.52992    Zn
C       0.8484   0.6232   0.5498     C
C       0.8485    0.387  0.83504     C
H       0.8485   0.4675   0.1617     H
C       0.8554   0.3078  0.59379     C
H       0.8559   0.2341   0.9875     H
H       0.8595   0.2662   0.7174     H
H       0.8597   0.1474   0.2475     H
H       0.8628   0.0931   0.4532     H
H       0.8632   0.3034   0.8975     H
H       0.8639   0.0031   0.9095     H
N       0.8683  0.89834  0.22386     N
H       0.8725   0.7988   0.1346     H
N       0.8729  0.62411  0.77541     N
C       0.8731   0.1244   0.4515     C
H       0.8737   0.2338   0.1204     H
H       0.8737   0.8501   0.8609     H
H       0.8744   0.9256   0.8813     H
H       0.8746   0.5849   0.6299     H
C       0.8753    0.215    0.137     C
H       0.8755   0.7752   0.0139     H
H       0.8782   0.5539   0.0602     H
C       0.8815   0.6745  0.21863     C
C       0.8817   0.4528   0.2058     C
C       0.8823   0.8689  0.20108     C
H        0.891   0.4516   0.1117     H
C       0.8911    0.593   0.7958     C
C       0.8946   0.9573   0.9873     C
H       0.8947   0.6304   0.5675     H
H       0.8949   0.9791   0.1732     H
C       0.8995   0.9689  0.29574     C
H          0.9   0.2844   0.9489     H
H       0.9012   0.0794   0.3175     H
C       0.9027   0.0229  0.89556     C
H       0.9033   0.4247   0.5594     H
C       0.9046   0.5334   0.0749     C
C        0.907   0.2405   0.0048     C
C       0.9073   0.7328  0.59292     C
C       0.9097   0.7985  0.02589     C
Zn     0.91228  0.73741  0.07519    Zn
C       0.9128    0.465   0.1775     C
Zn     0.91401  0.85769  0.97524    Zn
C        0.915   0.4784  0.10203     C
H       0.9167   0.0746   0.8388     H
H       0.9195   0.6924   0.3615     H
C       0.9271   0.7729  0.13773     C
H       0.9274   0.0636   0.4053     H
Zn     0.92792  0.63154  0.30402    Zn
C       0.9296   0.2826  0.90472     C
Zn     0.92962  0.77058  0.65271    Zn
H       0.9299   0.1861   0.3782     H
C       0.9305   0.0614  0.85733     C
C       0.9305   0.7557    0.469     C
H       0.9318   0.6323   0.0679     H
N        0.933  0.79423  0.05456     N
C       0.9352   0.0026   0.1842     C
N       0.9352  0.65121  0.26284     N
H       0.9381   0.0242   0.9852     H
N       0.9382  0.97301  0.32345     N
H       0.9386   0.5484   0.2645     H
H       0.9394   0.0546   0.1549     H
N       0.9398  0.83924    0.016     N
H       0.9408   0.2872   0.0608     H
N       0.9465   0.7399  0.56485     N
N       0.9469  0.22046  0.34066     N
C       0.9478   0.2699   0.0436     C
C       0.9497   0.2719   0.9329     C
N       0.9501  0.48571  0.54294     N
N       0.9506  0.16905   0.1706     N
N       0.9507  0.92262  0.97256     N
C       0.9513    0.155  0.25406     C
N       0.9525   0.3214  0.83506     N
C        0.954    0.567  0.62547     C
N        0.956  0.32741  0.55238     N
H       0.9573   0.8682   0.1874     H
C       0.9573   0.9953    0.978     C
C       0.9576   0.4411  0.54579     C
C       0.9577   0.2649   0.7138     C
N       0.9577  0.72954  0.78157     N
C       0.9581   0.0444   0.1741     C
N       0.9591  0.71976  0.67904     N
N       0.9605  0.74237  0.11734     N
C       0.9612   0.3651  0.84471     C
C       0.9614   0.7986   0.7971     C
H       0.9618   0.8445   0.9077     H
N       0.9622  0.19044  0.44158     N
N       0.9637   0.7344  0.49542     N
H       0.9653   0.8773   0.6438     H
C       0.9659   0.2118  0.36892     C
C       0.9659   0.3298   0.5818     C
H       0.9663   0.7491    0.719     H
C       0.9686   0.7221  0.70837     C
H       0.9689   0.5914   0.8087     H
H       0.9706    0.663   0.6543     H
C       0.9713   0.6757  0.67321     C
N       0.9727  0.54241  0.60093     N
N       0.9731  0.00114  0.39053     N
C        0.976   0.8351  0.06353     C
N       0.9764  0.16996  0.28053     N
N       0.9765   0.7579  0.61179     N
C        0.977   0.5405  0.28291     C
N        0.978   0.9998  0.21163     N
H       0.9795   0.7759   0.1815     H
C       0.9803   0.8622  0.03982     C
N       0.9814  0.68237   0.7207     N
C       0.9844   0.6527  0.69823     C
C       0.9851   0.7601  0.16366     C
C        0.986   0.0381   0.4066     C
C       0.9865    0.146  0.43993     C
N       0.9882  0.56888  0.30399     N
C       0.9893   0.1921   0.1469     C
H       0.9925   0.3925     0.46     H
H       0.9941   0.6215   0.6999     H
H       0.9954   0.8267   0.8031     H
Zn     0.99646  0.17173  0.73679    Zn
Zn     0.99855   0.4456  0.26464    Zn
H       0.9989   0.8433   0.0829     H
N       0.9994   0.4558  0.22191     N
