data_I
_chemical_name_common  '/home/zhangsd/repos/MofS-CGCNN/ML/data/TSD/clean_cifs/GOVWOF_clean'
_cell_length_a 28.10500
_cell_length_b 28.10500
_cell_length_c 14.59800
_cell_angle_alpha 90.00000
_cell_angle_beta  90.00000
_cell_angle_gamma 120.00000
_space_group_name_H-M_alt      'P 1'


loop_
_space_group_symop_operation_xyz
  'x, y, z' 

loop_
_atom_site_label
_atom_site_fract_x
_atom_site_fract_y
_atom_site_fract_z
_atom_site_type_symbol
H       0.0045   0.2738   0.1127     H
H       0.0045   0.7307   0.1127     H
C        0.007   0.2978   0.1587     C
C        0.007   0.7092   0.1587     C
C       0.0108   0.4628   0.5434     C
C       0.0108    0.548   0.5434     C
C       0.0133   0.3689   0.2937     C
C       0.0133   0.6444   0.2937     C
O      0.02129  0.40762   0.3578     O
O      0.02129  0.61367   0.3578     O
C      0.02138  0.51069   0.5871     C
C       0.0258   0.4237   0.5907     C
C       0.0258   0.6021   0.5907     C
H       0.0295   0.4867   0.7158     H
H       0.0295   0.5428   0.7158     H
H       0.0349   0.4041   0.5458     H
H       0.0349   0.6308   0.5458     H
C       0.0359   0.3573   0.7238     C
C       0.0359   0.6786   0.7238     C
C       0.0369   0.3236   0.7932     C
C       0.0369   0.7133   0.7932     C
C       0.0423  0.52115   0.6835     C
H       0.0571   0.4439   0.6308     H
H       0.0571   0.6132   0.6308     H
C       0.0573    0.345   0.1757     C
C       0.0573   0.7123   0.1757     C
C       0.0603    0.381    0.243     C
C       0.0603   0.6793    0.243     C
H       0.0673   0.3801   0.6902     H
H       0.0673   0.6872   0.6902     H
C       0.0924   0.3275   0.8139     C
C       0.0924   0.7649   0.8139     C
H       0.0932    0.413   0.2545     H
H       0.0932   0.6802   0.2545     H
O      0.09353  0.29967   0.8786     O
O      0.09353  0.79386   0.8786     O
O       0.1011  0.55055   0.6776     O
O       0.1057    0.321   0.0754     O
O       0.1057   0.7847   0.0754     O
C       0.1074   0.3598   0.1234     C
C       0.1074   0.7476   0.1234     C
C      0.12606  0.56303   0.7646     C
H       0.1303   0.4949   0.7753     H
H       0.1303   0.6354   0.7753     H
O       0.1319   0.3576    0.762     O
O       0.1319   0.7743    0.762     O
C       0.1389   0.5278    0.804     C
C       0.1389   0.6111    0.804     C
O      0.14726  0.40615   0.1295     O
O      0.14726  0.74111   0.1295     O
Mn     0.15586  0.31173  0.97482    Mn
Mn     0.15587  0.84414  0.97482    Mn
C       0.1649   0.5413   0.8885     C
C       0.1649   0.6236   0.8885     C
O        0.169   0.4598   0.8817     O
O        0.169   0.7092   0.8817     O
C      0.17768  0.58884   0.9314     C
C       0.1821   0.5018   0.9324     C
C       0.1821   0.6803   0.9324     C
H       0.1946   0.5973   0.9885     H
O      0.19911  0.39823   0.9521     O
O      0.19912  0.80089   0.9521     O
O      0.20066   0.5078   0.0036     O
O      0.20066  0.69286   0.0036     O
O      0.20614  0.29967   0.8786     O
O      0.20614  0.90647   0.8786     O
Mn     0.21059  0.42118  0.81393    Mn
Mn     0.21059  0.78941  0.81393    Mn
O       0.2153    0.321   0.0754     O
O       0.2153   0.8943   0.0754     O
O       0.2257   0.3576    0.762     O
O       0.2257   0.8681    0.762     O
Mn     0.22586  0.45173  0.06739    Mn
Mn     0.22587  0.77414  0.06739    Mn
C       0.2351   0.3275   0.8139     C
C       0.2351   0.9076   0.8139     C
C       0.2524   0.3598   0.1234     C
C       0.2524   0.8926   0.1234     C
O      0.25889  0.40615   0.1295     O
O      0.25889  0.85274   0.1295     O
H       0.2693   0.2738   0.1127     H
H       0.2693   0.9955   0.1127     H
H       0.2738   0.0045   0.8873     H
H       0.2738   0.2693   0.8873     H
C       0.2867   0.3236   0.7932     C
C       0.2867   0.9631   0.7932     C
C       0.2877    0.345   0.1757     C
C       0.2877   0.9427   0.1757     C
C       0.2908   0.2978   0.1587     C
O       0.2908   0.4598   0.8817     O
O       0.2908    0.831   0.8817     O
C       0.2908    0.993   0.1587     C
C       0.2978    0.007   0.8413     C
C       0.2978   0.2908   0.8413     C
O      0.29967  0.09353   0.1214     O
O      0.29967  0.20614   0.1214     O
O      0.30714   0.5078   0.0036     O
O      0.30714  0.79934   0.0036     O
Mn     0.31173  0.15586  0.02518    Mn
H       0.3128   0.3801   0.6902     H
H       0.3128   0.9327   0.6902     H
C       0.3197   0.5018   0.9324     C
C       0.3197   0.8179   0.9324     C
H       0.3198    0.413   0.2545     H
H       0.3198   0.9068   0.2545     H
C       0.3207    0.381    0.243     C
C       0.3207   0.9397    0.243     C
O        0.321   0.1057   0.9246     O
O        0.321   0.2153   0.9246     O
C       0.3214   0.3573   0.7238     C
C       0.3214   0.9641   0.7238     C
C       0.3236   0.0369   0.2068     C
C       0.3236   0.2867   0.2068     C
C       0.3275   0.0924   0.1861     C
C       0.3275   0.2351   0.1861     C
C        0.345   0.0573   0.8243     C
C        0.345   0.2877   0.8243     C
C       0.3556   0.3689   0.2937     C
C       0.3556   0.9867   0.2937     C
C       0.3573   0.0359   0.2762     C
C       0.3573   0.3214   0.2762     C
O       0.3576   0.1319    0.238     O
O       0.3576   0.2257    0.238     O
C       0.3598   0.1074   0.8766     C
C       0.3598   0.2524   0.8766     C
H       0.3646   0.4949   0.7753     H
H       0.3646   0.8697   0.7753     H
C       0.3689   0.0133   0.7063     C
C       0.3689   0.3556   0.7063     C
H       0.3692   0.4041   0.5458     H
H       0.3692   0.9651   0.5458     H
C       0.3764   0.5413   0.8885     C
C       0.3764   0.8351   0.8885     C
H       0.3801   0.0673   0.3098     H
H       0.3801   0.3128   0.3098     H
C        0.381   0.0603    0.757     C
C        0.381   0.3207    0.757     C
O      0.38633  0.40762   0.3578     O
O      0.38633  0.97871   0.3578     O
H       0.3868   0.4439   0.6308     H
H       0.3868   0.9429   0.6308     H
C       0.3889   0.5278    0.804     C
C       0.3889   0.8611    0.804     C
C       0.3979   0.4237   0.5907     C
C       0.3979   0.9742   0.5907     C
O      0.39823  0.19911   0.0479     O
H       0.4027   0.5973   0.9885     H
H       0.4027   0.8054   0.9885     H
H       0.4041   0.0349   0.4542     H
H       0.4041   0.3692   0.4542     H
O      0.40615  0.14726   0.8705     O
O      0.40615  0.25889   0.8705     O
O      0.40762  0.02129   0.6422     O
O      0.40762  0.38633   0.6422     O
C      0.41116  0.58884   0.9314     C
C      0.41116  0.82232   0.9314     C
H        0.413   0.0932   0.7455     H
H        0.413   0.3198   0.7455     H
Mn     0.42118  0.21059  0.18607    Mn
C       0.4237   0.0258   0.4093     C
C       0.4237   0.3979   0.4093     C
C      0.43697  0.56303   0.7646     C
C      0.43697  0.87394   0.7646     C
H       0.4439   0.0571   0.3692     H
H       0.4439   0.3868   0.3692     H
O      0.44945  0.55055   0.6776     O
O      0.44945   0.8989   0.6776     O
Mn     0.45173  0.22586  0.93261    Mn
C        0.452   0.4628   0.5434     C
C        0.452   0.9892   0.5434     C
H       0.4572   0.4867   0.7158     H
H       0.4572   0.9705   0.7158     H
C       0.4587   0.6236   0.8885     C
C       0.4587   0.8351   0.8885     C
O       0.4598    0.169   0.1183     O
O       0.4598   0.2908   0.1183     O
C       0.4628   0.0108   0.4566     C
C       0.4628    0.452   0.4566     C
C       0.4722   0.6111    0.804     C
C       0.4722   0.8611    0.804     C
C      0.47885  0.52115   0.6835     C
C      0.47885   0.9577   0.6835     C
H       0.4867   0.0295   0.2842     H
H       0.4867   0.4572   0.2842     H
C      0.48931  0.51069   0.5871     C
C      0.48931  0.97862   0.5871     C
O       0.4922  0.69286   0.0036     O
O       0.4922  0.79934   0.0036     O
H       0.4949   0.1303   0.2247     H
H       0.4949   0.3646   0.2247     H
C       0.4982   0.6803   0.9324     C
C       0.4982   0.8179   0.9324     C
C       0.5018   0.1821   0.0676     C
C       0.5018   0.3197   0.0676     C
H       0.5051   0.6354   0.7753     H
H       0.5051   0.8697   0.7753     H
O       0.5078  0.20066   0.9964     O
O       0.5078  0.30714   0.9964     O
C      0.51069  0.02138   0.4129     C
C      0.51069  0.48931   0.4129     C
H       0.5133   0.5428   0.7158     H
H       0.5133   0.9705   0.7158     H
C      0.52115   0.0423   0.3165     C
C      0.52115  0.47885   0.3165     C
C       0.5278   0.1389    0.196     C
C       0.5278   0.3889    0.196     C
C       0.5372    0.548   0.5434     C
C       0.5372   0.9892   0.5434     C
O       0.5402   0.7092   0.8817     O
O       0.5402    0.831   0.8817     O
C       0.5413   0.1649   0.1115     C
C       0.5413   0.3764   0.1115     C
H       0.5428   0.0295   0.2842     H
H       0.5428   0.5133   0.2842     H
C        0.548   0.0108   0.4566     C
C        0.548   0.5372   0.4566     C
Mn     0.54827  0.77413  0.06739    Mn
O      0.55055   0.1011   0.3224     O
O      0.55055  0.44945   0.3224     O
H       0.5561   0.6132   0.6308     H
H       0.5561   0.9429   0.6308     H
C      0.56303  0.12606   0.2354     C
C      0.56303  0.43697   0.2354     C
C       0.5763   0.6021   0.5907     C
C       0.5763   0.9742   0.5907     C
Mn     0.57882  0.78941  0.81393    Mn
H        0.587   0.6802   0.2545     H
H        0.587   0.9068   0.2545     H
C      0.58884  0.17768   0.0686     C
C      0.58884  0.41116   0.0686     C
O      0.59238  0.61367   0.3578     O
O      0.59238  0.97871   0.3578     O
O      0.59385  0.74111   0.1295     O
O      0.59385  0.85274   0.1295     O
H       0.5959   0.6308   0.5458     H
H       0.5959   0.9651   0.5458     H
H       0.5973   0.1946   0.0115     H
H       0.5973   0.4027   0.0115     H
O      0.60177  0.80088   0.9521     O
C       0.6021   0.0258   0.4093     C
C       0.6021   0.5763   0.4093     C
C       0.6111   0.1389    0.196     C
C       0.6111   0.4722    0.196     C
H       0.6132   0.0571   0.3692     H
H       0.6132   0.5561   0.3692     H
O      0.61367  0.02129   0.6422     O
O      0.61367  0.59238   0.6422     O
C        0.619   0.6793    0.243     C
C        0.619   0.9397    0.243     C
H       0.6199   0.6872   0.6902     H
H       0.6199   0.9327   0.6902     H
C       0.6236   0.1649   0.1115     C
C       0.6236   0.4587   0.1115     C
H       0.6308   0.0349   0.4542     H
H       0.6308   0.5959   0.4542     H
C       0.6311   0.6444   0.2937     C
C       0.6311   0.9867   0.2937     C
H       0.6354   0.1303   0.2247     H
H       0.6354   0.5051   0.2247     H
C       0.6402   0.7476   0.1234     C
C       0.6402   0.8926   0.1234     C
O       0.6424   0.7743    0.762     O
O       0.6424   0.8681    0.762     O
C       0.6427   0.6786   0.7238     C
C       0.6427   0.9641   0.7238     C
C       0.6444   0.0133   0.7063     C
C       0.6444   0.6311   0.7063     C
C        0.655   0.7123   0.1757     C
C        0.655   0.9427   0.1757     C
C       0.6725   0.7649   0.8139     C
C       0.6725   0.9076   0.8139     C
C       0.6764   0.7133   0.7932     C
C       0.6764   0.9631   0.7932     C
C       0.6786   0.0359   0.2762     C
C       0.6786   0.6427   0.2762     C
O        0.679   0.7847   0.0754     O
O        0.679   0.8943   0.0754     O
C       0.6793   0.0603    0.757     C
C       0.6793    0.619    0.757     C
H       0.6802   0.0932   0.7455     H
H       0.6802    0.587   0.7455     H
C       0.6803   0.1821   0.0676     C
C       0.6803   0.4982   0.0676     C
H       0.6872   0.0673   0.3098     H
H       0.6872   0.6199   0.3098     H
Mn     0.68827  0.84413  0.97482    Mn
O      0.69286  0.20066   0.9964     O
O      0.69286   0.4922   0.9964     O
O      0.70033  0.79386   0.8786     O
O      0.70033  0.90647   0.8786     O
C       0.7022   0.7092   0.1587     C
C       0.7022    0.993   0.1587     C
C       0.7092    0.007   0.8413     C
O       0.7092    0.169   0.1183     O
O       0.7092   0.5402   0.1183     O
C       0.7092   0.7022   0.8413     C
C       0.7123   0.0573   0.8243     C
C       0.7123    0.655   0.8243     C
C       0.7133   0.0369   0.2068     C
C       0.7133   0.6764   0.2068     C
H       0.7262   0.7307   0.1127     H
H       0.7262   0.9955   0.1127     H
H       0.7307   0.0045   0.8873     H
H       0.7307   0.7262   0.8873     H
O      0.74111  0.14726   0.8705     O
O      0.74111  0.59385   0.8705     O
C       0.7476   0.1074   0.8766     C
C       0.7476   0.6402   0.8766     C
C       0.7649   0.0924   0.1861     C
C       0.7649   0.6725   0.1861     C
Mn     0.77413  0.54827  0.93261    Mn
Mn     0.77414  0.22587  0.93261    Mn
O       0.7743   0.1319    0.238     O
O       0.7743   0.6424    0.238     O
O       0.7847   0.1057   0.9246     O
O       0.7847    0.679   0.9246     O
Mn     0.78941  0.21059  0.18607    Mn
Mn     0.78941  0.57882  0.18607    Mn
O      0.79386  0.09353   0.1214     O
O      0.79386  0.70033   0.1214     O
O      0.79934  0.30714   0.9964     O
O      0.79934   0.4922   0.9964     O
O      0.80088  0.60177   0.0479     O
O      0.80089  0.19912   0.0479     O
H       0.8054   0.4027   0.0115     H
C       0.8179   0.3197   0.0676     C
C       0.8179   0.4982   0.0676     C
C      0.82232  0.41116   0.0686     C
O        0.831   0.2908   0.1183     O
O        0.831   0.5402   0.1183     O
C       0.8351   0.3764   0.1115     C
C       0.8351   0.4587   0.1115     C
Mn     0.84413  0.68827  0.02518    Mn
Mn     0.84414  0.15587  0.02518    Mn
O      0.85274  0.25889   0.8705     O
O      0.85274  0.59385   0.8705     O
C       0.8611   0.3889    0.196     C
C       0.8611   0.4722    0.196     C
O       0.8681   0.2257    0.238     O
O       0.8681   0.6424    0.238     O
H       0.8697   0.3646   0.2247     H
H       0.8697   0.5051   0.2247     H
C      0.87394  0.43697   0.2354     C
C       0.8926   0.2524   0.8766     C
C       0.8926   0.6402   0.8766     C
O       0.8943   0.2153   0.9246     O
O       0.8943    0.679   0.9246     O
O       0.8989  0.44945   0.3224     O
O      0.90647  0.20614   0.1214     O
O      0.90647  0.70033   0.1214     O
H       0.9068   0.3198   0.7455     H
H       0.9068    0.587   0.7455     H
C       0.9076   0.2351   0.1861     C
C       0.9076   0.6725   0.1861     C
H       0.9327   0.3128   0.3098     H
H       0.9327   0.6199   0.3098     H
C       0.9397   0.3207    0.757     C
C       0.9397    0.619    0.757     C
C       0.9427   0.2877   0.8243     C
C       0.9427    0.655   0.8243     C
H       0.9429   0.3868   0.3692     H
H       0.9429   0.5561   0.3692     H
C       0.9577  0.47885   0.3165     C
C       0.9631   0.2867   0.2068     C
C       0.9631   0.6764   0.2068     C
C       0.9641   0.3214   0.2762     C
C       0.9641   0.6427   0.2762     C
H       0.9651   0.3692   0.4542     H
H       0.9651   0.5959   0.4542     H
H       0.9705   0.4572   0.2842     H
H       0.9705   0.5133   0.2842     H
C       0.9742   0.3979   0.4093     C
C       0.9742   0.5763   0.4093     C
C      0.97862  0.48931   0.4129     C
O      0.97871  0.38633   0.6422     O
O      0.97871  0.59238   0.6422     O
C       0.9867   0.3556   0.7063     C
C       0.9867   0.6311   0.7063     C
C       0.9892    0.452   0.4566     C
C       0.9892   0.5372   0.4566     C
C        0.993   0.2908   0.8413     C
C        0.993   0.7022   0.8413     C
H       0.9955   0.2693   0.8873     H
H       0.9955   0.7262   0.8873     H
