data_I
_chemical_name_common  '/home/zhangsd/repos/MofS-CGCNN/ML/data/TSD/clean_cifs/GOVXIA_clean'
_cell_length_a 13.62570
_cell_length_b 25.26750
_cell_length_c 16.81850
_cell_angle_alpha 90.00000
_cell_angle_beta  105.81500
_cell_angle_gamma 90.00000
_space_group_name_H-M_alt      'P 1'


loop_
_space_group_symop_operation_xyz
  'x, y, z' 

loop_
_atom_site_label
_atom_site_fract_x
_atom_site_fract_y
_atom_site_fract_z
_atom_site_type_symbol
C       0.0005  0.09913  0.90347     C
C       0.0005  0.40087  0.40347     C
C      0.00277  0.69708  0.16916     C
C      0.00277  0.80292  0.66916     C
O      0.00394  0.20045   0.1249     O
O      0.00394  0.29955   0.6249     O
C      0.01413  0.14021  0.77734     C
C      0.01413  0.35979  0.27734     C
H       0.0142   0.5128    0.362     H
H       0.0142   0.9872    0.862     H
H       0.0174   0.1752   0.2922     H
H       0.0174   0.3248   0.7922     H
N      0.02207  0.22401  0.47153     N
N      0.02207  0.27599  0.97153     N
H       0.0251   0.0943   0.9615     H
H       0.0251   0.4057   0.4615     H
C      0.02857  0.08992  0.13649     C
C      0.02857  0.41008  0.63649     C
H       0.0306   0.6044   0.3522     H
H       0.0306   0.8956   0.8522     H
O      0.03366  0.17596  0.65362     O
O      0.03366  0.32404  0.15362     O
C       0.0376  0.03571  0.13002     C
C       0.0376  0.46429  0.63002     C
C      0.04758  0.19429  0.41348     C
C      0.04758  0.30571  0.91348     C
C       0.0498  0.13329  0.86227     C
C       0.0498  0.36671  0.36227     C
C      0.05722  0.74257  0.55463     C
C      0.05722  0.75743  0.05463     C
C      0.06694  0.17613  0.73177     C
C      0.06694  0.32387  0.23177     C
C       0.0725  0.61277  0.76634     C
C       0.0725  0.88723  0.26634     C
H       0.0763   0.7214   0.5145     H
H       0.0763   0.7786   0.0145     H
C      0.08413   0.7325  0.19581     C
C      0.08413   0.7675  0.69581     C
C      0.08461   0.5723  0.64149     C
C      0.08461   0.9277  0.14149     C
C      0.08936  0.18146   0.1296     C
C      0.08936  0.31854   0.6296     C
H       0.0978   0.6175   0.8244     H
H       0.0978   0.8825   0.3244     H
H       0.1014   0.7168   0.3114     H
H       0.1014   0.7832   0.8114     H
H        0.103   0.1703   0.4306     H
H        0.103   0.3297   0.9306     H
Co     0.10481  0.21824  0.59094    Co
Co     0.10481  0.28176  0.09094    Co
C      0.10511  0.12352  0.12658     C
C      0.10511  0.37648  0.62658     C
H       0.1085   0.1521   0.8925     H
H       0.1085   0.3479   0.3925     H
C      0.11233  0.73721  0.63608     C
C      0.11233  0.76279  0.13608     C
C        0.122  0.57863  0.72578     C
C        0.122  0.92137  0.22578     C
C      0.12329  0.01517  0.11173     C
C      0.12329  0.48483  0.61173     C
N      0.12736  0.73718  0.27981     N
N      0.12736  0.76282  0.77981     N
O      0.13573  0.53853  0.60044     O
O      0.13573  0.96147  0.10044     O
O      0.14025  0.20399  0.77187     O
O      0.14025  0.29601  0.27187     O
H       0.1486   0.7215   0.9204     H
H       0.1486   0.7785   0.4204     H
O      0.16714  0.21257  0.13306     O
O      0.16714  0.28743  0.63306     O
H       0.1683   0.7134   0.6513     H
H       0.1683   0.7866   0.1513     H
H        0.181   0.5598   0.7556     H
H        0.181   0.9402   0.2556     H
H       0.1811   0.0857   0.3653     H
H       0.1811   0.4143   0.8653     H
C      0.19138  0.10212  0.10964     C
C      0.19138  0.39788  0.60964     C
C      0.20082  0.04796  0.10141     C
C      0.20082  0.45204  0.60141     C
C      0.20662  0.73004  0.82061     C
C      0.20662  0.76996  0.32061     C
O      0.21001  0.17393   0.3065     O
O      0.21001  0.32607   0.8065     O
H       0.2119   0.2351   0.9204     H
H       0.2119   0.2649   0.4204     H
H       0.2145   0.5009   0.9128     H
H       0.2145   0.9991   0.4128     H
C      0.21704  0.72752  0.91224     C
C      0.21704  0.77248  0.41224     C
H        0.219   0.6816   0.0534     H
H        0.219   0.8184   0.5534     H
O      0.22727  0.17723  0.58689     O
O      0.22727  0.32277  0.08689     O
C      0.24012  0.06797  0.35925     C
C      0.24012  0.43203  0.85925     C
H       0.2417   0.7377    0.437     H
H       0.2417   0.7623    0.937     H
H       0.2444   0.1249   0.1037     H
H       0.2444   0.3751   0.6037     H
Co     0.25295  0.24425  0.26047    Co
Co     0.25295  0.25575  0.76047    Co
H       0.2592   0.0335   0.0889     H
H       0.2592   0.4665   0.5889     H
C      0.25961  0.01667  0.38732     C
C      0.25961  0.48333  0.88732     C
O      0.25994  0.70592   0.7859     O
O      0.25994  0.79408   0.2859     O
H       0.2657   0.6498   0.9338     H
H       0.2657   0.8502   0.4338     H
H       0.2824   0.6408   0.1949     H
H       0.2824   0.8592   0.6949     H
C      0.28357  0.22969  0.93783     C
C      0.28357  0.27031  0.43783     C
H       0.2874    0.216   0.0575     H
H       0.2874    0.284   0.5575     H
C      0.28816  0.15044  0.29633     C
C      0.28816  0.34956  0.79633     C
C       0.2886  0.68485  0.95838     C
C       0.2886  0.81515  0.45838     C
C         0.29  0.68485  0.04944     C
C         0.29  0.81515  0.54944     C
C      0.30645  0.09407  0.32209     C
C      0.30645  0.40593  0.82209     C
C      0.31383  0.18194  0.63862     C
C      0.31383  0.31806  0.13862     C
H        0.317   0.7193   0.0741     H
H        0.317   0.7807   0.5741     H
H       0.3267    0.606    0.076     H
H       0.3267    0.894    0.576     H
C      0.32805  0.21878  0.01995     C
C      0.32805  0.28122  0.51995     C
H       0.3294   0.1276   0.5073     H
H       0.3294   0.3724   0.0073     H
O      0.33328  0.21147  0.70169     O
O      0.33328  0.28853  0.20169     O
N      0.33595  0.23303  0.88117     N
N      0.33595  0.26697  0.38117     N
C      0.34629  0.50917  0.87785     C
C      0.34629  0.99083  0.37785     C
O      0.35007  0.17504  0.26578     O
O      0.35007  0.32496  0.76578     O
C       0.3536  0.64209  0.19122     C
C       0.3536  0.85791  0.69122     C
C       0.3538  0.64051  0.09999     C
C       0.3538  0.85949  0.59999     C
H       0.3583   0.6913   0.9533     H
H       0.3583   0.8087   0.4533     H
H       0.3608   0.7228   0.2131     H
H       0.3608   0.7772   0.7131     H
O      0.36134  0.55955  0.91064     O
O      0.36134  0.94045  0.41064     O
O       0.3642  0.67792  0.36288     O
O       0.3642  0.82208  0.86288     O
H       0.3679   0.6127   0.7816     H
H       0.3679   0.8873   0.2816     H
H       0.3897   0.6106   0.2199     H
H       0.3897   0.8894   0.7199     H
C       0.3907  0.12436   0.5506     C
C       0.3907  0.37564   0.0506     C
C      0.39084  0.06729  0.31156     C
C      0.39084  0.43271  0.81156     C
C      0.40027  0.15025   0.6248     C
C      0.40027  0.34975   0.1248     C
C       0.4052  0.69196  0.23401     C
C       0.4052  0.80804  0.73401     C
C      0.41131  0.01538  0.33878     C
C      0.41131  0.48462  0.83878     C
H       0.4249   0.6435   0.0964     H
H       0.4249   0.8565   0.5964     H
C      0.42735  0.69009  0.32682     C
C      0.42735  0.80991  0.82682     C
C         0.43  0.61555   0.8242     C
C         0.43  0.88445   0.3242     C
H       0.4332   0.2089   0.1634     H
H       0.4332   0.2911   0.6634     H
C      0.43332  0.21187  0.04739     C
C      0.43332  0.28813  0.54739     C
H       0.4354   0.0846   0.2853     H
H       0.4354   0.4154   0.7853     H
C      0.43691  0.22544  0.90787     C
C      0.43691  0.27456  0.40787     C
H       0.4392   0.7096   0.4951     H
H       0.4392   0.7904   0.9951     H
C      0.44246  0.58909  0.89756     C
C      0.44246  0.91091  0.39756     C
H        0.464    0.076   0.4879     H
H        0.464    0.424   0.9879     H
H       0.4688   0.5029   0.8307     H
H       0.4688   0.9971   0.3307     H
C       0.4701  0.09363  0.53898     C
C       0.4701  0.40637  0.03898     C
H       0.4701   0.6973   0.2193     H
H       0.4701   0.8027   0.7193     H
N      0.47511  0.20411  0.13235     N
N      0.47511  0.29589  0.63235     N
H       0.4752   0.2275   0.8685     H
H       0.4752   0.2725   0.3685     H
C      0.48904  0.21481  0.98915     C
C      0.48904  0.28519  0.48915     C
C       0.4909  0.14638   0.6867     C
C       0.4909  0.35362   0.1867     C
H       0.4987   0.1651   0.7371     H
H       0.4987   0.3349   0.2371     H
H       0.5013   0.6651   0.7629     H
H       0.5013   0.8349   0.2629     H
C       0.5091  0.64638   0.8133     C
C       0.5091  0.85362   0.3133     C
C      0.51096  0.71481  0.51085     C
C      0.51096  0.78519  0.01085     C
H       0.5248   0.7275   0.6315     H
H       0.5248   0.7725   0.1315     H
N      0.52489  0.70411  0.36765     N
N      0.52489  0.79589  0.86765     N
H       0.5299   0.1973   0.2807     H
H       0.5299   0.3027   0.7807     H
C       0.5299  0.59363  0.96102     C
C       0.5299  0.90637  0.46102     C
H       0.5312   0.0029   0.6693     H
H       0.5312   0.4971   0.1693     H
H        0.536    0.576   0.0121     H
H        0.536    0.924   0.5121     H
C      0.55754  0.08909  0.60244     C
C      0.55754  0.41091  0.10244     C
H       0.5608   0.2096   0.0049     H
H       0.5608   0.2904   0.5049     H
C      0.56309  0.72544  0.59213     C
C      0.56309  0.77456  0.09213     C
H       0.5646   0.5846   0.2147     H
H       0.5646   0.9154   0.7147     H
C      0.56668  0.71187  0.45261     C
C      0.56668  0.78813  0.95261     C
H       0.5668   0.7089   0.3366     H
H       0.5668   0.7911   0.8366     H
C         0.57  0.11555   0.6758     C
C         0.57  0.38445   0.1758     C
C      0.57265  0.19009  0.17318     C
C      0.57265  0.30991  0.67318     C
H       0.5751   0.1435   0.4036     H
H       0.5751   0.3565   0.9036     H
C      0.58869  0.51538  0.16122     C
C      0.58869  0.98462  0.66122     C
C       0.5948  0.19196  0.26599     C
C       0.5948  0.30804  0.76599     C
C      0.59973  0.65025   0.8752     C
C      0.59973  0.84975   0.3752     C
C      0.60916  0.56729  0.18844     C
C      0.60916  0.93271  0.68844     C
C       0.6093  0.62436   0.9494     C
C       0.6093  0.87564   0.4494     C
H       0.6103   0.1106   0.2801     H
H       0.6103   0.3894   0.7801     H
H       0.6321   0.1127   0.7184     H
H       0.6321   0.3873   0.2184     H
O       0.6358  0.17792  0.13712     O
O       0.6358  0.32208  0.63712     O
O      0.63866  0.05955  0.58936     O
O      0.63866  0.44045  0.08936     O
H       0.6392   0.2228   0.2869     H
H       0.6392   0.2772   0.7869     H
H       0.6417   0.1913   0.5467     H
H       0.6417   0.3087   0.0467     H
C       0.6462  0.14051  0.40001     C
C       0.6462  0.35949  0.90001     C
C       0.6464  0.14209  0.30878     C
C       0.6464  0.35791  0.80878     C
O      0.64993  0.67504  0.23422     O
O      0.64993  0.82496  0.73422     O
C      0.65371  0.00917  0.62215     C
C      0.65371  0.49083  0.12215     C
N      0.66405  0.73303  0.61883     N
N      0.66405  0.76697  0.11883     N
O      0.66672  0.71147  0.79831     O
O      0.66672  0.78853  0.29831     O
H       0.6706   0.6276   0.9927     H
H       0.6706   0.8724   0.4927     H
C      0.67195  0.71878  0.48005     C
C      0.67195  0.78122  0.98005     C
H       0.6733    0.106    0.424     H
H       0.6733    0.394    0.924     H
H        0.683   0.2193   0.4259     H
H        0.683   0.2807   0.9259     H
C      0.68617  0.68194  0.86138     C
C      0.68617  0.81806  0.36138     C
C      0.69355  0.59407  0.17791     C
C      0.69355  0.90593  0.67791     C
C         0.71  0.18485  0.45056     C
C         0.71  0.31515  0.95056     C
C       0.7114  0.18485  0.54162     C
C       0.7114  0.31515  0.04162     C
C      0.71184  0.65044  0.20367     C
C      0.71184  0.84956  0.70367     C
H       0.7126    0.716   0.4425     H
H       0.7126    0.784   0.9425     H
C      0.71643  0.72969  0.56217     C
C      0.71643  0.77031  0.06217     C
H       0.7176   0.1408   0.3051     H
H       0.7176   0.3592   0.8051     H
H       0.7343   0.1498   0.5662     H
H       0.7343   0.3502   0.0662     H
O      0.74006  0.20592   0.7141     O
O      0.74006  0.29408   0.2141     O
C      0.74039  0.51667  0.11268     C
C      0.74039  0.98333  0.61268     C
H       0.7408   0.5335   0.4111     H
H       0.7408   0.9665   0.9111     H
Co     0.74705  0.74425  0.23953    Co
Co     0.74705  0.75575  0.73953    Co
H       0.7556   0.6249   0.3963     H
H       0.7556   0.8751   0.8963     H
H       0.7583   0.2377    0.063     H
H       0.7583   0.2623    0.563     H
C      0.75988  0.56797  0.14075     C
C      0.75988  0.93203  0.64075     C
O      0.77273  0.67723  0.91311     O
O      0.77273  0.82277  0.41311     O
H        0.781   0.1816   0.4466     H
H        0.781   0.3184   0.9466     H
C      0.78296  0.22752  0.58776     C
C      0.78296  0.27248  0.08776     C
H       0.7855   0.0009   0.5872     H
H       0.7855   0.4991   0.0872     H
H       0.7881   0.7351   0.5796     H
H       0.7881   0.7649   0.0796     H
O      0.78999  0.67393   0.1935     O
O      0.78999  0.82607   0.6935     O
C      0.79338  0.23004  0.67939     C
C      0.79338  0.26996  0.17939     C
C      0.79918  0.54796  0.39859     C
C      0.79918  0.95204  0.89859     C
C      0.80862  0.60212  0.39036     C
C      0.80862  0.89788  0.89036     C
H       0.8189   0.5857   0.1347     H
H       0.8189   0.9143   0.6347     H
H        0.819   0.0598   0.7444     H
H        0.819   0.4402   0.2444     H
H       0.8317   0.2134   0.8487     H
H       0.8317   0.2866   0.3487     H
O      0.83286  0.71257  0.36694     O
O      0.83286  0.78743  0.86694     O
H       0.8514   0.2215   0.5796     H
H       0.8514   0.2785   0.0796     H
O      0.85975  0.70399  0.72813     O
O      0.85975  0.79601  0.22813     O
O      0.86427  0.03853  0.89956     O
O      0.86427  0.46147  0.39956     O
N      0.87264  0.23718  0.22019     N
N      0.87264  0.26282  0.72019     N
C      0.87671  0.51517  0.38827     C
C      0.87671  0.98483  0.88827     C
C        0.878  0.07863  0.77422     C
C        0.878  0.42137  0.27422     C
C      0.88767  0.23721  0.86392     C
C      0.88767  0.26279  0.36392     C
H       0.8915   0.6521   0.6075     H
H       0.8915   0.8479   0.1075     H
C      0.89489  0.62352  0.37342     C
C      0.89489  0.87648  0.87342     C
Co     0.89519  0.71824  0.90906    Co
Co     0.89519  0.78176  0.40906    Co
H        0.897   0.6703   0.0694     H
H        0.897   0.8297   0.5694     H
H       0.8986   0.2168   0.1886     H
H       0.8986   0.2832   0.6886     H
H       0.9022   0.1175   0.6756     H
H       0.9022   0.3825   0.1756     H
C      0.91064  0.68146   0.3704     C
C      0.91064  0.81854   0.8704     C
C      0.91539   0.0723  0.85851     C
C      0.91539   0.4277  0.35851     C
C      0.91587   0.2325  0.30419     C
C      0.91587   0.2675  0.80419     C
H       0.9237   0.2214   0.9855     H
H       0.9237   0.2786   0.4855     H
C       0.9275  0.11277  0.73366     C
C       0.9275  0.38723  0.23366     C
C      0.93306  0.67613  0.76823     C
C      0.93306  0.82387  0.26823     C
C      0.94278  0.24257  0.94537     C
C      0.94278  0.25743  0.44537     C
C       0.9502  0.63329  0.63773     C
C       0.9502  0.86671  0.13773     C
C      0.95242  0.69429  0.08652     C
C      0.95242  0.80571  0.58652     C
C       0.9624  0.53571  0.36998     C
C       0.9624  0.96429  0.86998     C
O      0.96634  0.67596  0.84638     O
O      0.96634  0.82404  0.34638     O
H       0.9694   0.1044   0.1478     H
H       0.9694   0.3956   0.6478     H
C      0.97143  0.58992  0.36351     C
C      0.97143  0.91008  0.86351     C
H       0.9749   0.5943   0.5385     H
H       0.9749   0.9057   0.0385     H
N      0.97793  0.72401  0.02847     N
N      0.97793  0.77599  0.52847     N
H       0.9826   0.6752   0.2078     H
H       0.9826   0.8248   0.7078     H
H       0.9858   0.0128    0.138     H
H       0.9858   0.4872    0.638     H
C      0.98587  0.64021  0.72266     C
C      0.98587  0.85979  0.22266     C
O      0.99606  0.70045   0.3751     O
O      0.99606  0.79955   0.8751     O
C      0.99723  0.19708  0.33084     C
C      0.99723  0.30292  0.83084     C
C       0.9995  0.59913  0.59653     C
C       0.9995  0.90087  0.09653     C
