data_I
_chemical_name_common  '/home/zhangsd/repos/MofS-CGCNN/ML/data/TSD/clean_cifs/GOWHOR_clean'
_cell_length_a 16.06850
_cell_length_b 14.62580
_cell_length_c  9.34570
_cell_angle_alpha 90.00000
_cell_angle_beta  117.79800
_cell_angle_gamma 90.00000
_space_group_name_H-M_alt      'P 1'


loop_
_space_group_symop_operation_xyz
  'x, y, z' 

loop_
_atom_site_label
_atom_site_fract_x
_atom_site_fract_y
_atom_site_fract_z
_atom_site_type_symbol
N          0.0   0.1938     0.25     N
N          0.0   0.3842     0.25     N
Mg         0.0  0.45728     0.75    Mg
Mg         0.0  0.54272     0.25    Mg
N          0.0   0.6158     0.75     N
N          0.0   0.8062     0.75     N
C       0.0641   0.3363   0.3736     C
C       0.0641   0.6637   0.8736     C
C       0.0659   0.2413   0.3729     C
C       0.0659   0.7587   0.8729     C
O      0.10016  0.46719    0.671     O
O      0.10016  0.53281    0.171     O
O      0.10729  0.44682   0.9807     O
O      0.10729  0.55318   0.4807     O
H       0.1091   0.3674   0.4631     H
H       0.1091   0.6326   0.9631     H
C       0.1341   0.4689   0.1242     C
C       0.1341   0.5311   0.6242     C
H       0.1361   0.0804   0.3663     H
H       0.1361   0.9196   0.8663     H
C       0.1414   0.1881   0.5056     C
C       0.1414   0.8119   0.0056     C
C       0.1673   0.1033   0.4711     C
C       0.1673   0.8967   0.9711     C
H       0.1719    0.277   0.6899     H
H       0.1719    0.723   0.1899     H
C        0.188   0.2204   0.6644     C
C        0.188   0.7796   0.1644     C
H       0.2118   0.3099   0.1098     H
H       0.2118   0.6901   0.6098     H
C       0.2156   0.4156   0.2519     C
C       0.2156   0.5844   0.7519     C
C       0.2385   0.0526   0.5903     C
C       0.2385   0.9474   0.0903     C
C       0.2417   0.3315   0.2155     C
C       0.2417   0.6685   0.7155     C
H       0.2442   0.4967   0.9356     H
H       0.2442   0.5033   0.4356     H
H       0.2558   0.0033   0.0644     H
H       0.2558   0.9967   0.5644     H
C       0.2583   0.1685   0.7845     C
C       0.2583   0.8315   0.2845     C
C       0.2615   0.4474   0.4097     C
C       0.2615   0.5526   0.9097     C
C       0.2844   0.0844   0.7481     C
C       0.2844   0.9156   0.2481     C
H       0.2882   0.1901   0.8902     H
H       0.2882   0.8099   0.3902     H
C        0.312   0.2796   0.3356     C
C        0.312   0.7204   0.8356     C
H       0.3281    0.223   0.3101     H
H       0.3281    0.777   0.8101     H
C       0.3327   0.3967   0.5289     C
C       0.3327   0.6033   0.0289     C
C       0.3586   0.3119   0.4944     C
C       0.3586   0.6881   0.9944     C
H       0.3639   0.4196   0.6337     H
H       0.3639   0.5804   0.1337     H
C       0.3659   0.0311   0.8758     C
C       0.3659   0.9689   0.3758     C
H       0.3909   0.1326   0.5369     H
H       0.3909   0.8674   0.0369     H
O      0.39271  0.05318   0.0193     O
O      0.39271  0.94682   0.5193     O
O      0.39984  0.03281    0.329     O
O      0.39984  0.96719    0.829     O
C       0.4341   0.2587   0.6271     C
C       0.4341   0.7413   0.1271     C
C       0.4359   0.1637   0.6264     C
C       0.4359   0.8363   0.1264     C
Mg         0.5  0.04272     0.25    Mg
N          0.5   0.1158     0.75     N
N          0.5   0.3062     0.75     N
N          0.5   0.6938     0.25     N
N          0.5   0.8842     0.25     N
Mg         0.5  0.95728     0.75    Mg
C       0.5641   0.1637   0.8736     C
C       0.5641   0.8363   0.3736     C
C       0.5659   0.2587   0.8729     C
C       0.5659   0.7413   0.3729     C
O      0.60016  0.03281    0.171     O
O      0.60016  0.96719    0.671     O
O      0.60729  0.05318   0.4807     O
O      0.60729  0.94682   0.9807     O
H       0.6091   0.1326   0.9631     H
H       0.6091   0.8674   0.4631     H
C       0.6341   0.0311   0.6242     C
C       0.6341   0.9689   0.1242     C
H       0.6361   0.4196   0.8663     H
H       0.6361   0.5804   0.3663     H
C       0.6414   0.3119   0.0056     C
C       0.6414   0.6881   0.5056     C
C       0.6673   0.3967   0.9711     C
C       0.6673   0.6033   0.4711     C
H       0.6719    0.223   0.1899     H
H       0.6719    0.777   0.6899     H
C        0.688   0.2796   0.1644     C
C        0.688   0.7204   0.6644     C
H       0.7118   0.1901   0.6098     H
H       0.7118   0.8099   0.1098     H
C       0.7156   0.0844   0.7519     C
C       0.7156   0.9156   0.2519     C
C       0.7385   0.4474   0.0903     C
C       0.7385   0.5526   0.5903     C
C       0.7417   0.1685   0.7155     C
C       0.7417   0.8315   0.2155     C
H       0.7442   0.0033   0.4356     H
H       0.7442   0.9967   0.9356     H
H       0.7558   0.4967   0.5644     H
H       0.7558   0.5033   0.0644     H
C       0.7583   0.3315   0.2845     C
C       0.7583   0.6685   0.7845     C
C       0.7615   0.0526   0.9097     C
C       0.7615   0.9474   0.4097     C
C       0.7844   0.4156   0.2481     C
C       0.7844   0.5844   0.7481     C
H       0.7882   0.3099   0.3902     H
H       0.7882   0.6901   0.8902     H
C        0.812   0.2204   0.8356     C
C        0.812   0.7796   0.3356     C
H       0.8281    0.277   0.8101     H
H       0.8281    0.723   0.3101     H
C       0.8327   0.1033   0.0289     C
C       0.8327   0.8967   0.5289     C
C       0.8586   0.1881   0.9944     C
C       0.8586   0.8119   0.4944     C
H       0.8639   0.0804   0.1337     H
H       0.8639   0.9196   0.6337     H
C       0.8659   0.4689   0.3758     C
C       0.8659   0.5311   0.8758     C
H       0.8909   0.3674   0.0369     H
H       0.8909   0.6326   0.5369     H
O      0.89271  0.44682   0.5193     O
O      0.89271  0.55318   0.0193     O
O      0.89984  0.46719    0.829     O
O      0.89984  0.53281    0.329     O
C       0.9341   0.2413   0.1271     C
C       0.9341   0.7587   0.6271     C
C       0.9359   0.3363   0.1264     C
C       0.9359   0.6637   0.6264     C
