data_I
_chemical_name_common  '/home/zhangsd/repos/MofS-CGCNN/ML/data/TSD/clean_cifs/GUDJOG_clean'
_cell_length_a 32.59900
_cell_length_b  8.84490
_cell_length_c 34.24600
_cell_angle_alpha 90.00000
_cell_angle_beta  116.45700
_cell_angle_gamma 90.00000
_space_group_name_H-M_alt      'P 1'


loop_
_space_group_symop_operation_xyz
  'x, y, z' 

loop_
_atom_site_label
_atom_site_fract_x
_atom_site_fract_y
_atom_site_fract_z
_atom_site_type_symbol
Sm     0.00662  0.37809  0.38164    Sm
Sm     0.00662  0.62191  0.88164    Sm
O      0.02787   0.4079  0.06811     O
O      0.02787   0.5921  0.56811     O
O      0.03003   0.4071  0.19979     O
O      0.03003   0.5929  0.69979     O
O      0.04556   0.2033  0.17131     O
O      0.04556   0.7967  0.67131     O
C      0.05034   0.2797    0.204     C
C      0.05034   0.7203    0.704     C
H       0.0547   0.3497   0.2817     H
H       0.0547   0.6503   0.7817     H
H       0.0591   0.4965   0.5172     H
H       0.0591   0.5035   0.0172     H
C       0.0592   0.4885   0.0947     C
C       0.0592   0.5115   0.5947     C
O      0.06481   0.3252  0.36111     O
O      0.06481   0.6748  0.86111     O
O      0.06635   0.4975   0.1336     O
O      0.06635   0.5025   0.6336     O
O      0.07184   0.4301  0.45011     O
O      0.07184   0.5699  0.95011     O
C        0.076   0.2751  0.28478     C
C        0.076   0.7249  0.78478     C
C       0.0801   0.2182  0.24924     C
C       0.0801   0.7818  0.74924     C
C       0.0822    0.435  0.53692     C
C       0.0822    0.565  0.03692     C
C       0.0891    0.424  0.57968     C
C       0.0891    0.576  0.07968     C
C       0.1012   0.2695   0.3658     C
C       0.1012   0.7305   0.8658     C
C       0.1043   0.3645   0.4782     C
C       0.1043   0.6355   0.9782     C
C       0.1052   0.2166   0.3257     C
C       0.1052   0.7834   0.8257     C
C      0.11057    0.352  0.52365     C
C      0.11057    0.648  0.02365     C
C      0.11096   0.1021  0.25313     C
C      0.11096   0.8979  0.75313     C
H       0.1119   0.0625   0.2284     H
H       0.1119   0.9375   0.7284     H
C       0.1223   0.3296  0.60887     C
C       0.1223   0.6704  0.10887     C
H       0.1264   0.2776   0.4458     H
H       0.1264   0.3239   0.6375     H
H       0.1264   0.6761   0.1375     H
H       0.1264   0.7224   0.9458     H
H       0.1334   0.3359     0.76     H
H       0.1334   0.6641     0.26     H
O      0.13494   0.2489  0.40216     O
O      0.13494   0.7511  0.90216     O
O      0.13567   0.2939  0.47193     O
O      0.13567   0.7061  0.97193     O
C       0.1364   0.1047  0.33015     C
C       0.1364   0.8953  0.83015     C
H       0.1386   0.4524    0.728     H
H       0.1386   0.5476    0.228     H
H       0.1389   0.1236   0.1343     H
H       0.1389   0.8764   0.6343     H
C       0.1399   0.0468   0.2939     C
C       0.1399   0.9532   0.7939     C
H       0.1415    0.208   0.1756     H
H       0.1415    0.792   0.6756     H
H       0.1428   0.4933   0.2732     H
H       0.1428   0.5067   0.7732     H
C       0.1437   0.2567   0.5531     C
C       0.1437   0.7433   0.0531     C
C       0.1491   0.4254   0.7581     C
C       0.1491   0.5746   0.2581     C
C       0.1499   0.2426    0.596     C
H       0.1499    0.297   0.1402     H
H       0.1499    0.703   0.6402     H
C       0.1499   0.7574    0.096     C
C       0.1541   0.2021   0.1551     C
C       0.1541   0.7979   0.6551     C
H       0.1553    0.149   0.7405     H
H       0.1553    0.851   0.2405     H
H       0.1554   0.0672   0.3578     H
H       0.1554   0.9328   0.8578     H
H       0.1592   0.0813   0.6663     H
H       0.1592   0.9187   0.1663     H
H       0.1621    0.201   0.5441     H
H       0.1621    0.799   0.0441     H
N      0.17064   0.0655  0.79975     N
N      0.17064   0.9345  0.29975     N
N      0.18234   0.1427  0.62374     N
N      0.18234   0.8573  0.12374     N
C       0.1826   0.1157  0.76568     C
C       0.1826   0.8843  0.26568     C
H       0.1836   0.1089   0.8248     H
H       0.1836   0.8911   0.3248     H
H       0.1864   0.3309   0.2949     H
H       0.1864   0.6691   0.7949     H
C       0.1883   0.1088  0.66708     C
C       0.1883   0.8912  0.16708     C
H       0.1959   0.0324   0.7567     H
H       0.1959   0.9676   0.2567     H
H        0.196   0.4618   0.1981     H
H        0.196   0.5382   0.6981     H
H       0.1999   0.0982   0.6146     H
H       0.1999   0.9018   0.1146     H
H          0.2   0.1969   0.6856     H
H          0.2   0.8031   0.1856     H
C       0.2004   0.3957  0.77876     C
C       0.2004   0.6043  0.27876     C
C       0.2053   0.1665   0.1794     C
C       0.2053   0.8335   0.6794     C
H       0.2072   0.4733   0.1581     H
H       0.2072   0.5267   0.6581     H
H       0.2082     0.29   0.2637     H
H       0.2082     0.71   0.7637     H
C       0.2142   0.3308   0.2917     C
C       0.2142   0.6692   0.7917     C
C       0.2163   0.2432   0.7824     C
C       0.2163   0.7568   0.2824     C
C       0.2195   0.4499   0.1887     C
C       0.2195   0.5501   0.6887     C
C       0.2218   0.0211  0.18511     C
C       0.2218   0.9789  0.68511     C
C       0.2317   0.4902   0.2953     C
C       0.2317   0.5098   0.7953     C
C       0.2365   0.2889   0.1962     C
C       0.2365   0.7111   0.6962     C
H       0.2368   0.2699   0.3142     H
H       0.2368   0.7301   0.8142     H
H       0.2444   0.4828   0.7049     H
H       0.2444   0.5172   0.2049     H
H       0.2556   0.0172   0.2951     H
H       0.2556   0.9828   0.7951     H
H       0.2632   0.2301   0.6858     H
H       0.2632   0.7699   0.1858     H
C       0.2635   0.2111   0.8038     C
C       0.2635   0.7889   0.3038     C
C       0.2683   0.0098   0.7047     C
C       0.2683   0.9902   0.2047     C
C       0.2782   0.4789  0.81489     C
C       0.2782   0.5211  0.31489     C
C       0.2805   0.0501   0.8113     C
C       0.2805   0.9499   0.3113     C
C       0.2837   0.2568   0.2176     C
C       0.2837   0.7432   0.7176     C
C       0.2858   0.1692   0.7083     C
C       0.2858   0.8308   0.2083     C
H       0.2918     0.21   0.7363     H
H       0.2918     0.79   0.2363     H
H       0.2928   0.0267   0.8419     H
H       0.2928   0.9733   0.3419     H
C       0.2947   0.3335   0.8206     C
C       0.2947   0.6665   0.3206     C
C       0.2996   0.1043  0.22124     C
C       0.2996   0.8957  0.72124     C
H          0.3   0.3031   0.3144     H
H          0.3   0.6969   0.8144     H
H       0.3001   0.4018   0.3854     H
H       0.3001   0.5982   0.8854     H
H        0.304   0.0382   0.8019     H
H        0.304   0.9618   0.3019     H
H       0.3041   0.4676   0.2433     H
H       0.3041   0.5324   0.7433     H
C       0.3117   0.3912  0.33292     C
C       0.3117   0.6088  0.83292     C
H       0.3136   0.1691   0.7051     H
H       0.3136   0.8309   0.2051     H
H       0.3164   0.3911   0.1752     H
H       0.3164   0.6089   0.6752     H
C       0.3174   0.3843  0.23432     C
C       0.3174   0.6157  0.73432     C
N      0.31766   0.3573  0.37626     N
N      0.31766   0.6427  0.87626     N
N      0.32936   0.4345  0.20025     N
N      0.32936   0.5655  0.70025     N
H       0.3379    0.299   0.4559     H
H       0.3379    0.701   0.9559     H
H       0.3408   0.4187   0.3337     H
H       0.3408   0.5813   0.8337     H
H       0.3446   0.4328   0.6422     H
H       0.3446   0.5672   0.1422     H
H       0.3447    0.351   0.2595     H
H       0.3447    0.649   0.7595     H
C       0.3459   0.2979   0.8449     C
C       0.3459   0.7021   0.3449     C
H       0.3501    0.203   0.8598     H
C       0.3501   0.2574    0.404     C
C       0.3501   0.7426    0.904     C
H       0.3501    0.797   0.3598     H
C       0.3509   0.0746   0.2419     C
C       0.3509   0.9254   0.7419     C
C       0.3563   0.2433   0.4469     C
C       0.3563   0.7567   0.9469     C
H       0.3572   0.0067   0.7268     H
H       0.3572   0.9933   0.2268     H
H       0.3585    0.292   0.8244     H
H       0.3585    0.708   0.3244     H
C       0.3601   0.4532   0.7061     C
C       0.3601   0.5468   0.2061     C
H       0.3611   0.3764   0.8657     H
H       0.3611   0.6236   0.3657     H
H       0.3614   0.0476    0.272     H
H       0.3614   0.9524    0.772     H
C       0.3636   0.3953  0.66985     C
C       0.3636   0.6047  0.16985     C
O      0.36433   0.2061  0.52807     O
O      0.36433   0.7939  0.02807     O
O      0.36506   0.2511  0.59784     O
O      0.36506   0.7489  0.09784     O
H       0.3666   0.1641     0.24     H
H       0.3666   0.8359     0.74     H
H       0.3736   0.1761   0.3625     H
H       0.3736   0.2224   0.5542     H
H       0.3736   0.7776   0.0542     H
H       0.3736   0.8239   0.8625     H
C       0.3777   0.1704  0.39113     C
C       0.3777   0.8296  0.89113     C
H       0.3881   0.4375   0.7716     H
H       0.3881   0.5625   0.2716     H
C      0.38904   0.3979  0.74687     C
C      0.38904   0.6021  0.24687     C
C      0.38943    0.148  0.47635     C
C      0.38943    0.852  0.97635     C
C       0.3948   0.2834   0.6743     C
C       0.3948   0.7166   0.1743     C
C       0.3957   0.1355   0.5218     C
C       0.3957   0.8645   0.0218     C
C       0.3988   0.2305   0.6342     C
C       0.3988   0.7695   0.1342     C
C       0.4109    0.076  0.42032     C
C       0.4109    0.924  0.92032     C
C       0.4178    0.065  0.46308     C
C       0.4178    0.935  0.96308     C
C       0.4199   0.2818  0.75076     C
C       0.4199   0.7182  0.25076     C
C        0.424   0.2249  0.71522     C
C        0.424   0.7751  0.21522     C
O      0.42816   0.0699  0.54989     O
O      0.42816   0.9301  0.04989     O
O      0.43365   0.0025   0.8664     O
O      0.43365   0.9975   0.3664     O
O      0.43519   0.1748  0.63889     O
O      0.43519   0.8252  0.13889     O
C       0.4408   0.0115   0.9053     C
C       0.4408   0.9885   0.4053     C
H       0.4409   0.0035   0.4828     H
H       0.4409   0.9965   0.9828     H
H       0.4453   0.1503   0.7183     H
H       0.4453   0.8497   0.2183     H
C      0.44966   0.2203    0.796     C
C      0.44966   0.7797    0.296     C
O      0.45444   0.2967  0.82869     O
O      0.45444   0.7033  0.32869     O
O      0.46997   0.0929  0.80021     O
O      0.46997   0.9071  0.30021     O
O      0.47213   0.0921  0.93189     O
O      0.47213   0.9079  0.43189     O
Sm     0.49338  0.12191  0.61836    Sm
Sm     0.49338  0.87809  0.11836    Sm
Sm     0.50662  0.12191  0.88164    Sm
Sm     0.50662  0.87809  0.38164    Sm
O      0.52787   0.0921  0.56811     O
O      0.52787   0.9079  0.06811     O
O      0.53003   0.0929  0.69979     O
O      0.53003   0.9071  0.19979     O
O      0.54556   0.2967  0.67131     O
O      0.54556   0.7033  0.17131     O
C      0.55034   0.2203    0.704     C
C      0.55034   0.7797    0.204     C
H       0.5547   0.1503   0.7817     H
H       0.5547   0.8497   0.2817     H
H       0.5591   0.0035   0.0172     H
H       0.5591   0.9965   0.5172     H
C       0.5592   0.0115   0.5947     C
C       0.5592   0.9885   0.0947     C
O      0.56481   0.1748  0.86111     O
O      0.56481   0.8252  0.36111     O
O      0.56635   0.0025   0.6336     O
O      0.56635   0.9975   0.1336     O
O      0.57184   0.0699  0.95011     O
O      0.57184   0.9301  0.45011     O
C        0.576   0.2249  0.78478     C
C        0.576   0.7751  0.28478     C
C       0.5801   0.2818  0.74924     C
C       0.5801   0.7182  0.24924     C
C       0.5822    0.065  0.03692     C
C       0.5822    0.935  0.53692     C
C       0.5891    0.076  0.07968     C
C       0.5891    0.924  0.57968     C
C       0.6012   0.2305   0.8658     C
C       0.6012   0.7695   0.3658     C
C       0.6043   0.1355   0.9782     C
C       0.6043   0.8645   0.4782     C
C       0.6052   0.2834   0.8257     C
C       0.6052   0.7166   0.3257     C
C      0.61057    0.148  0.02365     C
C      0.61057    0.852  0.52365     C
C      0.61096   0.3979  0.75313     C
C      0.61096   0.6021  0.25313     C
H       0.6119   0.4375   0.7284     H
H       0.6119   0.5625   0.2284     H
C       0.6223   0.1704  0.10887     C
C       0.6223   0.8296  0.60887     C
H       0.6264   0.1761   0.1375     H
H       0.6264   0.2224   0.9458     H
H       0.6264   0.7776   0.4458     H
H       0.6264   0.8239   0.6375     H
H       0.6334   0.1641     0.26     H
H       0.6334   0.8359     0.76     H
O      0.63494   0.2511  0.90216     O
O      0.63494   0.7489  0.40216     O
O      0.63567   0.2061  0.97193     O
O      0.63567   0.7939  0.47193     O
C       0.6364   0.3953  0.83015     C
C       0.6364   0.6047  0.33015     C
H       0.6386   0.0476    0.228     H
H       0.6386   0.9524    0.728     H
H       0.6389   0.3764   0.6343     H
H       0.6389   0.6236   0.1343     H
C       0.6399   0.4532   0.7939     C
C       0.6399   0.5468   0.2939     C
H       0.6415    0.292   0.6756     H
H       0.6415    0.708   0.1756     H
H       0.6428   0.0067   0.7732     H
H       0.6428   0.9933   0.2732     H
C       0.6437   0.2433   0.0531     C
C       0.6437   0.7567   0.5531     C
C       0.6491   0.0746   0.2581     C
C       0.6491   0.9254   0.7581     C
H       0.6499    0.203   0.6402     H
C       0.6499   0.2574    0.096     C
C       0.6499   0.7426    0.596     C
H       0.6499    0.797   0.1402     H
C       0.6541   0.2979   0.6551     C
C       0.6541   0.7021   0.1551     C
H       0.6553    0.351   0.2405     H
H       0.6553    0.649   0.7405     H
H       0.6554   0.4328   0.8578     H
H       0.6554   0.5672   0.3578     H
H       0.6592   0.4187   0.1663     H
H       0.6592   0.5813   0.6663     H
H       0.6621    0.299   0.0441     H
H       0.6621    0.701   0.5441     H
N      0.67064   0.4345  0.29975     N
N      0.67064   0.5655  0.79975     N
N      0.68234   0.3573  0.12374     N
N      0.68234   0.6427  0.62374     N
C       0.6826   0.3843  0.26568     C
C       0.6826   0.6157  0.76568     C
H       0.6836   0.3911   0.3248     H
H       0.6836   0.6089   0.8248     H
H       0.6864   0.1691   0.7949     H
H       0.6864   0.8309   0.2949     H
C       0.6883   0.3912  0.16708     C
C       0.6883   0.6088  0.66708     C
H       0.6959   0.4676   0.2567     H
H       0.6959   0.5324   0.7567     H
H        0.696   0.0382   0.6981     H
H        0.696   0.9618   0.1981     H
H       0.6999   0.4018   0.1146     H
H       0.6999   0.5982   0.6146     H
H          0.7   0.3031   0.1856     H
H          0.7   0.6969   0.6856     H
C       0.7004   0.1043  0.27876     C
C       0.7004   0.8957  0.77876     C
C       0.7053   0.3335   0.6794     C
C       0.7053   0.6665   0.1794     C
H       0.7072   0.0267   0.6581     H
H       0.7072   0.9733   0.1581     H
H       0.7082     0.21   0.7637     H
H       0.7082     0.79   0.2637     H
C       0.7142   0.1692   0.7917     C
C       0.7142   0.8308   0.2917     C
C       0.7163   0.2568   0.2824     C
C       0.7163   0.7432   0.7824     C
C       0.7195   0.0501   0.6887     C
C       0.7195   0.9499   0.1887     C
C       0.7218   0.4789  0.68511     C
C       0.7218   0.5211  0.18511     C
C       0.7317   0.0098   0.7953     C
C       0.7317   0.9902   0.2953     C
C       0.7365   0.2111   0.6962     C
C       0.7365   0.7889   0.1962     C
H       0.7368   0.2301   0.8142     H
H       0.7368   0.7699   0.3142     H
H       0.7444   0.0172   0.2049     H
H       0.7444   0.9828   0.7049     H
H       0.7556   0.4828   0.7951     H
H       0.7556   0.5172   0.2951     H
H       0.7632   0.2699   0.1858     H
H       0.7632   0.7301   0.6858     H
C       0.7635   0.2889   0.3038     C
C       0.7635   0.7111   0.8038     C
C       0.7683   0.4902   0.2047     C
C       0.7683   0.5098   0.7047     C
C       0.7782   0.0211  0.31489     C
C       0.7782   0.9789  0.81489     C
C       0.7805   0.4499   0.3113     C
C       0.7805   0.5501   0.8113     C
C       0.7837   0.2432   0.7176     C
C       0.7837   0.7568   0.2176     C
C       0.7858   0.3308   0.2083     C
C       0.7858   0.6692   0.7083     C
H       0.7918     0.29   0.2363     H
H       0.7918     0.71   0.7363     H
H       0.7928   0.4733   0.3419     H
H       0.7928   0.5267   0.8419     H
C       0.7947   0.1665   0.3206     C
C       0.7947   0.8335   0.8206     C
C       0.7996   0.3957  0.72124     C
C       0.7996   0.6043  0.22124     C
H          0.8   0.1969   0.8144     H
H          0.8   0.8031   0.3144     H
H       0.8001   0.0982   0.8854     H
H       0.8001   0.9018   0.3854     H
H        0.804   0.4618   0.3019     H
H        0.804   0.5382   0.8019     H
H       0.8041   0.0324   0.7433     H
H       0.8041   0.9676   0.2433     H
C       0.8117   0.1088  0.83292     C
C       0.8117   0.8912  0.33292     C
H       0.8136   0.3309   0.2051     H
H       0.8136   0.6691   0.7051     H
H       0.8164   0.1089   0.6752     H
H       0.8164   0.8911   0.1752     H
C       0.8174   0.1157  0.73432     C
C       0.8174   0.8843  0.23432     C
N      0.81766   0.1427  0.87626     N
N      0.81766   0.8573  0.37626     N
N      0.82936   0.0655  0.70025     N
N      0.82936   0.9345  0.20025     N
H       0.8379    0.201   0.9559     H
H       0.8379    0.799   0.4559     H
H       0.8408   0.0813   0.8337     H
H       0.8408   0.9187   0.3337     H
H       0.8446   0.0672   0.1422     H
H       0.8446   0.9328   0.6422     H
H       0.8447    0.149   0.7595     H
H       0.8447    0.851   0.2595     H
C       0.8459   0.2021   0.3449     C
C       0.8459   0.7979   0.8449     C
C       0.8501   0.2426    0.904     C
H       0.8501    0.297   0.3598     H
H       0.8501    0.703   0.8598     H
C       0.8501   0.7574    0.404     C
C       0.8509   0.4254   0.7419     C
C       0.8509   0.5746   0.2419     C
C       0.8563   0.2567   0.9469     C
C       0.8563   0.7433   0.4469     C
H       0.8572   0.4933   0.2268     H
H       0.8572   0.5067   0.7268     H
H       0.8585    0.208   0.3244     H
H       0.8585    0.792   0.8244     H
C       0.8601   0.0468   0.2061     C
C       0.8601   0.9532   0.7061     C
H       0.8611   0.1236   0.3657     H
H       0.8611   0.8764   0.8657     H
H       0.8614   0.4524    0.772     H
H       0.8614   0.5476    0.272     H
C       0.8636   0.1047  0.16985     C
C       0.8636   0.8953  0.66985     C
O      0.86433   0.2939  0.02807     O
O      0.86433   0.7061  0.52807     O
O      0.86506   0.2489  0.09784     O
O      0.86506   0.7511  0.59784     O
H       0.8666   0.3359     0.74     H
H       0.8666   0.6641     0.24     H
H       0.8736   0.2776   0.0542     H
H       0.8736   0.3239   0.8625     H
H       0.8736   0.6761   0.3625     H
H       0.8736   0.7224   0.5542     H
C       0.8777   0.3296  0.89113     C
C       0.8777   0.6704  0.39113     C
H       0.8881   0.0625   0.2716     H
H       0.8881   0.9375   0.7716     H
C      0.88904   0.1021  0.24687     C
C      0.88904   0.8979  0.74687     C
C      0.88943    0.352  0.97635     C
C      0.88943    0.648  0.47635     C
C       0.8948   0.2166   0.1743     C
C       0.8948   0.7834   0.6743     C
C       0.8957   0.3645   0.0218     C
C       0.8957   0.6355   0.5218     C
C       0.8988   0.2695   0.1342     C
C       0.8988   0.7305   0.6342     C
C       0.9109    0.424  0.92032     C
C       0.9109    0.576  0.42032     C
C       0.9178    0.435  0.96308     C
C       0.9178    0.565  0.46308     C
C       0.9199   0.2182  0.25076     C
C       0.9199   0.7818  0.75076     C
C        0.924   0.2751  0.21522     C
C        0.924   0.7249  0.71522     C
O      0.92816   0.4301  0.04989     O
O      0.92816   0.5699  0.54989     O
O      0.93365   0.4975   0.3664     O
O      0.93365   0.5025   0.8664     O
O      0.93519   0.3252  0.13889     O
O      0.93519   0.6748  0.63889     O
C       0.9408   0.4885   0.4053     C
C       0.9408   0.5115   0.9053     C
H       0.9409   0.4965   0.9828     H
H       0.9409   0.5035   0.4828     H
H       0.9453   0.3497   0.2183     H
H       0.9453   0.6503   0.7183     H
C      0.94966   0.2797    0.296     C
C      0.94966   0.7203    0.796     C
O      0.95444   0.2033  0.32869     O
O      0.95444   0.7967  0.82869     O
O      0.96997   0.4071  0.30021     O
O      0.96997   0.5929  0.80021     O
O      0.97213   0.4079  0.43189     O
O      0.97213   0.5921  0.93189     O
Sm     0.99338  0.37809  0.11836    Sm
Sm     0.99338  0.62191  0.61836    Sm
