data_I
_chemical_name_common  '/home/zhangsd/repos/MofS-CGCNN/ML/data/TSD/clean_cifs/GUHPEG_clean'
_cell_length_a 32.14000
_cell_length_b  9.15600
_cell_length_c 26.86400
_cell_angle_alpha 90.00000
_cell_angle_beta  112.85900
_cell_angle_gamma 90.00000
_space_group_name_H-M_alt      'P 1'


loop_
_space_group_symop_operation_xyz
  'x, y, z' 

loop_
_atom_site_label
_atom_site_fract_x
_atom_site_fract_y
_atom_site_fract_z
_atom_site_type_symbol
C       0.0128   0.2906   0.3891     C
C       0.0128   0.7094   0.8891     C
O       0.0226    0.375   0.4293     O
O       0.0226    0.625   0.9293     O
H       0.0251   0.1667   0.2096     H
H       0.0251   0.8333   0.7096     H
C       0.0326   0.3119    0.157     C
C       0.0326   0.6881    0.657     C
O       0.0378   0.1928   0.3841     O
O       0.0378   0.8072   0.8841     O
C       0.0442   0.2384    0.206     C
C       0.0442   0.7616    0.706     C
H       0.0543   0.4696   0.1196     H
H       0.0543   0.5304   0.6196     H
C       0.0619   0.4196   0.1521     C
C       0.0619   0.5804   0.6521     C
H       0.0757   0.4479   0.4632     H
H       0.0757   0.5521   0.9632     H
O        0.077   0.0838   0.3072     O
O        0.077   0.9162   0.8072     O
C       0.0837   0.2707   0.2491     C
C       0.0837   0.7293   0.7491     C
O       0.0945   0.4864   0.9699     O
O       0.0945   0.5136   0.4699     O
C       0.0958   0.2025   0.3026     C
C       0.0958   0.7975   0.8026     C
C       0.1016   0.4522   0.1943     C
C       0.1016   0.5478   0.6943     C
Sm     0.11166  0.10511  0.40881    Sm
Sm     0.11166  0.89489  0.90881    Sm
C       0.1125   0.3803   0.2443     C
C       0.1125   0.6197   0.7443     C
H       0.1196   0.3933   0.6578     H
H       0.1196   0.6067   0.1578     H
H       0.1205     0.09   0.7263     H
H       0.1205     0.91   0.2263     H
O       0.1233   0.2634   0.3435     O
O       0.1233   0.7366   0.8435     O
N       0.1288   0.4384   0.6883     N
N       0.1288   0.5616   0.1883     N
O       0.1325   0.3414   0.4504     O
O       0.1325   0.6586   0.9504     O
C       0.1328   0.4601   0.4713     C
C       0.1328   0.5399   0.9713     C
H       0.1386   0.4053   0.2739     H
H       0.1386   0.5947   0.7739     H
H       0.1404    0.283   0.0167     H
H       0.1404    0.717   0.5167     H
C       0.1521   0.0883   0.7489     C
C       0.1521   0.9117   0.2489     C
H       0.1529   0.1689    0.177     H
H       0.1529   0.8311    0.677     H
H       0.1583   0.1594   0.7771     H
H       0.1583   0.8406   0.2771     H
H       0.1602   0.0071   0.2645     H
H       0.1602   0.9929   0.7645     H
H       0.1668   0.3645   0.7614     H
H       0.1668   0.6355   0.2614     H
C       0.1688   0.3231   0.0246     C
C       0.1688   0.6769   0.5246     C
O       0.1711   0.0331   0.8973     O
C       0.1711   0.3941    0.729     C
C       0.1711   0.6059    0.229     C
O       0.1711   0.9669   0.3973     O
C       0.1735   0.4532   0.0008     C
C       0.1735   0.5468   0.5008     C
H       0.1768    0.081   0.0745     H
H       0.1768    0.919   0.5745     H
C       0.1793   0.1239   0.7153     C
C       0.1793   0.8761   0.2153     C
C       0.1841   0.1499   0.1989     C
C       0.1841   0.8501   0.6989     C
H       0.1896   0.1681   0.2362     H
H       0.1896   0.8319   0.7362     H
C       0.1899   0.2665   0.7074     C
C       0.1899   0.7335   0.2074     C
O       0.1922   0.0857   0.4719     O
H       0.1922   0.4751   0.7381     H
H       0.1922   0.5249   0.2381     H
O       0.1922   0.9143   0.9719     O
C       0.1951   0.0099   0.6921     C
C       0.1951   0.9901   0.1921     C
C       0.2008    0.001   0.4421     C
C       0.2008    0.999   0.9421     C
N       0.2018   0.1289   0.0871     N
N       0.2018   0.8711   0.5871     N
H       0.2029   0.2127    0.188     H
H       0.2029   0.7873    0.688     H
C       0.2076   0.2523   0.0607     C
C       0.2076   0.7477   0.5607     C
H       0.2093   0.4715   0.6261     H
H       0.2093   0.5285   0.1261     H
H       0.2106   0.4783   0.1824     H
H       0.2106   0.5217   0.6824     H
C       0.2144   0.2976    0.677     C
C       0.2144   0.7024    0.177     C
C       0.2154   0.4897   0.5089     C
C       0.2154   0.5103   0.0089     C
H       0.2177   0.3478   0.3709     H
H       0.2177   0.6522   0.8709     H
H       0.2179   0.4052   0.4911     H
H       0.2179   0.5948   0.9911     H
C       0.2212   0.0438   0.6618     C
C       0.2212   0.9562   0.1618     C
C       0.2232   0.4554   0.6643     C
C       0.2232   0.5446   0.1643     C
H       0.2251   0.2295   0.9038     H
H       0.2251   0.7705   0.4038     H
C       0.2308   0.1864   0.6535     C
C       0.2308   0.8136   0.1535     C
H       0.2316    0.183   0.3738     H
H       0.2316    0.817   0.8738     H
H       0.2364   0.4535   0.8717     H
H       0.2364   0.5465   0.3717     H
H       0.2382   0.2072   0.5822     H
H       0.2382   0.7928   0.0822     H
C       0.2384   0.0805   0.1365     C
C       0.2384   0.9195   0.6365     C
C       0.2427   0.2814   0.3803     C
C       0.2427   0.7186   0.8803     C
H       0.2449   0.0285   0.3234     H
H       0.2449   0.9715   0.8234     H
C        0.246   0.0617   0.9556     C
C        0.246   0.9383   0.4556     C
H       0.2487   0.1612   0.1617     H
H       0.2487   0.8388   0.6617     H
C       0.2493   0.3139   0.0709     C
C       0.2493   0.6861   0.5709     C
C       0.2507   0.1861   0.9291     C
C       0.2507   0.8139   0.4291     C
H       0.2513   0.3388   0.8383     H
H       0.2513   0.6612   0.3383     H
C        0.254   0.4383   0.0444     C
C        0.254   0.5617   0.5444     C
H       0.2551   0.4715   0.6766     H
H       0.2551   0.5285   0.1766     H
C       0.2573   0.2186   0.6197     C
C       0.2573   0.7814   0.1197     C
C       0.2616   0.4195   0.8635     C
C       0.2616   0.5805   0.3635     C
H       0.2618   0.2928   0.4178     H
H       0.2618   0.7072   0.9178     H
H       0.2636   0.0465   0.1283     H
H       0.2636   0.9535   0.6283     H
H       0.2684    0.317   0.6262     H
H       0.2684    0.683   0.1262     H
C       0.2692   0.3136   0.3465     C
C       0.2692   0.6864   0.8465     C
H       0.2749   0.2705   0.0962     H
H       0.2749   0.7295   0.5962     H
C       0.2768   0.0446   0.3357     C
C       0.2768   0.9554   0.8357     C
C       0.2788   0.4562   0.3382     C
C       0.2788   0.5438   0.8382     C
H       0.2821   0.0948   0.5089     H
H       0.2821   0.9052   0.0089     H
H       0.2823   0.1522   0.6291     H
H       0.2823   0.8478   0.1291     H
C       0.2846   0.0103   0.4911     C
C       0.2846   0.9897   0.9911     C
C       0.2856   0.2024    0.323     C
C       0.2856   0.7976    0.823     C
H       0.2894   0.0217   0.8176     H
H       0.2894   0.9783   0.3176     H
H       0.2907   0.0285   0.3739     H
H       0.2907   0.9715   0.8739     H
C       0.2924   0.2477   0.9393     C
C       0.2924   0.7523   0.4393     C
H       0.2971   0.2873    0.812     H
H       0.2971   0.7127    0.312     H
N       0.2982   0.3711   0.9129     N
N       0.2982   0.6289   0.4129     N
C       0.2992    0.499   0.5579     C
C       0.2992    0.501   0.0579     C
C       0.3049   0.4901   0.3079     C
C       0.3049   0.5099   0.8079     C
H       0.3078   0.0249   0.2619     H
O       0.3078   0.4143   0.5281     O
O       0.3078   0.5857   0.0281     O
H       0.3078   0.9751   0.7619     H
C       0.3101   0.2335   0.2926     C
C       0.3101   0.7665   0.7926     C
H       0.3104   0.3319   0.7638     H
H       0.3104   0.6681   0.2638     H
C       0.3159   0.3501   0.8011     C
C       0.3159   0.6499   0.3011     C
C       0.3207   0.3761   0.2847     C
C       0.3207   0.6239   0.7847     C
H       0.3232    0.419   0.9255     H
H       0.3232    0.581   0.4255     H
C       0.3265   0.0468   0.9992     C
C       0.3265   0.9532   0.4992     C
C       0.3289   0.1059    0.271     C
O       0.3289   0.4669   0.1027     O
O       0.3289   0.5331   0.6027     O
C       0.3289   0.8941    0.771     C
C       0.3312   0.1769   0.9754     C
C       0.3312   0.8231   0.4754     C
H       0.3332   0.1355   0.2386     H
H       0.3332   0.8645   0.7386     H
H       0.3398   0.4929   0.7355     H
H       0.3398   0.5071   0.2355     H
H       0.3417   0.3406   0.2229     H
H       0.3417   0.6594   0.7229     H
H       0.3471   0.3311    0.823     H
H       0.3471   0.6689    0.323     H
C       0.3479   0.4117   0.2511     C
C       0.3479   0.5883   0.7511     C
H       0.3596    0.217   0.9833     H
H       0.3596    0.783   0.4833     H
H       0.3614   0.0947   0.7261     H
H       0.3614   0.9053   0.2261     H
C       0.3672   0.0399   0.5287     C
C       0.3672   0.9601   0.0287     C
O       0.3675   0.1586   0.5496     O
O       0.3675   0.8414   0.0496     O
N       0.3712   0.0616   0.3117     N
N       0.3712   0.9384   0.8117     N
O       0.3767   0.2366   0.6565     O
O       0.3767   0.7634   0.1565     O
H       0.3795     0.41   0.2737     H
H       0.3795     0.59   0.7737     H
H       0.3804   0.1067   0.3422     H
H       0.3804   0.8933   0.8422     H
C       0.3875   0.1197   0.7557     C
C       0.3875   0.8803   0.2557     C
Sm     0.38834  0.39489  0.59119    Sm
Sm     0.38834  0.60511  0.09119    Sm
C       0.3984   0.0478   0.8057     C
C       0.3984   0.9522   0.3057     C
C       0.4042   0.2975   0.6974     C
C       0.4042   0.7025   0.1974     C
O       0.4055   0.0136   0.0301     O
O       0.4055   0.9864   0.5301     O
C       0.4163   0.2293   0.7509     C
C       0.4163   0.7707   0.2509     C
O        0.423   0.4162   0.6928     O
O        0.423   0.5838   0.1928     O
H       0.4243   0.0521   0.5368     H
H       0.4243   0.9479   0.0368     H
C       0.4381   0.0804   0.8479     C
C       0.4381   0.9196   0.3479     C
H       0.4457   0.0304   0.8804     H
H       0.4457   0.9696   0.3804     H
C       0.4558   0.2616    0.794     C
C       0.4558   0.7384    0.294     C
O       0.4622   0.3072   0.6159     O
O       0.4622   0.6928   0.1159     O
C       0.4674   0.1881    0.843     C
C       0.4674   0.8119    0.343     C
H       0.4749   0.3333   0.7904     H
H       0.4749   0.6667   0.2904     H
O       0.4774    0.125   0.5707     O
O       0.4774    0.875   0.0707     O
C       0.4872   0.2094   0.6109     C
C       0.4872   0.7906   0.1109     C
C       0.5128   0.2094   0.8891     C
C       0.5128   0.7906   0.3891     C
O       0.5226    0.125   0.9293     O
O       0.5226    0.875   0.4293     O
H       0.5251   0.3333   0.7096     H
H       0.5251   0.6667   0.2096     H
C       0.5326   0.1881    0.657     C
C       0.5326   0.8119    0.157     C
O       0.5378   0.3072   0.8841     O
O       0.5378   0.6928   0.3841     O
C       0.5442   0.2616    0.706     C
C       0.5442   0.7384    0.206     C
H       0.5543   0.0304   0.6196     H
H       0.5543   0.9696   0.1196     H
C       0.5619   0.0804   0.6521     C
C       0.5619   0.9196   0.1521     C
H       0.5757   0.0521   0.9632     H
H       0.5757   0.9479   0.4632     H
O        0.577   0.4162   0.8072     O
O        0.577   0.5838   0.3072     O
C       0.5837   0.2293   0.7491     C
C       0.5837   0.7707   0.2491     C
O       0.5945   0.0136   0.4699     O
O       0.5945   0.9864   0.9699     O
C       0.5958   0.2975   0.8026     C
C       0.5958   0.7025   0.3026     C
C       0.6016   0.0478   0.6943     C
C       0.6016   0.9522   0.1943     C
Sm     0.61166  0.39489  0.90881    Sm
Sm     0.61166  0.60511  0.40881    Sm
C       0.6125   0.1197   0.7443     C
C       0.6125   0.8803   0.2443     C
H       0.6196   0.1067   0.1578     H
H       0.6196   0.8933   0.6578     H
H       0.6205     0.41   0.2263     H
H       0.6205     0.59   0.7263     H
O       0.6233   0.2366   0.8435     O
O       0.6233   0.7634   0.3435     O
N       0.6288   0.0616   0.1883     N
N       0.6288   0.9384   0.6883     N
O       0.6325   0.1586   0.9504     O
O       0.6325   0.8414   0.4504     O
C       0.6328   0.0399   0.9713     C
C       0.6328   0.9601   0.4713     C
H       0.6386   0.0947   0.7739     H
H       0.6386   0.9053   0.2739     H
H       0.6404    0.217   0.5167     H
H       0.6404    0.783   0.0167     H
C       0.6521   0.4117   0.2489     C
C       0.6521   0.5883   0.7489     C
H       0.6529   0.3311    0.677     H
H       0.6529   0.6689    0.177     H
H       0.6583   0.3406   0.2771     H
H       0.6583   0.6594   0.7771     H
H       0.6602   0.4929   0.7645     H
H       0.6602   0.5071   0.2645     H
H       0.6668   0.1355   0.2614     H
H       0.6668   0.8645   0.7614     H
C       0.6688   0.1769   0.5246     C
C       0.6688   0.8231   0.0246     C
C       0.6711   0.1059    0.229     C
O       0.6711   0.4669   0.3973     O
O       0.6711   0.5331   0.8973     O
C       0.6711   0.8941    0.729     C
C       0.6735   0.0468   0.5008     C
C       0.6735   0.9532   0.0008     C
H       0.6768    0.419   0.5745     H
H       0.6768    0.581   0.0745     H
C       0.6793   0.3761   0.2153     C
C       0.6793   0.6239   0.7153     C
C       0.6841   0.3501   0.6989     C
C       0.6841   0.6499   0.1989     C
H       0.6896   0.3319   0.7362     H
H       0.6896   0.6681   0.2362     H
C       0.6899   0.2335   0.2074     C
C       0.6899   0.7665   0.7074     C
H       0.6922   0.0249   0.2381     H
O       0.6922   0.4143   0.9719     O
O       0.6922   0.5857   0.4719     O
H       0.6922   0.9751   0.7381     H
C       0.6951   0.4901   0.1921     C
C       0.6951   0.5099   0.6921     C
C       0.7008    0.499   0.9421     C
C       0.7008    0.501   0.4421     C
N       0.7018   0.3711   0.5871     N
N       0.7018   0.6289   0.0871     N
H       0.7029   0.2873    0.688     H
H       0.7029   0.7127    0.188     H
C       0.7076   0.2477   0.5607     C
C       0.7076   0.7523   0.0607     C
H       0.7093   0.0285   0.1261     H
H       0.7093   0.9715   0.6261     H
H       0.7106   0.0217   0.6824     H
H       0.7106   0.9783   0.1824     H
C       0.7144   0.2024    0.177     C
C       0.7144   0.7976    0.677     C
C       0.7154   0.0103   0.0089     C
C       0.7154   0.9897   0.5089     C
H       0.7177   0.1522   0.8709     H
H       0.7177   0.8478   0.3709     H
H       0.7179   0.0948   0.9911     H
H       0.7179   0.9052   0.4911     H
C       0.7212   0.4562   0.1618     C
C       0.7212   0.5438   0.6618     C
C       0.7232   0.0446   0.1643     C
C       0.7232   0.9554   0.6643     C
H       0.7251   0.2705   0.4038     H
H       0.7251   0.7295   0.9038     H
C       0.7308   0.3136   0.1535     C
C       0.7308   0.6864   0.6535     C
H       0.7316    0.317   0.8738     H
H       0.7316    0.683   0.3738     H
H       0.7364   0.0465   0.3717     H
H       0.7364   0.9535   0.8717     H
H       0.7382   0.2928   0.0822     H
H       0.7382   0.7072   0.5822     H
C       0.7384   0.4195   0.6365     C
C       0.7384   0.5805   0.1365     C
C       0.7427   0.2186   0.8803     C
C       0.7427   0.7814   0.3803     C
H       0.7449   0.4715   0.8234     H
H       0.7449   0.5285   0.3234     H
C        0.746   0.4383   0.4556     C
C        0.746   0.5617   0.9556     C
H       0.7487   0.3388   0.6617     H
H       0.7487   0.6612   0.1617     H
C       0.7493   0.1861   0.5709     C
C       0.7493   0.8139   0.0709     C
C       0.7507   0.3139   0.4291     C
C       0.7507   0.6861   0.9291     C
H       0.7513   0.1612   0.3383     H
H       0.7513   0.8388   0.8383     H
C        0.754   0.0617   0.5444     C
C        0.754   0.9383   0.0444     C
H       0.7551   0.0285   0.1766     H
H       0.7551   0.9715   0.6766     H
C       0.7573   0.2814   0.1197     C
C       0.7573   0.7186   0.6197     C
C       0.7616   0.0805   0.3635     C
C       0.7616   0.9195   0.8635     C
H       0.7618   0.2072   0.9178     H
H       0.7618   0.7928   0.4178     H
H       0.7636   0.4535   0.6283     H
H       0.7636   0.5465   0.1283     H
H       0.7684    0.183   0.1262     H
H       0.7684    0.817   0.6262     H
C       0.7692   0.1864   0.8465     C
C       0.7692   0.8136   0.3465     C
H       0.7749   0.2295   0.5962     H
H       0.7749   0.7705   0.0962     H
C       0.7768   0.4554   0.8357     C
C       0.7768   0.5446   0.3357     C
C       0.7788   0.0438   0.8382     C
C       0.7788   0.9562   0.3382     C
H       0.7821   0.4052   0.0089     H
H       0.7821   0.5948   0.5089     H
H       0.7823   0.3478   0.1291     H
H       0.7823   0.6522   0.6291     H
C       0.7846   0.4897   0.9911     C
C       0.7846   0.5103   0.4911     C
C       0.7856   0.2976    0.823     C
C       0.7856   0.7024    0.323     C
H       0.7894   0.4783   0.3176     H
H       0.7894   0.5217   0.8176     H
H       0.7907   0.4715   0.8739     H
H       0.7907   0.5285   0.3739     H
C       0.7924   0.2523   0.4393     C
C       0.7924   0.7477   0.9393     C
H       0.7971   0.2127    0.312     H
H       0.7971   0.7873    0.812     H
N       0.7982   0.1289   0.4129     N
N       0.7982   0.8711   0.9129     N
C       0.7992    0.001   0.0579     C
C       0.7992    0.999   0.5579     C
C       0.8049   0.0099   0.8079     C
C       0.8049   0.9901   0.3079     C
O       0.8078   0.0857   0.0281     O
H       0.8078   0.4751   0.7619     H
H       0.8078   0.5249   0.2619     H
O       0.8078   0.9143   0.5281     O
C       0.8101   0.2665   0.7926     C
C       0.8101   0.7335   0.2926     C
H       0.8104   0.1681   0.2638     H
H       0.8104   0.8319   0.7638     H
C       0.8159   0.1499   0.3011     C
C       0.8159   0.8501   0.8011     C
C       0.8207   0.1239   0.7847     C
C       0.8207   0.8761   0.2847     C
H       0.8232    0.081   0.4255     H
H       0.8232    0.919   0.9255     H
C       0.8265   0.4532   0.4992     C
C       0.8265   0.5468   0.9992     C
O       0.8289   0.0331   0.6027     O
C       0.8289   0.3941    0.771     C
C       0.8289   0.6059    0.271     C
O       0.8289   0.9669   0.1027     O
C       0.8312   0.3231   0.4754     C
C       0.8312   0.6769   0.9754     C
H       0.8332   0.3645   0.7386     H
H       0.8332   0.6355   0.2386     H
H       0.8398   0.0071   0.2355     H
H       0.8398   0.9929   0.7355     H
H       0.8417   0.1594   0.7229     H
H       0.8417   0.8406   0.2229     H
H       0.8471   0.1689    0.323     H
H       0.8471   0.8311    0.823     H
C       0.8479   0.0883   0.7511     C
C       0.8479   0.9117   0.2511     C
H       0.8596    0.283   0.4833     H
H       0.8596    0.717   0.9833     H
H       0.8614   0.4053   0.2261     H
H       0.8614   0.5947   0.7261     H
C       0.8672   0.4601   0.0287     C
C       0.8672   0.5399   0.5287     C
O       0.8675   0.3414   0.0496     O
O       0.8675   0.6586   0.5496     O
N       0.8712   0.4384   0.8117     N
N       0.8712   0.5616   0.3117     N
O       0.8767   0.2634   0.1565     O
O       0.8767   0.7366   0.6565     O
H       0.8795     0.09   0.7737     H
H       0.8795     0.91   0.2737     H
H       0.8804   0.3933   0.8422     H
H       0.8804   0.6067   0.3422     H
C       0.8875   0.3803   0.2557     C
C       0.8875   0.6197   0.7557     C
Sm     0.88834  0.10511  0.09119    Sm
Sm     0.88834  0.89489  0.59119    Sm
C       0.8984   0.4522   0.3057     C
C       0.8984   0.5478   0.8057     C
C       0.9042   0.2025   0.1974     C
C       0.9042   0.7975   0.6974     C
O       0.9055   0.4864   0.5301     O
O       0.9055   0.5136   0.0301     O
C       0.9163   0.2707   0.2509     C
C       0.9163   0.7293   0.7509     C
O        0.923   0.0838   0.1928     O
O        0.923   0.9162   0.6928     O
H       0.9243   0.4479   0.0368     H
H       0.9243   0.5521   0.5368     H
C       0.9381   0.4196   0.3479     C
C       0.9381   0.5804   0.8479     C
H       0.9457   0.4696   0.3804     H
H       0.9457   0.5304   0.8804     H
C       0.9558   0.2384    0.294     C
C       0.9558   0.7616    0.794     C
O       0.9622   0.1928   0.1159     O
O       0.9622   0.8072   0.6159     O
C       0.9674   0.3119    0.343     C
C       0.9674   0.6881    0.843     C
H       0.9749   0.1667   0.2904     H
H       0.9749   0.8333   0.7904     H
O       0.9774    0.375   0.0707     O
O       0.9774    0.625   0.5707     O
C       0.9872   0.2906   0.1109     C
C       0.9872   0.7094   0.6109     C
