data_I
_chemical_name_common  '/home/zhangsd/repos/MofS-CGCNN/ML/data/TSD/clean_cifs/GULWOA_clean'
_cell_length_a 12.53000
_cell_length_b 16.13040
_cell_length_c 20.89280
_cell_angle_alpha 67.39710
_cell_angle_beta  72.55060
_cell_angle_gamma 67.14520
_space_group_name_H-M_alt      'P 1'


loop_
_space_group_symop_operation_xyz
  'x, y, z' 

loop_
_atom_site_label
_atom_site_fract_x
_atom_site_fract_y
_atom_site_fract_z
_atom_site_type_symbol
N       0.0156   0.7117   0.8051     N
N       0.0319   0.6448   0.8666     N
N       0.0419    0.057   0.3352     N
Cl     0.04254   0.7386  0.63232    Cl
H       0.0646   0.0156    0.519     H
N        0.074   0.9628   0.3716     N
H       0.1038   0.4748   0.9616     H
N       0.1099   0.7411   0.7767     N
H       0.1278    0.799   0.4586     H
H        0.132    0.128    0.426     H
Cd     0.13267  0.24016  0.26034    Cd
N       0.1389    0.082   0.3024     N
Cl     0.14433   0.4094  0.21754    Cl
C        0.145   0.6321   0.8745     C
C       0.1466   0.0075   0.5079     C
Cd     0.14792   0.8356  0.65466    Cd
C        0.164   0.4856   0.9732     C
C       0.1864   0.0748   0.4516     C
H       0.1883   0.3683   0.0593     H
N       0.1903   0.6945   0.8181     N
C       0.1919   0.9374   0.3574     C
C       0.1976    0.565   0.9322     C
C       0.2107   0.7799   0.4439     C
C       0.2159   0.4208   0.0312     C
N       0.2163   0.9318   0.5476     N
Cl     0.22873   0.9094  0.71754    Cl
N       0.2342   0.0074   0.3152     N
H       0.2423   0.6454    0.513     H
C       0.2628   0.8403   0.3917     C
C       0.2804   0.6875   0.4767     C
C       0.2872   0.5748   0.9516     C
Cl     0.29551   0.2033  0.15068    Cl
N       0.2971   0.1945   0.3181     N
N       0.3043   0.4318   0.0476     N
C       0.3052    0.065   0.4322     C
H        0.314    0.628    0.926     H
C       0.3321   0.9208   0.5312     C
C        0.338   0.5075   0.0079     C
C       0.3484   0.1321   0.3745     C
Cl     0.35051   0.7033  0.65068    Cl
Cd     0.36182   0.3356  0.15466    Cd
Cd     0.36683  0.74016  0.76034    Cd
N       0.3723   0.2411   0.2767     N
C       0.3772   0.9856   0.4732     C
H       0.3786   0.1993   0.8951     H
H       0.3795   0.3528   0.8432     H
C       0.3834   0.8107   0.3763     C
H       0.3841   0.8683   0.5593     H
H       0.3854    0.701   0.0414     H
N       0.3995   0.6566   0.4584     N
H       0.4007   0.8546    0.987     H
H       0.4008   0.5156    0.019     H
N       0.4084   0.5372   0.1284     N
Cl     0.41346   0.7614  0.86768    Cl
H       0.4245   0.8528   0.3432     H
C       0.4276   0.2188   0.9096     C
C       0.4296   0.3107   0.8763     C
N       0.4341    0.443   0.1648     N
C       0.4345   0.7201   0.0561     C
N       0.4432   0.5074   0.8152     N
C        0.444   0.7188   0.4096     C
C       0.4446   0.8125   0.0233     C
N       0.4567   0.1448   0.3666     N
H       0.4598   0.9748   0.4616     H
N       0.4676   0.2117   0.3051     N
H        0.473   0.3007   0.6049     H
N       0.4767    0.582   0.8024     N
N       0.4855   0.1566   0.9584     N
C       0.4867   0.5626   0.1426     C
C       0.4948   0.6597   0.1083     C
Cd         0.5     -0.0     -0.0    Cd
Cd         0.5      0.5      0.5    Cd
C       0.5052   0.3403   0.8917     C
C       0.5133   0.4374   0.8574     C
N       0.5145   0.8434   0.0416     N
N       0.5233    0.418   0.1976     N
H        0.527   0.6993   0.3951     H
N       0.5324   0.7883   0.6949     N
H       0.5402   0.0252   0.5384     H
N       0.5433   0.8552   0.6334     N
C       0.5554   0.1875   0.9767     C
C        0.556   0.2812   0.5904     C
N       0.5568   0.4926   0.1848     N
C       0.5655   0.2799   0.9439     C
N       0.5659    0.557   0.8352     N
C       0.5704   0.6893   0.1237     C
C       0.5724   0.7812   0.0904     C
H       0.5755   0.1472   0.6568     H
Cl     0.58654   0.2386  0.13232    Cl
N       0.5916   0.4628   0.8716     N
H       0.5992   0.4844    0.981     H
H       0.5993   0.1454    0.013     H
N       0.6005   0.3434   0.5416     N
H       0.6146    0.299   0.9586     H
H       0.6159   0.1317   0.4407     H
C       0.6166   0.1893   0.6237     C
H       0.6205   0.6472   0.1568     H
H       0.6214   0.8007   0.1049     H
C       0.6228   0.0144   0.5268     C
N       0.6277   0.7589   0.7233     N
Cd     0.63317  0.25984  0.23966    Cd
Cd     0.63818   0.6644  0.84534    Cd
Cl     0.64949   0.2967  0.34932    Cl
C       0.6516   0.8679   0.6255     C
C        0.662   0.4925   0.9921     C
C       0.6679   0.0792   0.4688     C
H        0.686    0.372    0.074     H
C       0.6948    0.935   0.5678     C
N       0.6957   0.5682   0.9524     N
N       0.7029   0.8055   0.6819     N
Cl     0.70449   0.7967  0.84932    Cl
C       0.7128   0.4252   0.0484     C
C       0.7196   0.3125   0.5233     C
C       0.7372   0.1597   0.6083     C
H       0.7577   0.3546    0.487     H
N       0.7658   0.9926   0.6848     N
Cl     0.77127   0.0906  0.28246    Cl
N       0.7837   0.0682   0.4524     N
C       0.7841   0.5792   0.9688     C
C       0.7893   0.2201   0.5561     C
C       0.8024    0.435   0.0678     C
C       0.8081   0.0626   0.6426     C
N       0.8097   0.3055   0.1819     N
H       0.8117   0.6317   0.9407     H
C       0.8136   0.9252   0.5484     C
C        0.836   0.5144   0.0268     C
Cd     0.85208   0.1644  0.34534    Cd
C       0.8534   0.9925   0.4921     C
C        0.855   0.3679   0.1255     C
Cl     0.85567   0.5906  0.78246    Cl
N       0.8611    0.918   0.6976     N
Cd     0.86733  0.75984  0.73966    Cd
H        0.868    0.872    0.574     H
H       0.8722    0.201   0.5414     H
N       0.8901   0.2589   0.2233     N
H       0.8962   0.5252   0.0384     H
N        0.926   0.0372   0.6284     N
H       0.9354   0.9844    0.481     H
Cl     0.95746   0.2614  0.36768    Cl
N       0.9581    0.943   0.6648     N
N       0.9681   0.3552   0.1334     N
N       0.9844   0.2883   0.1949     N
