data_I
_chemical_name_common  '/home/zhangsd/repos/MofS-CGCNN/ML/data/TSD/clean_cifs/HADXIW_clean'
_cell_length_a  6.88500
_cell_length_b  8.52290
_cell_length_c 11.38400
_cell_angle_alpha 95.41100
_cell_angle_beta  90.80000
_cell_angle_gamma 108.87000
_space_group_name_H-M_alt      'P 1'


loop_
_space_group_symop_operation_xyz
  'x, y, z' 

loop_
_atom_site_label
_atom_site_fract_x
_atom_site_fract_y
_atom_site_fract_z
_atom_site_type_symbol
Co         0.0      0.5      0.0    Co
O       0.0247   0.5313  0.81941     O
O       0.0282   0.9096   0.6533     O
C       0.0471   0.4685   0.3839     C
C       0.0694   0.6624   0.5558     C
C       0.0838   0.4312   0.2548     C
C       0.1164   0.6316   0.4391     C
C       0.1525   0.8338   0.6236     C
O       0.2085   0.3549  0.22965     O
C       0.2404   0.7709   0.3712     C
O       0.2409   0.9164   0.4105     O
O       0.3292   0.7366  0.28419     O
O       0.3388   0.8876   0.6566     O
U      0.34297  0.16988  0.32921     U
U      0.65703  0.83012  0.67079     U
O       0.6612   0.1124   0.3434     O
O       0.6708   0.2634  0.71581     O
O       0.7591   0.0836   0.5895     O
C       0.7596   0.2291   0.6288     C
O       0.7915   0.6451  0.77035     O
C       0.8475   0.1662   0.3764     C
C       0.8836   0.3684   0.5609     C
C       0.9162   0.5688   0.7452     C
C       0.9306   0.3376   0.4442     C
C       0.9529   0.5315   0.6161     C
O       0.9718   0.0904   0.3467     O
O       0.9753   0.4687  0.18059     O
