data_I
_chemical_name_common  '/home/zhangsd/repos/MofS-CGCNN/ML/data/TSD/clean_cifs/HAPGIR_clean'
_cell_length_a 14.20800
_cell_length_b 14.09500
_cell_length_c 15.11700
_cell_angle_alpha 90.00000
_cell_angle_beta  105.31000
_cell_angle_gamma 90.00000
_space_group_name_H-M_alt      'P 1'


loop_
_space_group_symop_operation_xyz
  'x, y, z' 

loop_
_atom_site_label
_atom_site_fract_x
_atom_site_fract_y
_atom_site_fract_z
_atom_site_type_symbol
Mn         0.0      0.0      0.0    Mn
Mn         0.0      0.5      0.5    Mn
C       0.0054   0.1357   0.8213     C
C       0.0054   0.3643   0.3213     C
O       0.0128   0.6339   0.4356     O
O       0.0128   0.8661   0.9356     O
C       0.0437   0.7367   0.3221     C
C       0.0437   0.7633   0.8221     C
N       0.0506   0.0761   0.8898     N
N       0.0506   0.4239   0.3898     N
C       0.0533   0.2361   0.7078     C
C       0.0533   0.2639   0.2078     C
C       0.0753    0.663    0.396     C
C       0.0753    0.837    0.896     C
C       0.0774   0.1715   0.7814     C
C       0.0774   0.3285   0.2814     C
C       0.0924   0.6633   0.7097     C
C       0.0924   0.8367   0.2097     C
H       0.1012   0.2401   0.1801     H
H       0.1012   0.2599   0.6801     H
C       0.1153   0.7275   0.7806     C
C       0.1153   0.7725   0.2806     C
H       0.1408   0.6388    0.683     H
H       0.1408   0.8612    0.183     H
N       0.1452   0.0758   0.8913     N
N       0.1452   0.4242   0.3913     N
O       0.1591   0.5022   0.5771     O
O       0.1591   0.9978   0.0771     O
O       0.1627   0.6353    0.412     O
O       0.1627   0.8647    0.912     O
N       0.1649   0.1326   0.8284     N
N       0.1649   0.3674   0.3284     N
H       0.1655   0.0757   0.1829     H
H       0.1655   0.4243   0.6829     H
H       0.1808   0.7486   0.8025     H
H       0.1808   0.7514   0.3025     H
C        0.198   0.0606   0.1373     C
C        0.198   0.4394   0.6373     C
H       0.2022   0.7482   0.0728     H
H       0.2022   0.7518   0.5728     H
H       0.2301   0.6175   0.1703     H
H       0.2301   0.8825   0.6703     H
Mn     0.24797  0.52415  0.48343    Mn
Mn     0.24797  0.97585  0.98343    Mn
C       0.2656   0.7346   0.1106     C
C       0.2656   0.7654   0.6106     C
O       0.2744   0.1024   0.1397     O
O       0.2744   0.3976   0.6397     O
C       0.2824   0.6592   0.1695     C
C       0.2824   0.8408   0.6695     C
Mn     0.33025  0.14504  0.84044    Mn
Mn     0.33025  0.35496  0.34044    Mn
O       0.3324   0.0083   0.7785     O
O       0.3324   0.4917   0.2785     O
C       0.3465   0.7093   0.6089     C
C       0.3465   0.7907   0.1089     C
N       0.3537   0.6305   0.5581     N
N       0.3537   0.8695   0.0581     N
H        0.356    0.106    0.019     H
H        0.356    0.394    0.519     H
O       0.3589   0.0728   0.9729     O
O       0.3589   0.4272   0.4729     O
C       0.3764   0.6414   0.2298     C
C       0.3764   0.8586   0.7298     C
C       0.3867   0.5636      0.3     C
C       0.3867   0.9364      0.8     C
C       0.4402   0.7302   0.6632     C
C       0.4402   0.7698   0.1632     C
N       0.4481   0.6082   0.5797     N
N       0.4481   0.8918   0.0797     N
O       0.4492   0.5784   0.3754     O
O       0.4492   0.9216   0.8754     O
C       0.4566   0.6956   0.2271     C
C       0.4566   0.8044   0.7271     C
H       0.4805   0.1833   0.2336     H
H       0.4805   0.3167   0.7336     H
N       0.4966   0.1655   0.8585     N
N       0.4966   0.3345   0.3585     N
Mn         0.5      0.0      0.0    Mn
Mn         0.5      0.5      0.5    Mn
N       0.5034   0.6655   0.6415     N
N       0.5034   0.8345   0.1415     N
H       0.5195   0.6833   0.2664     H
H       0.5195   0.8167   0.7664     H
C       0.5434   0.1956   0.2729     C
C       0.5434   0.3044   0.7729     C
O       0.5508   0.0784   0.1246     O
O       0.5508   0.4216   0.6246     O
N       0.5519   0.1082   0.9203     N
N       0.5519   0.3918   0.4203     N
C       0.5598   0.2302   0.8368     C
C       0.5598   0.2698   0.3368     C
C       0.6133   0.0636      0.2     C
C       0.6133   0.4364      0.7     C
C       0.6236   0.1414   0.2702     C
C       0.6236   0.3586   0.7702     C
O       0.6411   0.5728   0.5271     O
O       0.6411   0.9272   0.0271     O
H        0.644    0.606    0.481     H
H        0.644    0.894    0.981     H
N       0.6463   0.1305   0.9419     N
N       0.6463   0.3695   0.4419     N
C       0.6535   0.2093   0.8911     C
C       0.6535   0.2907   0.3911     C
O       0.6676   0.5083   0.7215     O
O       0.6676   0.9917   0.2215     O
Mn     0.66975  0.64504  0.65956    Mn
Mn     0.66975  0.85496  0.15956    Mn
C       0.7176   0.1592   0.3305     C
C       0.7176   0.3408   0.8305     C
O       0.7256   0.6024   0.3603     O
O       0.7256   0.8976   0.8603     O
C       0.7344   0.2346   0.3894     C
C       0.7344   0.2654   0.8894     C
Mn     0.75203  0.02415  0.01657    Mn
Mn     0.75203  0.47585  0.51657    Mn
H       0.7699   0.1175   0.3297     H
H       0.7699   0.3825   0.8297     H
H       0.7978   0.2482   0.4272     H
H       0.7978   0.2518   0.9272     H
C        0.802   0.5606   0.3627     C
C        0.802   0.9394   0.8627     C
H       0.8192   0.2486   0.6975     H
H       0.8192   0.2514   0.1975     H
H       0.8345   0.5757   0.3171     H
H       0.8345   0.9243   0.8171     H
N       0.8351   0.6326   0.6716     N
N       0.8351   0.8674   0.1716     N
O       0.8373   0.1353    0.088     O
O       0.8373   0.3647    0.588     O
O       0.8409   0.0022   0.9229     O
O       0.8409   0.4978   0.4229     O
N       0.8548   0.5758   0.6087     N
N       0.8548   0.9242   0.1087     N
H       0.8592   0.1388    0.817     H
H       0.8592   0.3612    0.317     H
C       0.8847   0.2275   0.7194     C
C       0.8847   0.2725   0.2194     C
H       0.8988   0.7401   0.3199     H
H       0.8988   0.7599   0.8199     H
C       0.9076   0.1633   0.7903     C
C       0.9076   0.3367   0.2903     C
C       0.9226   0.6715   0.7186     C
C       0.9226   0.8285   0.2186     C
C       0.9247    0.163    0.104     C
C       0.9247    0.337    0.604     C
C       0.9467   0.7361   0.7922     C
C       0.9467   0.7639   0.2922     C
N       0.9494   0.5761   0.6102     N
N       0.9494   0.9239   0.1102     N
C       0.9563   0.2367   0.1779     C
C       0.9563   0.2633   0.6779     C
O       0.9872   0.1339   0.0644     O
O       0.9872   0.3661   0.5644     O
C       0.9946   0.6357   0.6787     C
C       0.9946   0.8643   0.1787     C
