data_I
_chemical_name_common  '/home/zhangsd/repos/MofS-CGCNN/ML/data/TSD/clean_cifs/HASMIZ_clean'
_cell_length_a 11.37370
_cell_length_b 17.60130
_cell_length_c 17.90580
_cell_angle_alpha 90.00000
_cell_angle_beta  90.00000
_cell_angle_gamma 99.23400
_space_group_name_H-M_alt      'P 1'


loop_
_space_group_symop_operation_xyz
  'x, y, z' 

loop_
_atom_site_label
_atom_site_fract_x
_atom_site_fract_y
_atom_site_fract_z
_atom_site_type_symbol
H       0.0015   0.2191   0.0188     H
H       0.0015   0.7191   0.4812     H
H       0.0027   0.3364   0.1735     H
H       0.0027   0.8364   0.3265     H
C       0.0029   0.2738   0.6333     C
C       0.0029   0.7738   0.8667     C
N        0.004   0.2482   0.5552     N
N        0.004   0.7482   0.9448     N
C       0.0049   0.2844   0.1869     C
C       0.0049   0.7844   0.3131     C
C       0.0074   0.1531   0.1513     C
C       0.0074   0.6531   0.3487     C
O       0.0111   0.3034   0.3888     O
O       0.0111   0.8034   0.1112     O
H       0.0113   0.2002   0.5449     H
H       0.0113   0.7002   0.9551     H
C       0.0154   0.0963   0.0855     C
C       0.0154   0.5963   0.4145     C
C       0.0162   0.2627   0.2606     C
C       0.0162   0.7627   0.2394     C
C       0.0192   0.3268    0.323     C
C       0.0192   0.8268    0.177     C
O       0.0318   0.3955   0.3027     O
O       0.0318   0.8955   0.1973     O
C       0.0328   0.1351   0.2248     C
C       0.0328   0.6351   0.2752     C
O       0.0334   0.3938   0.5293     O
O       0.0334   0.8938   0.9707     O
Co     0.03434  0.42439  0.42205    Co
Co     0.03434  0.92439  0.07795    Co
C       0.0347    0.189   0.2796     C
C       0.0347    0.689   0.2204     C
H       0.0486   0.1764   0.3301     H
H       0.0486   0.6764   0.1699     H
H       0.0533    0.099   0.2453     H
H       0.0533    0.599   0.2547     H
O       0.0625   0.0359   0.1045     O
O       0.0625   0.5359   0.3955     O
H       0.1524   0.4996    0.661     H
H       0.1524   0.9996    0.839     H
N       0.1592   0.0781   0.9178     N
N       0.1592   0.5781   0.5822     N
H       0.1946   0.1575   0.0004     H
H       0.1946   0.6575   0.4996     H
C       0.2032   0.0324   0.8718     C
C       0.2032   0.5324   0.6282     C
H       0.2208   0.3372   0.4934     H
H       0.2208   0.8372   0.0066     H
N       0.2237   0.4267   0.4236     N
N       0.2237   0.9267   0.0764     N
C       0.2284   0.1243   0.9678     C
C       0.2284   0.6243   0.5322     C
H       0.2693   0.0175   0.1464     H
H       0.2693   0.5175   0.3536     H
C       0.2715   0.3738   0.4642     C
C       0.2715   0.8738   0.0358     C
C       0.3009   0.4798   0.3819     C
C       0.3009   0.9798   0.1181     C
C       0.3249   0.0324   0.8715     C
C       0.3249   0.5324   0.6285     C
C       0.3495   0.1209   0.9692     C
C       0.3495   0.6209   0.5308     C
H       0.3551   0.0007   0.8356     H
H       0.3551   0.5007   0.6644     H
C       0.3905   0.3727   0.4636     C
C       0.3905   0.8727   0.0364     C
H       0.3964   0.1512   0.0057     H
H       0.3964   0.6512   0.4943     H
C       0.4088    0.076   0.9206     C
C       0.4088    0.576   0.5794     C
C        0.421   0.4792   0.3805     C
C        0.421   0.9792   0.1195     C
H       0.4211   0.3349   0.4923     H
H       0.4211   0.8349   0.0077     H
C       0.4698   0.4258    0.422     C
C       0.4698   0.9258    0.078     C
H       0.4712   0.0157   0.1491     H
H       0.4712   0.5157   0.3509     H
H       0.5288   0.4843   0.6491     H
H       0.5288   0.9843   0.8509     H
C       0.5302   0.0742    0.922     C
C       0.5302   0.5742    0.578     C
H       0.5789   0.1651   0.9923     H
H       0.5789   0.6651   0.5077     H
C        0.579   0.0208   0.8805     C
C        0.579   0.5208   0.6195     C
C       0.5912    0.424   0.4206     C
C       0.5912    0.924   0.0794     C
H       0.6036   0.3488   0.5057     H
H       0.6036   0.8488   0.9943     H
C       0.6095   0.1273   0.9636     C
C       0.6095   0.6273   0.5364     C
H       0.6449   0.4993   0.3356     H
H       0.6449   0.9993   0.1644     H
C       0.6505   0.3791   0.4692     C
C       0.6505   0.8791   0.0308     C
C       0.6751   0.4676   0.3715     C
C       0.6751   0.9676   0.1285     C
C       0.6991   0.0202   0.8819     C
C       0.6991   0.5202   0.6181     C
C       0.7285   0.1262   0.9642     C
C       0.7285   0.6262   0.5358     C
H       0.7307   0.4825   0.6464     H
H       0.7307   0.9825   0.8536     H
C       0.7716   0.3757   0.4678     C
C       0.7716   0.8757   0.0322     C
N       0.7763   0.0733   0.9236     N
N       0.7763   0.5733   0.5764     N
H       0.7792   0.1628   0.9934     H
H       0.7792   0.6628   0.5066     H
C       0.7968   0.4676   0.3718     C
C       0.7968   0.9676   0.1282     C
H       0.8054   0.3425   0.5004     H
H       0.8054   0.8425   0.9996     H
N       0.8408   0.4219   0.4178     N
N       0.8408   0.9219   0.0822     N
H       0.8476   0.0004    0.161     H
H       0.8476   0.5004    0.339     H
O       0.9375   0.4641   0.6045     O
O       0.9375   0.9641   0.8955     O
H       0.9467    0.401   0.7453     H
H       0.9467    0.901   0.7547     H
H       0.9514   0.3236   0.8301     H
H       0.9514   0.8236   0.6699     H
C       0.9653    0.311   0.7796     C
C       0.9653    0.811   0.7204     C
Co     0.96566  0.07561  0.92205    Co
Co     0.96566  0.57561  0.57795    Co
O       0.9666   0.1062   0.0293     O
O       0.9666   0.6062   0.4707     O
C       0.9672   0.3649   0.7248     C
C       0.9672   0.8649   0.7752     C
O       0.9682   0.1045   0.8027     O
O       0.9682   0.6045   0.6973     O
C       0.9808   0.1732    0.823     C
C       0.9808   0.6732    0.677     C
C       0.9838   0.2373   0.7606     C
C       0.9838   0.7373   0.7394     C
C       0.9846   0.4037   0.5855     C
C       0.9846   0.9037   0.9145     C
H       0.9887   0.2998   0.0449     H
H       0.9887   0.7998   0.4551     H
O       0.9889   0.1966   0.8888     O
O       0.9889   0.6966   0.6112     O
C       0.9926   0.3469   0.6513     C
C       0.9926   0.8469   0.8487     C
C       0.9951   0.2156   0.6869     C
C       0.9951   0.7156   0.8131     C
N        0.996   0.2518   0.0552     N
N        0.996   0.7518   0.4448     N
C       0.9971   0.2262   0.1333     C
C       0.9971   0.7262   0.3667     C
H       0.9973   0.1636   0.6735     H
H       0.9973   0.6636   0.8265     H
H       0.9985   0.2809   0.5188     H
H       0.9985   0.7809   0.9812     H
