data_I
_chemical_name_common  '/home/zhangsd/repos/MofS-CGCNN/ML/data/TSD/clean_cifs/HASNIB_clean'
_cell_length_a  9.80290
_cell_length_b 17.50590
_cell_length_c 14.63240
_cell_angle_alpha 90.00000
_cell_angle_beta  97.12080
_cell_angle_gamma 90.00000
_space_group_name_H-M_alt      'P 1'


loop_
_space_group_symop_operation_xyz
  'x, y, z' 

loop_
_atom_site_label
_atom_site_fract_x
_atom_site_fract_y
_atom_site_fract_z
_atom_site_type_symbol
Eu     0.00523  0.62162  0.34171    Eu
Eu     0.01936  0.66312  0.91241    Eu
C       0.0485   0.5478   0.7452     C
C       0.0573    0.476   0.4814     C
C       0.0628   0.4865   0.9766     C
O       0.0645   0.2502   0.6274     O
O       0.0715    0.409   0.5095     O
O         0.08   0.6164   0.7624     O
C       0.0834   0.4809   0.2169     C
O       0.0858   0.4164    0.976     O
O       0.0895   0.7918   0.8832     O
O       0.1105   0.5005   0.7011     O
O       0.1255   0.5462    0.239     O
O       0.1265   0.5092   0.4269     O
O       0.1301    0.537   0.9418     O
O       0.1372   0.4364   0.1645     O
O        0.149    0.263   0.0216     O
O       0.1511   0.2799   0.2032     O
O       0.1705    0.699   0.2733     O
O        0.185    0.674   0.4537     O
C       0.1865   0.2365   0.6161     C
C       0.2104   0.8045   0.8681     C
C       0.2332   0.2228   0.0724     C
O       0.2353   0.1743    0.594     O
C       0.2389   0.2347   0.1772     C
O       0.2439   0.3651   0.6592     O
O       0.2561   0.8651   0.8408     O
C       0.2611   0.7347   0.3228     C
O       0.2647   0.6743    0.906     O
C       0.2668   0.7228   0.4276     C
C       0.2896   0.3045   0.6319     C
C       0.3135   0.7365   0.8839     C
O        0.315    0.174   0.0463     O
O       0.3295    0.199   0.2267     O
O       0.3489   0.7799   0.2968     O
O        0.351    0.763   0.4784     O
O       0.3628   0.9364   0.3355     O
O       0.3699    0.037   0.5582     O
O       0.3735   0.0092   0.0731     O
O       0.3745   0.0462    0.261     O
O       0.3895   0.0005   0.7989     O
O       0.4105   0.2918   0.6168     O
O       0.4142   0.9164    0.524     O
C       0.4166   0.9809   0.2831     C
O         0.42   0.1164   0.7376     O
O       0.4285    0.909   0.9905     O
O       0.4355   0.7502   0.8726     O
C       0.4372   0.9865   0.5234     C
C       0.4427    0.976   0.0186     C
C       0.4515   0.0478   0.7548     C
Eu     0.48064  0.16312  0.58759    Eu
Eu     0.49477  0.12162  0.15829    Eu
Eu     0.50523  0.87838  0.84171    Eu
Eu     0.51936  0.83688  0.41241    Eu
C       0.5485   0.9522   0.2452     C
C       0.5573    0.024   0.9814     C
C       0.5628   0.0135   0.4766     C
O       0.5645   0.2498   0.1274     O
O       0.5715    0.091   0.0095     O
O         0.58   0.8836   0.2624     O
C       0.5834   0.0191   0.7169     C
O       0.5858   0.0836    0.476     O
O       0.5895   0.7082   0.3832     O
O       0.6105   0.9995   0.2011     O
O       0.6255   0.9538    0.739     O
O       0.6265   0.9908   0.9269     O
O       0.6301    0.963   0.4418     O
O       0.6372   0.0636   0.6645     O
O        0.649    0.237   0.5216     O
O       0.6511   0.2201   0.7032     O
O       0.6705    0.801   0.7733     O
O        0.685    0.826   0.9537     O
C       0.6865   0.2635   0.1161     C
C       0.7104   0.6955   0.3681     C
C       0.7332   0.2772   0.5724     C
O       0.7353   0.3257    0.094     O
C       0.7389   0.2653   0.6772     C
O       0.7439   0.1349   0.1592     O
O       0.7561   0.6349   0.3408     O
C       0.7611   0.7653   0.8228     C
O       0.7647   0.8257    0.406     O
C       0.7668   0.7772   0.9276     C
C       0.7896   0.1955   0.1319     C
C       0.8135   0.7635   0.3839     C
O        0.815    0.326   0.5463     O
O       0.8295    0.301   0.7267     O
O       0.8489   0.7201   0.7968     O
O        0.851    0.737   0.9784     O
O       0.8628   0.5636   0.8355     O
O       0.8699    0.463   0.0582     O
O       0.8735   0.4908   0.5731     O
O       0.8745   0.4538    0.761     O
O       0.8895   0.4995   0.2989     O
O       0.9105   0.2082   0.1168     O
O       0.9142   0.5836    0.024     O
C       0.9166   0.5191   0.7831     C
O         0.92   0.3836   0.2376     O
O       0.9285    0.591   0.4905     O
O       0.9355   0.7498   0.3726     O
C       0.9372   0.5135   0.0234     C
C       0.9427    0.524   0.5186     C
C       0.9515   0.4522   0.2548     C
Eu     0.98064  0.33688  0.08759    Eu
Eu     0.99477  0.37838  0.65829    Eu
