data_I
_chemical_name_common  '/home/zhangsd/repos/MofS-CGCNN/ML/data/TSD/clean_cifs/HASNUN_clean'
_cell_length_a 10.05320
_cell_length_b 17.72730
_cell_length_c 14.44510
_cell_angle_alpha 90.00000
_cell_angle_beta  99.12010
_cell_angle_gamma 90.00000
_space_group_name_H-M_alt      'P 1'


loop_
_space_group_symop_operation_xyz
  'x, y, z' 

loop_
_atom_site_label
_atom_site_fract_x
_atom_site_fract_y
_atom_site_fract_z
_atom_site_type_symbol
Eu     0.00329  0.62472  0.34365    Eu
Eu     0.01861  0.65909    0.908    Eu
C       0.0532   0.5431    0.743     C
C       0.0574   0.4779   0.4818     C
C       0.0612   0.4858    0.978     C
O       0.0649   0.2453   0.6238     O
O        0.073   0.4108   0.5093     O
C       0.0749   0.4849   0.2195     C
O       0.0822   0.6114   0.7595     O
O       0.0824   0.4165   0.9788     O
O       0.0949   0.7832   0.8741     O
O       0.1106    0.551   0.2374     O
O       0.1147   0.4962   0.7021     O
O        0.121   0.5127   0.4283     O
O       0.1259   0.5357   0.9424     O
O       0.1301   0.4382   0.1729     O
O       0.1423   0.2634   0.0226     O
O       0.1587   0.2806   0.2064     O
O       0.1638   0.7021   0.2714     O
C       0.1846   0.2318   0.6161     C
O       0.1866   0.6808   0.4551     O
C       0.2148    0.797   0.8643     C
C       0.2315   0.2265   0.0727     C
O       0.2334   0.1706   0.5938     O
O       0.2404   0.3575   0.6604     O
C       0.2431    0.237   0.1792     C
C       0.2569    0.737   0.3208     C
O       0.2596   0.8575   0.8396     O
O       0.2666   0.6706   0.9062     O
C       0.2685   0.7265   0.4273     C
C       0.2852    0.297   0.6357     C
O       0.3134   0.1808   0.0449     O
C       0.3154   0.7318   0.8839     C
O       0.3362   0.2021   0.2286     O
O       0.3413   0.7806   0.2936     O
O       0.3577   0.7634   0.4774     O
O       0.3699   0.9382   0.3271     O
O       0.3741   0.0357   0.5576     O
O        0.379   0.0127   0.0717     O
O       0.3853   0.9962   0.7979     O
O       0.3894    0.051   0.2626     O
O       0.4051   0.2832   0.6259     O
O       0.4176   0.9165   0.5212     O
O       0.4178   0.1114   0.7405     O
C       0.4251   0.9849   0.2805     C
O        0.427   0.9108   0.9907     O
O       0.4351   0.7453   0.8762     O
C       0.4388   0.9858    0.522     C
C       0.4426   0.9779   0.0182     C
C       0.4468   0.0431    0.757     C
Eu     0.48139  0.15909    0.592    Eu
Eu     0.49671  0.12472  0.15635    Eu
Eu     0.50329  0.87528  0.84365    Eu
Eu     0.51861  0.84091    0.408    Eu
C       0.5532   0.9569    0.243     C
C       0.5574   0.0221   0.9818     C
C       0.5612   0.0142    0.478     C
O       0.5649   0.2547   0.1238     O
O        0.573   0.0892   0.0093     O
C       0.5749   0.0151   0.7195     C
O       0.5822   0.8886   0.2595     O
O       0.5824   0.0835   0.4788     O
O       0.5949   0.7168   0.3741     O
O       0.6106    0.949   0.7374     O
O       0.6147   0.0038   0.2021     O
O        0.621   0.9873   0.9283     O
O       0.6259   0.9643   0.4424     O
O       0.6301   0.0618   0.6729     O
O       0.6423   0.2366   0.5226     O
O       0.6587   0.2194   0.7064     O
O       0.6638   0.7979   0.7714     O
C       0.6846   0.2682   0.1161     C
O       0.6866   0.8192   0.9551     O
C       0.7148    0.703   0.3643     C
C       0.7315   0.2735   0.5727     C
O       0.7334   0.3294   0.0938     O
O       0.7404   0.1425   0.1604     O
C       0.7431    0.263   0.6792     C
C       0.7569    0.763   0.8208     C
O       0.7596   0.6425   0.3396     O
O       0.7666   0.8294   0.4062     O
C       0.7685   0.7735   0.9273     C
C       0.7852    0.203   0.1357     C
O       0.8134   0.3192   0.5449     O
C       0.8154   0.7682   0.3839     C
O       0.8362   0.2979   0.7286     O
O       0.8413   0.7194   0.7936     O
O       0.8577   0.7366   0.9774     O
O       0.8699   0.5618   0.8271     O
O       0.8741   0.4643   0.0576     O
O        0.879   0.4873   0.5717     O
O       0.8853   0.5038   0.2979     O
O       0.8894    0.449   0.7626     O
O       0.9051   0.2168   0.1259     O
O       0.9176   0.5835   0.0212     O
O       0.9178   0.3886   0.2405     O
C       0.9251   0.5151   0.7805     C
O        0.927   0.5892   0.4907     O
O       0.9351   0.7547   0.3762     O
C       0.9388   0.5142    0.022     C
C       0.9426   0.5221   0.5182     C
C       0.9468   0.4569    0.257     C
Eu     0.98139  0.34091    0.092    Eu
Eu     0.99671  0.37528  0.65635    Eu
