data_I
_chemical_name_common  '/home/zhangsd/repos/MofS-CGCNN/ML/data/TSD/clean_cifs/HAWVIM_clean'
_cell_length_a 11.57760
_cell_length_b 16.29840
_cell_length_c 12.03260
_cell_angle_alpha 90.00000
_cell_angle_beta  112.50000
_cell_angle_gamma 90.00000
_space_group_name_H-M_alt      'P 1'


loop_
_space_group_symop_operation_xyz
  'x, y, z' 

loop_
_atom_site_label
_atom_site_fract_x
_atom_site_fract_y
_atom_site_fract_z
_atom_site_type_symbol
C       0.0155   0.0828   0.3283     C
C       0.0155   0.4172   0.8283     C
C       0.0415   0.6522   0.2511     C
C       0.0415   0.8478   0.7511     C
C       0.0512   0.6473   0.9313     C
C       0.0512   0.8527   0.4313     C
S       0.0537  0.21823  0.21141     S
S       0.0537  0.28177  0.71141     S
O       0.0559   0.1371   0.5676     O
O       0.0559   0.3629   0.0676     O
O       0.0576   0.5309    0.154     O
O       0.0576   0.9691    0.654     O
C       0.0714    0.722   0.8708     C
C       0.0714    0.778   0.3708     C
O       0.1329   0.0781   0.3772     O
O       0.1329   0.4219   0.8772     O
O       0.1434   0.6005   0.9773     O
O       0.1434   0.8995   0.4773     O
C       0.1637   0.6762   0.2983     C
C       0.1637   0.8238   0.7983     C
C       0.1811   0.7483    0.367     C
C       0.1811   0.7517    0.867     C
Eu      0.1942  0.02722   0.5781    Eu
Eu      0.1942  0.47278   0.0781    Eu
H       0.2279   0.6482   0.2863     H
H       0.2279   0.8518   0.7863     H
H       0.2584   0.7268   0.9057     H
H       0.2584   0.7732   0.4057     H
O       0.2751   0.1042    0.781     O
O       0.2751   0.3958    0.281     O
C       0.3322   0.1523   0.7379     C
C       0.3322   0.3477   0.2379     C
H       0.3366   0.2437   0.9436     H
H       0.3366   0.2563   0.4436     H
O       0.3414   0.1394   0.6387     O
O       0.3414   0.3606   0.1387     O
O       0.3542   0.5668   0.2084     O
O       0.3542   0.9332   0.7084     O
O       0.3787   0.5241   0.0433     O
O       0.3787   0.9759   0.5433     O
C       0.3835   0.2352   0.4024     C
C       0.3835   0.2648   0.9024     C
C        0.394   0.2277   0.8032     C
C        0.394   0.2723   0.3032     C
C       0.4011   0.5745   0.1293     C
C       0.4011   0.9255   0.6293     C
C        0.452   0.1622   0.4332     C
C        0.452   0.3378   0.9332     C
H       0.4533   0.1285    0.496     H
H       0.4533   0.3715    0.996     H
C       0.4843   0.6458   0.1373     C
C       0.4843   0.8542   0.6373     C
S      0.48969  0.21724  0.25153     S
S      0.48969  0.28276  0.75153     S
S      0.51031  0.71724  0.24847     S
S      0.51031  0.78276  0.74847     S
C       0.5157   0.1458   0.3627     C
C       0.5157   0.3542   0.8627     C
H       0.5467   0.6285    0.004     H
H       0.5467   0.8715    0.504     H
C        0.548   0.6622   0.0668     C
C        0.548   0.8378   0.5668     C
C       0.5989   0.0745   0.3707     C
C       0.5989   0.4255   0.8707     C
C        0.606   0.7277   0.6968     C
C        0.606   0.7723   0.1968     C
C       0.6165   0.7352   0.0976     C
C       0.6165   0.7648   0.5976     C
O       0.6213   0.0241   0.4567     O
O       0.6213   0.4759   0.9567     O
O       0.6458   0.0668   0.2916     O
O       0.6458   0.4332   0.7916     O
O       0.6586   0.6394   0.8613     O
O       0.6586   0.8606   0.3613     O
H       0.6634   0.7437   0.5564     H
H       0.6634   0.7563   0.0564     H
C       0.6678   0.6523   0.7621     C
C       0.6678   0.8477   0.2621     C
O       0.7249   0.6042    0.719     O
O       0.7249   0.8958    0.219     O
H       0.7416   0.2268   0.5943     H
H       0.7416   0.2732   0.0943     H
H       0.7721   0.1482   0.2137     H
H       0.7721   0.3518   0.7137     H
Eu      0.8058  0.52722   0.9219    Eu
Eu      0.8058  0.97278   0.4219    Eu
C       0.8189   0.2483    0.133     C
C       0.8189   0.2517    0.633     C
C       0.8363   0.1762   0.2017     C
C       0.8363   0.3238   0.7017     C
O       0.8566   0.1005   0.5227     O
O       0.8566   0.3995   0.0227     O
O       0.8671   0.5781   0.1228     O
O       0.8671   0.9219   0.6228     O
C       0.9286    0.222   0.6292     C
C       0.9286    0.278   0.1292     C
O       0.9424   0.0309    0.346     O
O       0.9424   0.4691    0.846     O
O       0.9441   0.6371   0.9324     O
O       0.9441   0.8629   0.4324     O
S       0.9463  0.71823  0.28859     S
S       0.9463  0.78177  0.78859     S
C       0.9488   0.1473   0.5687     C
C       0.9488   0.3527   0.0687     C
C       0.9585   0.1522   0.2489     C
C       0.9585   0.3478   0.7489     C
C       0.9845   0.5828   0.1717     C
C       0.9845   0.9172   0.6717     C
