data_I
_chemical_name_common  '/home/zhangsd/repos/MofS-CGCNN/ML/data/TSD/clean_cifs/HAWWOT_clean'
_cell_length_a 12.17990
_cell_length_b 16.98360
_cell_length_c 25.78020
_cell_angle_alpha 102.10900
_cell_angle_beta  90.00000
_cell_angle_gamma 90.00000
_space_group_name_H-M_alt      'P 1'


loop_
_space_group_symop_operation_xyz
  'x, y, z' 

loop_
_atom_site_label
_atom_site_fract_x
_atom_site_fract_y
_atom_site_fract_z
_atom_site_type_symbol
Nd     0.00155  0.03943  0.58251    Nd
Nd     0.00155  0.46057  0.91749    Nd
O       0.0765   0.1366    0.535     O
O       0.0765   0.3634    0.965     O
O        0.081   0.0928   0.4473     O
O        0.081   0.4072   0.0527     O
C       0.1027   0.1415   0.4888     C
C       0.1027   0.3585   0.0112     C
O       0.1038   0.5175   0.8467     O
O       0.1038   0.9825   0.6533     O
O       0.1128   0.5426   0.9865     O
O       0.1128   0.9574   0.5135     O
C         0.16   0.6023   0.0148     C
C         0.16   0.8977   0.4852     C
O       0.1651   0.6133    0.064     O
O       0.1651   0.8867    0.436     O
C       0.1659   0.2134   0.4841     C
C       0.1659   0.2866   0.0159     C
H       0.1732   0.6353   0.9107     H
H       0.1732   0.8647   0.5893     H
H        0.175    0.206   0.4054     H
H        0.175    0.294   0.0946     H
C       0.1893   0.0208   0.6494     C
C       0.1893   0.4792   0.8506     C
C       0.1949   0.2346   0.4389     C
C       0.1949   0.2654   0.0611     C
O       0.2011   0.0598   0.6126     O
O       0.2011   0.4402   0.8874     O
C        0.209   0.6711   0.9376     C
C        0.209   0.8289   0.5624     C
C       0.2134   0.6629   0.9892     C
C       0.2134   0.8371   0.5108     C
S       0.2178  0.22186  0.96236     S
S       0.2178  0.27814  0.53764     S
C         0.26   0.1939   0.0522     C
C         0.26   0.3061   0.4478     C
C       0.2652   0.7401     0.93     C
C       0.2652   0.7599     0.57     C
S       0.2676  0.51977  0.75851     S
S       0.2676  0.98023  0.74149     S
H       0.2683   0.7442   0.6024     H
H       0.2683   0.7558   0.8976     H
C       0.2798   0.0229   0.6876     C
C       0.2798   0.4771   0.8124     C
C         0.28   0.1643   0.9996     C
C         0.28   0.3357   0.5004     C
H       0.2853     0.17   0.0792     H
H       0.2853     0.33   0.4208     H
S       0.2894   0.7384  0.02793     S
S       0.2894   0.7616  0.47207     S
C       0.3148    0.718   0.5252     C
C       0.3148    0.782   0.9748     C
C       0.3497   0.0957   0.9754     C
C       0.3497   0.4043   0.5246     C
O       0.3665   0.0828   0.9276     O
O       0.3665   0.4172   0.5724     O
C       0.3779    0.062   0.6878     C
C       0.3779    0.438   0.8122     C
C       0.3812    0.643   0.5173     C
C       0.3812    0.857   0.9827     C
O       0.3894   0.5476    0.662     O
O       0.3894   0.9524    0.838     O
O       0.3915   0.0532   0.0056     O
O       0.3915   0.4468   0.4944     O
C       0.3933   0.0161   0.7653     C
C       0.3933   0.4839   0.7347     C
H          0.4   0.0886   0.6615     H
H          0.4   0.4114   0.8385     H
O          0.4   0.6155    0.558     O
O          0.4   0.8845    0.942     O
O       0.4095   0.6132   0.4711     O
O       0.4095   0.8868   0.0289     O
C       0.4369   0.0004   0.8156     C
C       0.4369   0.4996   0.6844     C
C       0.4413   0.0573   0.7326     C
C       0.4413   0.4427   0.7674     C
Nd     0.47639  0.01434  0.08152    Nd
Nd     0.47639  0.48566  0.41848    Nd
O       0.4777   0.5368   0.3345     O
O       0.4777   0.9632   0.1655     O
H       0.4897   0.5808    0.239     H
H       0.4897   0.9192    0.261     H
H       0.5103   0.0808    0.739     H
H       0.5103   0.4192    0.761     H
O       0.5223   0.0368   0.8345     O
O       0.5223   0.4632   0.6655     O
Nd     0.52361  0.51434  0.58152    Nd
Nd     0.52361  0.98566  0.91848    Nd
C       0.5587   0.5573   0.2326     C
C       0.5587   0.9427   0.2674     C
C       0.5631   0.5004   0.3156     C
C       0.5631   0.9996   0.1844     C
O       0.5905   0.1132   0.9711     O
O       0.5905   0.3868   0.5289     O
O          0.6   0.1155    0.058     O
O          0.6   0.3845    0.442     O
H          0.6   0.5886   0.1615     H
H          0.6   0.9114   0.3385     H
C       0.6067   0.5161   0.2653     C
C       0.6067   0.9839   0.2347     C
O       0.6085   0.5532   0.5056     O
O       0.6085   0.9468   0.9944     O
O       0.6106   0.0476    0.162     O
O       0.6106   0.4524    0.338     O
C       0.6188    0.143   0.0173     C
C       0.6188    0.357   0.4827     C
C       0.6221    0.562   0.1878     C
C       0.6221    0.938   0.3122     C
O       0.6335   0.5828   0.4276     O
O       0.6335   0.9172   0.0724     O
C       0.6503   0.5957   0.4754     C
C       0.6503   0.9043   0.0246     C
C       0.6852    0.218   0.0252     C
C       0.6852    0.282   0.4748     C
S       0.7106   0.2384  0.52793     S
S       0.7106   0.2616  0.97207     S
H       0.7147     0.67   0.5792     H
H       0.7147     0.83   0.9208     H
C         0.72   0.6643   0.4996     C
C         0.72   0.8357   0.0004     C
C       0.7202   0.5229   0.1876     C
C       0.7202   0.9771   0.3124     C
H       0.7317   0.2442   0.1024     H
H       0.7317   0.2558   0.3976     H
S       0.7324  0.01977  0.25851     S
S       0.7324  0.48023  0.24149     S
C       0.7348   0.2401     0.43     C
C       0.7348   0.2599     0.07     C
C         0.74   0.6939   0.5522     C
C         0.74   0.8061   0.9478     C
S       0.7822  0.72186  0.46236     S
S       0.7822  0.77814  0.03764     S
C       0.7866   0.1629   0.4892     C
C       0.7866   0.3371   0.0108     C
C        0.791   0.1711   0.4376     C
C        0.791   0.3289   0.0624     C
O       0.7989   0.5598   0.1126     O
O       0.7989   0.9402   0.3874     O
C       0.8051   0.7346   0.9389     C
C       0.8051   0.7654   0.5611     C
C       0.8107   0.5208   0.1494     C
C       0.8107   0.9792   0.3506     C
H        0.825    0.706   0.9054     H
H        0.825    0.794   0.5946     H
H       0.8268   0.1353   0.4107     H
H       0.8268   0.3647   0.0893     H
C       0.8341   0.7134   0.9841     C
C       0.8341   0.7866   0.5159     C
O       0.8349   0.1133    0.564     O
O       0.8349   0.3867    0.936     O
C         0.84   0.1023   0.5148     C
C         0.84   0.3977   0.9852     C
O       0.8872   0.0426   0.4865     O
O       0.8872   0.4574   0.0135     O
O       0.8962   0.0175   0.3467     O
O       0.8962   0.4825   0.1533     O
C       0.8973   0.6415   0.9888     C
C       0.8973   0.8585   0.5112     C
O        0.919   0.5928   0.9473     O
O        0.919   0.9072   0.5527     O
O       0.9235   0.6366    0.035     O
O       0.9235   0.8634    0.465     O
Nd     0.99845  0.53943  0.08251    Nd
Nd     0.99845  0.96057  0.41749    Nd
