data_I
_chemical_name_common  '/home/zhangsd/repos/MofS-CGCNN/ML/data/TSD/clean_cifs/HAZGOF_clean'
_cell_length_a  8.74330
_cell_length_b 11.25600
_cell_length_c 17.73060
_cell_angle_alpha 84.50500
_cell_angle_beta  75.72600
_cell_angle_gamma 67.14620
_space_group_name_H-M_alt      'P 1'


loop_
_space_group_symop_operation_xyz
  'x, y, z' 

loop_
_atom_site_label
_atom_site_fract_x
_atom_site_fract_y
_atom_site_fract_z
_atom_site_type_symbol
O      0.01302   0.1685  0.31486     O
C      0.01357  0.47286     0.25     C
C      0.02191   0.1834  0.75098     C
H       0.0431   0.8622   0.2496     H
C      0.04371   0.6834  0.25098     C
C      0.04852  0.06714  0.43504     C
C       0.0581   0.3838     0.75     C
O      0.06761  0.58362  0.77062     O
C      0.09544  0.96108  0.55544     C
C      0.10017  0.13944   0.3646     C
O      0.10489  0.16664  0.14108     O
Sc     0.11432     0.75  0.77136    Sc
C      0.14378   0.0283  0.49054     C
O      0.15123  0.41638  0.27062     O
H       0.1549   0.6378   0.2504     H
O      0.16177  0.91638  0.77062     O
H       0.1642   0.9282   0.5914     H
C       0.1919   0.1162     0.75     C
H       0.2027   0.0508   0.0178     H
H       0.2205   0.5508   0.9822     H
C      0.22711   0.3166  0.75098     C
O      0.22847  0.16664  0.35892     O
H       0.2444   0.5718   0.5914     H
O      0.24597  0.66664  0.85892     O
H       0.2465   0.0508   0.4822     H
C      0.26039  0.13944   0.1354     C
C      0.26357  0.97286     0.75     C
H       0.2713   0.4492   0.4822     H
H       0.2927   0.3622   0.7504     H
C      0.29469   0.1834  0.74902     C
H       0.3162   0.4282   0.0914     H
O      0.31848   0.1685  0.18514     O
O      0.32788   0.6685  0.68514     O
C      0.32792   0.0283  0.00946     C
C      0.33738   0.5283  0.99054     C
C      0.34912  0.53892  0.55544     C
Sc     0.36432     0.25  0.27136    Sc
C      0.36568   0.4717  0.49054     C
C      0.38434  0.06714  0.06496     C
C      0.38804  0.46108  0.05544     C
C      0.39579  0.63944   0.8646     C
H       0.4053   0.1378   0.7496     H
H       0.4076   0.9282   0.9086     H
O      0.41261  0.33336  0.35892     O
O      0.42185  0.91638  0.72938     O
C      0.44348  0.96108  0.94456     C
C       0.4493  0.56714  0.93504     C
C      0.46477  0.63944   0.6354     C
C      0.48356  0.56714  0.56496     C
O      0.49638   0.3315  0.18514     O
O      0.50362   0.6685  0.81486     O
C      0.51644  0.43286  0.43504     C
C      0.53523  0.36056   0.3646     C
C       0.5507  0.43286  0.06496     C
C      0.55652  0.03892  0.05544     C
O      0.57815  0.08362  0.27062     O
O      0.58739  0.66664  0.64108     O
H       0.5924   0.0718   0.0914     H
H       0.5947   0.8622   0.2504     H
C      0.60421  0.36056   0.1354     C
C      0.61196  0.53892  0.94456     C
C      0.61566  0.93286  0.93504     C
C      0.63432   0.5283  0.50946     C
Sc     0.63568     0.75  0.72864    Sc
C      0.65088  0.46108  0.44456     C
C      0.66262   0.4717  0.00946     C
C      0.67208   0.9717  0.99054     C
O      0.67212   0.3315  0.31486     O
O      0.68152   0.8315  0.81486     O
H       0.6838   0.5718   0.9086     H
C      0.70531   0.8166  0.25098     C
H       0.7073   0.6378   0.2496     H
H       0.7287   0.5508   0.5178     H
C      0.73643  0.02714     0.25     C
C      0.73961  0.86056   0.8646     C
H       0.7535   0.9492   0.5178     H
O      0.75403  0.33336  0.14108     O
H       0.7556   0.4282   0.4086     H
O      0.77153  0.83336  0.64108     O
C      0.77289   0.6834  0.24902     C
H       0.7795   0.4492   0.0178     H
H       0.7973   0.9492   0.9822     H
C       0.8081   0.8838     0.25     C
H       0.8358   0.0718   0.4086     H
O      0.83823  0.08362  0.22938     O
H       0.8451   0.3622   0.7496     H
O      0.84877  0.58362  0.72938     O
C      0.85622   0.9717  0.50946     C
Sc     0.88568     0.25  0.22864    Sc
O      0.89511  0.83336  0.85892     O
C      0.89983  0.86056   0.6354     C
C      0.90456  0.03892  0.44456     C
O      0.93239  0.41638  0.22938     O
C       0.9419   0.6162     0.25     C
C      0.95148  0.93286  0.56496     C
C      0.95629   0.3166  0.74902     C
H       0.9569   0.1378   0.7504     H
C      0.97809   0.8166  0.24902     C
C      0.98643  0.52714     0.75     C
O      0.98698   0.8315  0.68514     O
