data_I
_chemical_name_common  '/home/zhangsd/repos/MofS-CGCNN/ML/data/TSD/clean_cifs/HAZGOF06_clean_h'
_cell_length_a  8.72550
_cell_length_b 11.24480
_cell_length_c 17.72450
_cell_angle_alpha 84.52010
_cell_angle_beta  75.75080
_cell_angle_gamma 67.17130
_space_group_name_H-M_alt      'P 1'


loop_
_space_group_symop_operation_xyz
  'x, y, z' 

loop_
_atom_site_label
_atom_site_fract_x
_atom_site_fract_y
_atom_site_fract_z
_atom_site_type_symbol
O      0.00289  0.66964  0.31588     O
C      0.01876   0.4358  0.93628     C
C      0.03431  0.35944  0.86594     C
C      0.04544   0.4358  0.56372     C
C      0.05902  0.03868  0.55628     C
H      0.06083  0.87326  0.75061     H
O       0.0796  0.08336  0.77064     O
O      0.08248   0.6692  0.14084     O
H      0.10407  0.07208  0.60253     H
C      0.10625  0.35944  0.63406     C
C      0.10916   0.9358  0.43628     C
C       0.1153  0.53868  0.44372     C
Sc     0.13572     0.75  0.22856    Sc
C      0.13937  0.52964  0.00922     C
C      0.15398  0.46132  0.94372     C
C      0.16901  0.47036  0.50922     C
O      0.17253  0.33036  0.81588     O
C      0.17823  0.97036  0.49078     C
O      0.18123  0.83036  0.31588     O
H      0.18469  0.62674  0.74939     H
C      0.20169  0.81826  0.75018     C
H      0.20549  0.57256   0.3971     H
H      0.23519  0.94272  0.01993     H
C      0.23666  0.02668     0.75     C
C      0.24031  0.85944  0.36594     C
H      0.24488  0.55728  0.01993     H
O      0.25168   0.3308  0.64084     O
C      0.27013  0.68174  0.74982     C
O      0.27668   0.8308  0.14084     O
H      0.27868  0.42792  0.89747     H
H      0.30475  0.44654  0.51547     H
C      0.30945   0.8811     0.75     C
H      0.31144  0.37326  0.24939     H
H      0.32209  0.94272  0.48007     H
H      0.32385  0.07208  0.89747     H
O      0.33704  0.08336  0.72936     O
O      0.35024  0.58336  0.22936     O
C      0.35141  0.97036  0.00922     C
Sc     0.38572     0.25  0.72856    Sc
O      0.39252   0.8308  0.35916     O
C      0.40025  0.85944  0.13406     C
C       0.4023  0.03868  0.94372     C
O       0.4336  0.41664  0.72936     O
H      0.43409  0.12674  0.25061     H
C      0.44055   0.6189     0.75     C
C      0.45187  0.31826  0.24982     C
C      0.45504   0.9358  0.06372     C
C      0.48005  0.81826  0.74982     C
C      0.48666  0.52668     0.25     C
O      0.48841  0.83036  0.18412     O
O      0.51159  0.16964  0.81588     O
C      0.51334  0.47332     0.75     C
C      0.51995  0.18174  0.25018     C
C      0.54496   0.0642  0.93628     C
C      0.54813  0.68174  0.75018     C
C      0.55945   0.3811     0.25     C
H      0.56591  0.87326  0.74939     H
O       0.5664  0.58336  0.27064     O
C       0.5977  0.96132  0.05628     C
C      0.59975  0.14056  0.86594     C
O      0.60748   0.1692  0.64084     O
Sc     0.61428     0.75  0.27144    Sc
C      0.64859  0.02964  0.99078     C
O      0.64976  0.41664  0.77064     O
O      0.66296  0.91664  0.27064     O
H      0.67515  0.92744   0.1029     H
H      0.67791  0.05728  0.51993     H
H      0.68856  0.62674  0.75061     H
C      0.69055   0.1189     0.25     C
H      0.69783  0.55728  0.48007     H
H      0.72195  0.57256   0.1029     H
O      0.72332   0.1692  0.85916     O
C      0.72987  0.31826  0.25018     C
O      0.74832   0.6692  0.35916     O
H      0.75512  0.44272  0.98007     H
C      0.75969  0.14056  0.63406     C
C      0.76334  0.97332     0.25     C
H      0.76676  0.05346  0.98453     H
H      0.79451  0.42744   0.6029     H
C      0.79831  0.18174  0.24982     C
H      0.81531  0.37326  0.25061     H
O      0.81877  0.16964  0.68412     O
C      0.82177  0.02964  0.50922     C
O      0.82747  0.66964  0.18412     O
C      0.83099  0.52964  0.49078     C
C      0.84602  0.53868  0.05628     C
C      0.86063  0.47036  0.99078     C
Sc     0.86428     0.25  0.77144    Sc
C       0.8847  0.46132  0.55628     C
C      0.89084   0.0642  0.56372     C
C      0.89375  0.64056  0.36594     C
H      0.89741  0.92744   0.3971     H
O      0.91752   0.3308  0.85916     O
O       0.9204  0.91664  0.22936     O
H      0.93917  0.12674  0.24939     H
C      0.94098  0.96132  0.44372     C
C      0.95456   0.5642  0.43628     C
C      0.96569  0.64056  0.13406     C
C      0.98124   0.5642  0.06372     C
O      0.99711  0.33036  0.68412     O
