data_I
_chemical_name_common  '/home/zhangsd/repos/MofS-CGCNN/ML/data/TSD/clean_cifs/HAZNED_clean'
_cell_length_a 15.40100
_cell_length_b 17.38120
_cell_length_c 15.05380
_cell_angle_alpha 90.00000
_cell_angle_beta  120.43500
_cell_angle_gamma 90.00000
_space_group_name_H-M_alt      'P 1'


loop_
_space_group_symop_operation_xyz
  'x, y, z' 

loop_
_atom_site_label
_atom_site_fract_x
_atom_site_fract_y
_atom_site_fract_z
_atom_site_type_symbol
O          0.0   0.0537     0.25     O
O          0.0   0.9463     0.75     O
H       0.0227   0.0295   0.3065     H
H       0.0227   0.9705   0.8065     H
H       0.0285   0.1399   0.5811     H
H       0.0285   0.8601   0.0811     H
C       0.0351    0.198   0.4171     C
C       0.0351    0.802   0.9171     C
Br     0.03682  0.40109  0.12956    Br
Br     0.03682  0.59891  0.62956    Br
O       0.0512  0.17036   0.1175     O
O       0.0512  0.82964   0.6175     O
O       0.0761   0.2138   0.3654     O
O       0.0761   0.7862   0.8654     O
C       0.0817   0.1743   0.6022     C
C       0.0817   0.8257   0.1022     C
O       0.0956   0.0073   0.9289     O
O       0.0956   0.9927   0.4289     O
C       0.0973   0.2135    0.531     C
C       0.0973   0.7865    0.031     C
H       0.1228   0.0575   0.0884     H
H       0.1228   0.9425   0.5884     H
Cd     0.13389  0.13256  0.28577    Cd
Cd     0.13389  0.86744  0.78577    Cd
Br     0.13795  0.13279  0.80801    Br
Br     0.13795  0.86721  0.30801    Br
C       0.1481   0.1882   0.7054     C
C       0.1481   0.8118   0.2054     C
C       0.1526   0.4548   0.2295     C
C       0.1526   0.5452   0.7295     C
H       0.1603   0.4052   0.3548     H
H       0.1603   0.5948   0.8548     H
H       0.1698   0.4842    0.627     H
H       0.1698   0.5158    0.127     H
C       0.1743   0.0308   0.4822     C
C       0.1743   0.9692   0.9822     C
C       0.1762    0.265   0.5664     C
C       0.1762    0.735   0.0664     C
C        0.181   0.0315   0.1353     C
C        0.181   0.9685   0.6353     C
H       0.1866   0.2908   0.5185     H
H       0.1866   0.7092   0.0185     H
C       0.1907   0.4405   0.3328     C
C       0.1907   0.5595   0.8328     C
C       0.1978   0.4932   0.6972     C
C       0.1978   0.5068   0.1972     C
O       0.2155   0.0763   0.4503     O
O       0.2155   0.9237   0.9503     O
N       0.2188   0.0449   0.2359     N
N       0.2188   0.9551   0.7359     N
C       0.2242   0.0193   0.5975     C
C       0.2242   0.9807   0.0975     C
C       0.2248   0.2404   0.7352     C
C       0.2248   0.7596   0.2352     C
H       0.2314   0.2512   0.1949     H
H       0.2314   0.7488   0.6949     H
N       0.2385   0.2797   0.6668     N
N       0.2385   0.7203   0.1668     N
N       0.2615   0.2203   0.3332     N
N       0.2615   0.7797   0.8332     N
H       0.2686   0.2488   0.8051     H
H       0.2686   0.7512   0.3051     H
C       0.2752   0.2596   0.2648     C
C       0.2752   0.7404   0.7648     C
C       0.2758   0.4807   0.4025     C
C       0.2758   0.5193   0.9025     C
N       0.2812   0.4551   0.7641     N
N       0.2812   0.5449   0.2641     N
O       0.2845   0.4237   0.5497     O
O       0.2845   0.5763   0.0497     O
C       0.3022   0.0068   0.3028     C
C       0.3022   0.9932   0.8028     C
C       0.3093   0.0595   0.6672     C
C       0.3093   0.9405   0.1672     C
H       0.3134   0.2092   0.4815     H
H       0.3134   0.7908   0.9815     H
C        0.319   0.4685   0.8647     C
C        0.319   0.5315   0.3647     C
C       0.3238    0.235   0.4336     C
C       0.3238    0.765   0.9336     C
C       0.3257   0.4692   0.5178     C
C       0.3257   0.5308   0.0178     C
H       0.3302   0.0158    0.373     H
H       0.3302   0.9842    0.873     H
H       0.3397   0.0948   0.6452     H
H       0.3397   0.9052   0.1452     H
C       0.3474   0.0452   0.7705     C
C       0.3474   0.9548   0.2705     C
C       0.3519   0.3118   0.2946     C
C       0.3519   0.6882   0.7946     C
Br     0.36205  0.36721  0.19199    Br
Br     0.36205  0.63279  0.69199    Br
Cd     0.36611  0.36744  0.71423    Cd
Cd     0.36611  0.63256  0.21423    Cd
H       0.3772   0.4425   0.9116     H
H       0.3772   0.5575   0.4116     H
C       0.4027   0.2865    0.469     C
C       0.4027   0.7135    0.969     C
O       0.4044   0.4927   0.0711     O
O       0.4044   0.5073   0.5711     O
C       0.4183   0.3257   0.3978     C
C       0.4183   0.6743   0.8978     C
O       0.4239   0.2862   0.6346     O
O       0.4239   0.7138   0.1346     O
O       0.4488  0.32964   0.8825     O
O       0.4488  0.67036   0.3825     O
Br     0.46318  0.09891  0.87044    Br
Br     0.46318  0.90109  0.37044    Br
C       0.4649    0.302   0.5829     C
C       0.4649    0.698   0.0829     C
H       0.4715   0.3601   0.4189     H
H       0.4715   0.6399   0.9189     H
H       0.4773   0.4705   0.6935     H
H       0.4773   0.5295   0.1935     H
O          0.5   0.4463     0.75     O
O          0.5   0.5537     0.25     O
H       0.5227   0.4705   0.8065     H
H       0.5227   0.5295   0.3065     H
H       0.5285   0.3601   0.0811     H
H       0.5285   0.6399   0.5811     H
C       0.5351    0.302   0.9171     C
C       0.5351    0.698   0.4171     C
Br     0.53682  0.09891  0.62956    Br
Br     0.53682  0.90109  0.12956    Br
O       0.5512  0.32964   0.6175     O
O       0.5512  0.67036   0.1175     O
O       0.5761   0.2862   0.8654     O
O       0.5761   0.7138   0.3654     O
C       0.5817   0.3257   0.1022     C
C       0.5817   0.6743   0.6022     C
O       0.5956   0.4927   0.4289     O
O       0.5956   0.5073   0.9289     O
C       0.5973   0.2865    0.031     C
C       0.5973   0.7135    0.531     C
H       0.6228   0.4425   0.5884     H
H       0.6228   0.5575   0.0884     H
Cd     0.63389  0.36744  0.78577    Cd
Cd     0.63389  0.63256  0.28577    Cd
Br     0.63795  0.36721  0.30801    Br
Br     0.63795  0.63279  0.80801    Br
C       0.6481   0.3118   0.2054     C
C       0.6481   0.6882   0.7054     C
C       0.6526   0.0452   0.7295     C
C       0.6526   0.9548   0.2295     C
H       0.6603   0.0948   0.8548     H
H       0.6603   0.9052   0.3548     H
H       0.6698   0.0158    0.127     H
H       0.6698   0.9842    0.627     H
C       0.6743   0.4692   0.9822     C
C       0.6743   0.5308   0.4822     C
C       0.6762    0.235   0.0664     C
C       0.6762    0.765   0.5664     C
C        0.681   0.4685   0.6353     C
C        0.681   0.5315   0.1353     C
H       0.6866   0.2092   0.0185     H
H       0.6866   0.7908   0.5185     H
C       0.6907   0.0595   0.8328     C
C       0.6907   0.9405   0.3328     C
C       0.6978   0.0068   0.1972     C
C       0.6978   0.9932   0.6972     C
O       0.7155   0.4237   0.9503     O
O       0.7155   0.5763   0.4503     O
N       0.7188   0.4551   0.7359     N
N       0.7188   0.5449   0.2359     N
C       0.7242   0.4807   0.0975     C
C       0.7242   0.5193   0.5975     C
C       0.7248   0.2596   0.2352     C
C       0.7248   0.7404   0.7352     C
H       0.7314   0.2488   0.6949     H
H       0.7314   0.7512   0.1949     H
N       0.7385   0.2203   0.1668     N
N       0.7385   0.7797   0.6668     N
N       0.7615   0.2797   0.8332     N
N       0.7615   0.7203   0.3332     N
H       0.7686   0.2512   0.3051     H
H       0.7686   0.7488   0.8051     H
C       0.7752   0.2404   0.7648     C
C       0.7752   0.7596   0.2648     C
C       0.7758   0.0193   0.9025     C
C       0.7758   0.9807   0.4025     C
N       0.7812   0.0449   0.2641     N
N       0.7812   0.9551   0.7641     N
O       0.7845   0.0763   0.0497     O
O       0.7845   0.9237   0.5497     O
C       0.8022   0.4932   0.8028     C
C       0.8022   0.5068   0.3028     C
C       0.8093   0.4405   0.1672     C
C       0.8093   0.5595   0.6672     C
H       0.8134   0.2908   0.9815     H
H       0.8134   0.7092   0.4815     H
C        0.819   0.0315   0.3647     C
C        0.819   0.9685   0.8647     C
C       0.8238    0.265   0.9336     C
C       0.8238    0.735   0.4336     C
C       0.8257   0.0308   0.0178     C
C       0.8257   0.9692   0.5178     C
H       0.8302   0.4842    0.873     H
H       0.8302   0.5158    0.373     H
H       0.8397   0.4052   0.1452     H
H       0.8397   0.5948   0.6452     H
C       0.8474   0.4548   0.2705     C
C       0.8474   0.5452   0.7705     C
C       0.8519   0.1882   0.7946     C
C       0.8519   0.8118   0.2946     C
Br     0.86205  0.13279  0.69199    Br
Br     0.86205  0.86721  0.19199    Br
Cd     0.86611  0.13256  0.21423    Cd
Cd     0.86611  0.86744  0.71423    Cd
H       0.8772   0.0575   0.4116     H
H       0.8772   0.9425   0.9116     H
C       0.9027   0.2135    0.969     C
C       0.9027   0.7865    0.469     C
O       0.9044   0.0073   0.5711     O
O       0.9044   0.9927   0.0711     O
C       0.9183   0.1743   0.8978     C
C       0.9183   0.8257   0.3978     C
O       0.9239   0.2138   0.1346     O
O       0.9239   0.7862   0.6346     O
O       0.9488  0.17036   0.3825     O
O       0.9488  0.82964   0.8825     O
Br     0.96318  0.40109  0.37044    Br
Br     0.96318  0.59891  0.87044    Br
C       0.9649    0.198   0.0829     C
C       0.9649    0.802   0.5829     C
H       0.9715   0.1399   0.9189     H
H       0.9715   0.8601   0.4189     H
H       0.9773   0.0295   0.1935     H
H       0.9773   0.9705   0.6935     H
