data_I
_chemical_name_common  '/home/zhangsd/repos/MofS-CGCNN/ML/data/TSD/clean_cifs/HAZNON_clean'
_cell_length_a 11.70890
_cell_length_b 11.70890
_cell_length_c 14.73320
_cell_angle_alpha 109.16400
_cell_angle_beta  109.16400
_cell_angle_gamma 98.41530
_space_group_name_H-M_alt      'P 1'


loop_
_space_group_symop_operation_xyz
  'x, y, z' 

loop_
_atom_site_label
_atom_site_fract_x
_atom_site_fract_y
_atom_site_fract_z
_atom_site_type_symbol
O      0.00229  0.91791   0.1329     O
C        0.008   0.5086   0.3128     C
N       0.0184    0.439   0.7573     N
C       0.0189   0.6197   0.7187     C
Br     0.02388  0.31354  0.38533    Br
Cd     0.02408  0.78034   0.2875    Cd
H       0.0445   0.1209   0.5193     H
H       0.0454   0.5602   0.3841     H
C       0.0728   0.5158   0.8593     C
C       0.0742   0.6994   0.8231     C
C       0.0745   0.1893   0.9189     C
O      0.08209  0.99771   0.3671     O
H        0.091   0.4802   0.9083     H
H       0.0912   0.7864   0.8444     H
O      0.09772  0.27068   0.8846     O
C       0.1033   0.6461   0.8951     C
H       0.1209   0.0445   0.0193     H
C       0.1273   0.1553   0.5689     C
C       0.1462   0.2234   0.0346     C
N       0.1476   0.2112   0.6701     N
C       0.1553   0.1273   0.0689     C
O      0.15935  0.81145   0.4566     O
C       0.1628   0.7228   0.0121     C
O       0.1801   0.6615   0.0684     O
O      0.18855  0.84065   0.0434     O
C       0.1893   0.0745   0.4189     C
H       0.1919   0.7421   0.1933     H
H       0.1933   0.4141   0.0878     H
C        0.196    0.347   0.1082     C
O          0.2      0.8     0.25     O
N       0.2112   0.1476   0.1701     N
H       0.2136   0.9088   0.6556     H
Cd     0.21966  0.97592   0.2125    Cd
C       0.2234   0.1462   0.5346     C
C       0.2501   0.3677   0.2132     C
C       0.2572   0.2672   0.2414     C
H       0.2579   0.8081   0.3067     H
C       0.2672   0.2572   0.7414     C
O      0.27068  0.09772   0.3846     O
C       0.2772   0.8372   0.4879     C
H       0.2827   0.2951   0.8121     H
H       0.2951   0.2827   0.3121     H
C       0.3006   0.9258   0.6769     C
Br     0.31205  0.53263  0.31857    Br
Br     0.31354  0.02388  0.88533    Br
O       0.3385   0.8199   0.4316     O
C        0.347    0.196   0.6082     C
C       0.3539   0.8967   0.6049     C
C       0.3677   0.2501   0.7132     C
C       0.3803   0.9811   0.7813     C
H       0.4141   0.1933   0.5878     H
N        0.439   0.0184   0.2573     N
H       0.4398   0.9546   0.1159     H
Br     0.46737  0.68795  0.18143    Br
H       0.4802    0.091   0.4083     H
C       0.4842   0.9272   0.6407     C
C       0.4914    0.992   0.1872     C
C       0.5086    0.008   0.8128     C
C       0.5158   0.0728   0.3593     C
H       0.5198    0.909   0.5917     H
Br     0.53263  0.31205  0.81857    Br
H       0.5602   0.0454   0.8841     H
N        0.561   0.9816   0.7427     N
H       0.5859   0.8067   0.4122     H
C       0.6197   0.0189   0.2187     C
C       0.6323   0.7499   0.2868     C
C       0.6461   0.1033   0.3951     C
C        0.653    0.804   0.3918     C
O       0.6615   0.1801   0.5684     O
Br     0.68646  0.97612  0.11467    Br
Br     0.68795  0.46737  0.68143    Br
C       0.6994   0.0742   0.3231     C
H       0.7049   0.7173   0.6879     H
H       0.7173   0.7049   0.1879     H
C       0.7228   0.1628   0.5121     C
O      0.72932  0.90228   0.6154     O
C       0.7328   0.7428   0.2586     C
H       0.7421   0.1919   0.6933     H
C       0.7428   0.7328   0.7586     C
C       0.7499   0.6323   0.7868     C
C       0.7766   0.8538   0.4654     C
Cd     0.78034  0.02408   0.7875    Cd
H       0.7864   0.0912   0.3444     H
N       0.7888   0.8524   0.8299     N
O          0.8      0.2     0.75     O
C        0.804    0.653   0.8918     C
H       0.8067   0.5859   0.9122     H
H       0.8081   0.2579   0.8067     H
C       0.8107   0.9255   0.5811     C
O      0.81145  0.15935   0.9566     O
O       0.8199   0.3385   0.9316     O
C       0.8372   0.2772   0.9879     C
O      0.84065  0.18855   0.5434     O
C       0.8447   0.8727   0.9311     C
N       0.8524   0.7888   0.3299     N
C       0.8538   0.7766   0.9654     C
C       0.8727   0.8447   0.4311     C
H       0.8791   0.9555   0.9807     H
C       0.8967   0.3539   0.1049     C
O      0.90228  0.72932   0.1154     O
H       0.9088   0.2136   0.1556     H
H        0.909   0.5198   0.0917     H
O      0.91791  0.00229   0.6329     O
C       0.9255   0.8107   0.0811     C
C       0.9258   0.3006   0.1769     C
C       0.9272   0.4842   0.1407     C
H       0.9546   0.4398   0.6159     H
H       0.9555   0.8791   0.4807     H
Cd     0.97592  0.21966   0.7125    Cd
Br     0.97612  0.68646  0.61467    Br
C       0.9811   0.3803   0.2813     C
N       0.9816    0.561   0.2427     N
C        0.992   0.4914   0.6872     C
O      0.99771  0.08209   0.8671     O
