data_I
_chemical_name_common  '/home/zhangsd/repos/MofS-CGCNN/ML/data/TSD/clean_cifs/HEBJAB_clean'
_cell_length_a  9.73000
_cell_length_b 10.19000
_cell_length_c 19.52900
_cell_angle_alpha 78.01100
_cell_angle_beta  80.40000
_cell_angle_gamma 87.70500
_space_group_name_H-M_alt      'P 1'


loop_
_space_group_symop_operation_xyz
  'x, y, z' 

loop_
_atom_site_label
_atom_site_fract_x
_atom_site_fract_y
_atom_site_fract_z
_atom_site_type_symbol
Co         0.0      0.0      0.0    Co
H       0.0046   0.0798   0.2067     H
H       0.0054   0.5392   0.8402     H
H       0.0122   0.9018   0.6762     H
C       0.0136   0.7146   0.2808     C
H       0.0169    0.616   0.1476     H
N       0.0362   0.4411  0.93735     N
C       0.0373   0.5483   0.3763     C
C       0.0419   0.4523   0.8603     C
H       0.0505   0.7657   0.2368     H
C       0.0825   0.9173   0.7656     C
O       0.0847   0.9945  0.89611     O
H       0.0876   0.6352   0.9281     H
H       0.0918   0.4822   0.3995     H
C       0.0929   0.9072   0.6951     C
N       0.0933   0.6191  0.31283     N
C       0.0982   0.4319   0.5903     C
C       0.1102   0.5435   0.0291     C
C       0.1203   0.5485   0.9508     C
C       0.1224   0.2594   0.6895     C
H       0.1329   0.4843   0.5463     H
H       0.1471   0.4584   0.0515     H
H       0.1552   0.8381   0.5713     H
H       0.1661   0.6146   0.0363     H
H       0.1745   0.1925   0.7139     H
C       0.1801   0.3324   0.6241     C
C       0.1875   0.4365   0.8229     C
C       0.1916   0.9327   0.8716     C
C       0.2027   0.9232   0.7945     C
H        0.209   0.2359   0.8563     H
H        0.217   0.5383   0.9303     H
H       0.2207   0.6294   0.7731     H
C       0.2218   0.9051   0.6523     C
O       0.2251   0.0244  0.53251     O
O       0.2313   0.3255  0.23729     O
C       0.2315   0.8921   0.5761     C
H       0.2355   0.2334   0.4374     H
C       0.2442   0.0307   0.4606     C
C       0.2462   0.1581    0.417     C
C       0.2551   0.3126   0.8295     C
C       0.2622   0.5449   0.7805     C
H       0.2638    0.833    0.457     H
C       0.2639   0.1742   0.3441     C
C       0.2644   0.9188   0.4289     C
C       0.2652   0.3119   0.2975     C
C       0.2832    0.062   0.3127     C
C       0.2853   0.9359   0.3561     C
O        0.286   0.8828  0.90534     O
H       0.2943   0.0718   0.2636     H
O       0.3022   0.4059  0.32374     O
C       0.3112    0.813   0.3241     C
Co     0.31389  0.60439  0.27743    Co
H       0.3185   0.8484   0.5611     H
O       0.3206   0.7004  0.36468     O
O       0.3218   0.8228  0.25753     O
H       0.3226   0.2226   0.5685     H
C       0.3264   0.3004   0.5895     C
C       0.3331   0.9194   0.7523     C
C       0.3415    0.912   0.6817     C
H       0.3547   0.5485   0.5978     H
H       0.3856   0.2779   0.6257     H
N        0.387   0.4114  0.53542     N
C       0.3913   0.3042   0.7959     C
C       0.3976   0.5283   0.7493     C
H       0.4139   0.9219   0.7716     H
H       0.4222   0.6713   0.4827     H
H       0.4284   0.9116   0.6535     H
C       0.4332   0.5176   0.5674     C
H       0.4341   0.2203   0.8008     H
H       0.4452   0.6032   0.7214     H
N       0.4647   0.4093  0.75711     N
H       0.4778   0.2974   0.4674     H
C        0.493   0.6334   0.5108     C
H       0.4969   0.5183   0.4036     H
H       0.5031   0.4817   0.5964     H
C        0.507   0.3666   0.4892     C
H       0.5222   0.7026   0.5326     H
N       0.5353   0.5907  0.24289     N
H       0.5548   0.3968   0.2786     H
H       0.5659   0.7797   0.1992     H
C       0.5668   0.4824   0.4326     C
H       0.5716   0.0884   0.3465     H
H       0.5778   0.3287   0.5173     H
H       0.5861   0.0781   0.2284     H
C       0.6024   0.4717   0.2507     C
C       0.6087   0.6958   0.2041     C
N        0.613   0.5886  0.46458     N
H       0.6144   0.7221   0.3743     H
H       0.6453   0.4515   0.4022     H
C       0.6585    0.088   0.3183     C
C       0.6669   0.0806   0.2477     C
C       0.6736   0.6996   0.4105     C
H       0.6774   0.7774   0.4315     H
O       0.6782   0.1772  0.74247     O
O       0.6794   0.2996  0.63532     O
H       0.6815   0.1516   0.4389     H
Co     0.68611  0.39561  0.72257    Co
C       0.6888    0.187   0.6759     C
O       0.6978   0.5941  0.67626     O
H       0.7057   0.9282   0.7364     H
O        0.714   0.1172  0.09466     O
C       0.7147   0.0641   0.6439     C
C       0.7168    0.938   0.6873     C
C       0.7348   0.6881   0.7025     C
C       0.7356   0.0812   0.5711     C
C       0.7361   0.8258   0.6559     C
H       0.7362    0.167    0.543     H
C       0.7378   0.4551   0.2195     C
C       0.7449   0.6874   0.1705     C
C       0.7538   0.8419    0.583     C
C       0.7558   0.9693   0.5394     C
H       0.7645   0.7666   0.5626     H
C       0.7685   0.1079   0.4239     C
O       0.7687   0.6745  0.76271     O
O       0.7749   0.9756  0.46749     O
C       0.7782   0.0949   0.3477     C
H       0.7793   0.3706   0.2269     H
H        0.783   0.4617   0.0697     H
H        0.791   0.7641   0.1437     H
C       0.7973   0.0768   0.2055     C
C       0.8084   0.0673   0.1284     C
C       0.8125   0.5635   0.1771     C
C       0.8199   0.6676   0.3759     C
H       0.8255   0.8075   0.2861     H
H       0.8339   0.3854   0.9637     H
H       0.8448   0.1619   0.4287     H
H       0.8529   0.5416   0.9485     H
H       0.8671   0.5157   0.4537     H
C       0.8776   0.7406   0.3105     C
C       0.8797   0.4515   0.0492     C
C       0.8898   0.4565   0.9709     C
C       0.9018   0.5681   0.4097     C
N       0.9067   0.3809  0.68717     N
C       0.9071   0.0928   0.3049     C
H       0.9082   0.5178   0.6005     H
H       0.9124   0.3648   0.0719     H
O       0.9153   0.0055  0.10389     O
C       0.9175   0.0827   0.2344     C
H       0.9495   0.2343   0.7632     H
C       0.9581   0.5477   0.1397     C
C       0.9627   0.4517   0.6237     C
N       0.9638   0.5589  0.06265     N
H       0.9831    0.384   0.8524     H
C       0.9864   0.2854   0.7192     C
H       0.9878   0.0982   0.3238     H
H       0.9946   0.4608   0.1598     H
H       0.9954   0.9202   0.7933     H
