data_I
_chemical_name_common  '/home/zhangsd/repos/MofS-CGCNN/ML/data/TSD/clean_cifs/HEBKEG_clean'
_cell_length_a  5.87510
_cell_length_b 15.06700
_cell_length_c 16.41600
_cell_angle_alpha 90.00000
_cell_angle_beta  90.00000
_cell_angle_gamma 90.00000
_space_group_name_H-M_alt      'P 1'


loop_
_space_group_symop_operation_xyz
  'x, y, z' 

loop_
_atom_site_label
_atom_site_fract_x
_atom_site_fract_y
_atom_site_fract_z
_atom_site_type_symbol
H       0.0119   0.5266   0.1674     H
H       0.0292   0.6129   0.7461     H
C       0.0327   0.4819   0.2829     C
H       0.0647     0.53   0.6237     H
C       0.0648    0.995   0.2924     C
N       0.0689   0.9376   0.1567     N
C       0.0977   0.0264   0.8864     C
Cl      0.0991  0.46916  0.96741    Cl
C       0.1075   0.3489   0.6558     C
Cd       0.113  0.41141  0.46366    Cd
C       0.1135   0.0877   0.7457     C
H       0.1181   0.2917   0.6827     H
C        0.129   0.8595   0.8811     C
H       0.1315   0.3946   0.6965     H
H       0.1373   0.0751   0.9224     H
N       0.1443   0.9421   0.9298     N
H        0.152   0.1294   0.6308     H
O       0.1636   0.7926  0.01238     O
H       0.1771   0.5051   0.2922     H
C       0.1787   0.7804   0.9368     C
H         0.19     0.69    0.071     H
H       0.2133   0.0546   0.4514     H
O       0.2181   0.7083  0.90236     O
C        0.219   0.0399   0.8073     C
O       0.2195   0.6448   0.0946     O
C       0.2238   0.0973   0.6718     C
H       0.2423   0.8613   0.8373     H
H       0.2577   0.1387   0.3373     H
C       0.2762   0.9027   0.1718     C
O       0.2805   0.3552   0.5946     O
C        0.281   0.9601   0.3073     C
O       0.2819   0.2917  0.40236     O
H       0.2867   0.9454   0.9514     H
H         0.31     0.31    0.571     H
C       0.3213   0.2196   0.4368     C
H       0.3229   0.4949   0.7922     H
O       0.3364   0.2074  0.51238     O
H        0.348   0.8706   0.1308     H
N       0.3557   0.0579   0.4298     N
H       0.3627   0.9249   0.4224     H
H       0.3685   0.6054   0.1965     H
C        0.371   0.1405   0.3811     C
H       0.3819   0.7083   0.1827     H
C       0.3865   0.9123   0.2457     C
Cd       0.387  0.58859  0.96366    Cd
C       0.3925   0.6511   0.1558     C
Cl      0.4009  0.53084  0.46741    Cl
C       0.4023   0.9736   0.3864     C
N       0.4311   0.0624   0.6567     N
C       0.4352    0.005   0.7924     C
H       0.4353     0.47   0.1237     H
C       0.4673   0.5181   0.7829     C
H       0.4708   0.3871   0.2461     H
H       0.4881   0.4734   0.6674     H
H       0.5119   0.9734   0.8326     H
H       0.5292   0.8871   0.2539     H
C       0.5327   0.0181   0.7171     C
H       0.5647     0.97   0.3763     H
C       0.5648    0.505   0.7076     C
N       0.5689   0.5624   0.8433     N
C       0.5977   0.4736   0.1136     C
Cl      0.5991  0.03084  0.03259    Cl
C       0.6075   0.1511   0.3442     C
Cd       0.613  0.08859  0.53634    Cd
C       0.6135   0.4123   0.2543     C
H       0.6181   0.2083   0.3173     H
C        0.629   0.6405   0.1189     C
H       0.6315   0.1054   0.3035     H
H       0.6373   0.4249   0.0776     H
N       0.6443   0.5579   0.0702     N
H        0.652   0.3706   0.3692     H
O       0.6636   0.7074  0.98762     O
H       0.6771   0.9949   0.7078     H
C       0.6787   0.7196   0.0632     C
H         0.69     0.81    0.929     H
H       0.7133   0.4454   0.5486     H
O       0.7181   0.7917  0.09764     O
C        0.719   0.4601   0.1927     C
O       0.7195   0.8552   0.9054     O
C       0.7238   0.4027   0.3282     C
H       0.7423   0.6387   0.1627     H
H       0.7577   0.3613   0.6627     H
C       0.7762   0.5973   0.8282     C
O       0.7805   0.1448   0.4054     O
C        0.781   0.5399   0.6927     C
O       0.7819   0.2083  0.59764     O
H       0.7867   0.5546   0.0486     H
H         0.81     0.19    0.429     H
C       0.8213   0.2804   0.5632     C
H       0.8229   0.0051   0.2078     H
O       0.8364   0.2926  0.48762     O
H        0.848   0.6294   0.8692     H
N       0.8557   0.4421   0.5702     N
H       0.8627   0.5751   0.5776     H
H       0.8685   0.8946   0.8035     H
C        0.871   0.3595   0.6189     C
H       0.8819   0.7917   0.8173     H
C       0.8865   0.5877   0.7543     C
Cd       0.887  0.91141  0.03634    Cd
C       0.8925   0.8489   0.8442     C
Cl      0.9009  0.96916  0.53259    Cl
C       0.9023   0.5264   0.6136     C
N       0.9311   0.4376   0.3433     N
C       0.9352    0.495   0.2076     C
H       0.9353     0.03   0.8763     H
C       0.9673   0.9819   0.2171     C
H       0.9708   0.1129   0.7539     H
H       0.9881   0.0266   0.3326     H
