data_I
_chemical_name_common  '/home/zhangsd/repos/MofS-CGCNN/ML/data/TSD/clean_cifs/HEDBID_clean'
_cell_length_a 10.89810
_cell_length_b 11.54520
_cell_length_c 13.40860
_cell_angle_alpha 69.39900
_cell_angle_beta  79.95900
_cell_angle_gamma 62.24200
_space_group_name_H-M_alt      'P 1'


loop_
_space_group_symop_operation_xyz
  'x, y, z' 

loop_
_atom_site_label
_atom_site_fract_x
_atom_site_fract_y
_atom_site_fract_z
_atom_site_type_symbol
C       0.0085   0.3378   0.8459     C
C       0.0332    0.258   0.7807     C
C       0.0807   0.7226    0.283     C
H      0.09665  0.36347  0.95335     H
O       0.0995   0.6432   0.3775     O
C        0.116   0.3123   0.9049     C
C       0.1268    0.543   0.1521     C
O       0.1434   0.4696    0.096     O
O       0.1435   0.2503   0.5248     O
O       0.1463   0.7915   0.2388     O
C       0.1677   0.1546   0.7746     C
H      0.18441  0.09619  0.73261     H
O       0.2262   0.5136   0.2063     O
C       0.2501   0.2156   0.8961     C
C       0.2575   0.2556   0.4967     C
O        0.265   0.3678   0.4703     O
C        0.278   0.1357    0.829     C
H      0.29277  0.00102  0.58313     H
O       0.3107    0.215   0.0545     O
C       0.3549   0.2008   0.9633     C
U      0.36923  0.29599  0.16749     U
C       0.3781   0.0005   0.5491     C
Nd     0.37968  0.78368  0.22409    Nd
C       0.3846   0.1246   0.4976     C
C       0.4191    0.029   0.8104     C
O        0.423   0.7028   0.5704     O
O       0.4272   0.9098   0.8277     O
C       0.4745   0.7474   0.6141     C
O       0.4748   0.1791   0.9318     O
O        0.483   0.9402   0.2213     O
C       0.4912   0.8756   0.5527     C
O       0.4947    0.307   0.2875     O
O       0.5053    0.693   0.7125     O
C       0.5088   0.1244   0.4473     C
O        0.517   0.0598   0.7787     O
O       0.5252   0.8209   0.0682     O
C       0.5255   0.2526   0.3859     C
O       0.5728   0.0902   0.1723     O
O        0.577   0.2972   0.4296     O
C       0.5809    0.971   0.1896     C
C       0.6154   0.8754   0.5024     C
Nd     0.62032  0.21632  0.77591    Nd
C       0.6219   0.9995   0.4509     C
U      0.63077  0.70401  0.83251     U
C       0.6451   0.7992   0.0367     C
O       0.6893    0.785   0.9455     O
H      0.70723  0.99898  0.41687     H
C        0.722   0.8643    0.171     C
O        0.735   0.6322   0.5297     O
C       0.7425   0.7444   0.5033     C
C       0.7499   0.7844   0.1039     C
O       0.7738   0.4864   0.7937     O
H      0.81559  0.90381  0.26739     H
C       0.8323   0.8454   0.2254     C
O       0.8537   0.2085   0.7612     O
O       0.8565   0.7497   0.4752     O
O       0.8566   0.5304    0.904     O
C       0.8732    0.457   0.8479     C
C        0.884   0.6877   0.0951     C
O       0.9005   0.3568   0.6225     O
H      0.90335  0.63653  0.04665     H
C       0.9193   0.2774    0.717     C
C       0.9668    0.742   0.2193     C
C       0.9915   0.6622   0.1541     C
U          1.0      0.5      0.5     U
