data_I
_chemical_name_common  '/home/zhangsd/repos/MofS-CGCNN/ML/data/TSD/clean_cifs/HEDBUP_clean'
_cell_length_a  8.32030
_cell_length_b 15.83670
_cell_length_c 21.50470
_cell_angle_alpha 90.00000
_cell_angle_beta  90.00000
_cell_angle_gamma 90.00000
_space_group_name_H-M_alt      'P 1'


loop_
_space_group_symop_operation_xyz
  'x, y, z' 

loop_
_atom_site_label
_atom_site_fract_x
_atom_site_fract_y
_atom_site_fract_z
_atom_site_type_symbol
C       0.0116   0.8218   0.9812     C
C       0.0145    0.916   0.9793     C
U      0.01593  0.63375  0.47188     U
C       0.0178   0.1869   0.9781     C
C       0.0215   0.0928   0.9806     C
U      0.02296  0.35581  0.47608     U
O       0.0425    0.772   0.5238     O
O       0.0605   0.2166   0.5242     O
C       0.0716   0.9506   0.5253     C
C       0.0761   0.0381    0.524     C
O       0.0764   0.4949   0.4527     O
O       0.0776   0.2261   0.9334     O
O       0.0833   0.7815   0.9391     O
O       0.0999   0.8916   0.6258     O
C       0.1003   0.9597   0.9351     C
C       0.1074   0.0478   0.9347     C
O       0.1115   0.9004   0.8341     O
O        0.116   0.0925    0.625     O
O        0.133   0.0937    0.832     O
Nd     0.14548   0.1565  0.72772    Nd
O       0.1582   0.6176   0.8936     O
O       0.1654   0.3956    0.889     O
C       0.1659   0.9046   0.5752     C
C       0.1757   0.0841   0.5729     C
O       0.1846   0.6073   0.5583     O
O       0.1893   0.3836   0.5622     O
C       0.1901   0.9125   0.8829     C
C       0.1987   0.0926   0.8837     C
C       0.3013   0.5926   0.8837     C
C       0.3099   0.4125   0.8829     C
O       0.3107   0.8836   0.5622     O
O       0.3154   0.1073   0.5583     O
C       0.3243   0.5841   0.5729     C
C       0.3341   0.4046   0.5752     C
O       0.3346   0.8956    0.889     O
O       0.3418   0.1176   0.8936     O
Nd     0.35452   0.6565  0.72772    Nd
O        0.367   0.5937    0.832     O
O        0.384   0.5925    0.625     O
O       0.3885   0.4004   0.8341     O
C       0.3926   0.5478   0.9347     C
C       0.3997   0.4597   0.9351     C
O       0.4001   0.3916   0.6258     O
O       0.4167   0.2815   0.9391     O
O       0.4224   0.7261   0.9334     O
O       0.4236   0.9949   0.4527     O
C       0.4239   0.5381    0.524     C
C       0.4284   0.4506   0.5253     C
O       0.4395   0.7166   0.5242     O
O       0.4575    0.272   0.5238     O
U      0.47704  0.85581  0.47608     U
C       0.4785   0.5928   0.9806     C
C       0.4822   0.6869   0.9781     C
U      0.48407  0.13375  0.47188     U
C       0.4855    0.416   0.9793     C
C       0.4884   0.3218   0.9812     C
C       0.5116   0.6782   0.4812     C
C       0.5145    0.584   0.4793     C
U      0.51593  0.86625  0.97188     U
C       0.5178   0.3131   0.4781     C
C       0.5215   0.4072   0.4806     C
U      0.52296  0.14419  0.97608     U
O       0.5425    0.728   0.0238     O
O       0.5605   0.2834   0.0242     O
C       0.5716   0.5494   0.0253     C
C       0.5761   0.4619    0.024     C
O       0.5764   0.0051   0.9527     O
O       0.5776   0.2739   0.4334     O
O       0.5833   0.7185   0.4391     O
O       0.5999   0.6084   0.1258     O
C       0.6003   0.5403   0.4351     C
C       0.6074   0.4522   0.4347     C
O       0.6115   0.5996   0.3341     O
O        0.616   0.4075    0.125     O
O        0.633   0.4063    0.332     O
Nd     0.64548   0.3435  0.22772    Nd
O       0.6582   0.8824   0.3936     O
O       0.6654   0.1044    0.389     O
C       0.6659   0.5954   0.0752     C
C       0.6757   0.4159   0.0729     C
O       0.6846   0.8927   0.0583     O
O       0.6893   0.1164   0.0622     O
C       0.6901   0.5875   0.3829     C
C       0.6987   0.4074   0.3837     C
C       0.8013   0.9074   0.3837     C
C       0.8099   0.0875   0.3829     C
O       0.8107   0.6164   0.0622     O
O       0.8154   0.3927   0.0583     O
C       0.8243   0.9159   0.0729     C
C       0.8341   0.0954   0.0752     C
O       0.8346   0.6044    0.389     O
O       0.8418   0.3824   0.3936     O
Nd     0.85452   0.8435  0.22772    Nd
O        0.867   0.9063    0.332     O
O        0.884   0.9075    0.125     O
O       0.8885   0.0996   0.3341     O
C       0.8926   0.9522   0.4347     C
C       0.8997   0.0403   0.4351     C
O       0.9001   0.1084   0.1258     O
O       0.9167   0.2185   0.4391     O
O       0.9224   0.7739   0.4334     O
O       0.9236   0.5051   0.9527     O
C       0.9239   0.9619    0.024     C
C       0.9284   0.0494   0.0253     C
O       0.9395   0.7834   0.0242     O
O       0.9575    0.228   0.0238     O
U      0.97704  0.64419  0.97608     U
C       0.9785   0.9072   0.4806     C
C       0.9822   0.8131   0.4781     C
U      0.98407  0.36625  0.97188     U
C       0.9855    0.084   0.4793     C
C       0.9884   0.1782   0.4812     C
