data_I
_chemical_name_common  '/home/zhangsd/repos/MofS-CGCNN/ML/data/TSD/clean_cifs/HEDCIE_clean'
_cell_length_a 15.91900
_cell_length_b 18.33070
_cell_length_c 20.08700
_cell_angle_alpha 65.48420
_cell_angle_beta  66.65610
_cell_angle_gamma 64.26460
_space_group_name_H-M_alt      'P 1'


loop_
_space_group_symop_operation_xyz
  'x, y, z' 

loop_
_atom_site_label
_atom_site_fract_x
_atom_site_fract_y
_atom_site_fract_z
_atom_site_type_symbol
H       0.0162   0.9055   0.3419     H
C       0.0235   0.1682   0.1822     C
H       0.0257   0.2538    0.075     H
O       0.0335   0.1169   0.4679     O
C       0.0397   0.6573   0.7205     C
O       0.0472   0.9799   0.5977     O
O       0.0474   0.3035   0.2353     O
H       0.0503   0.7683   0.6375     H
H       0.0524   0.0699   0.2725     H
Cu     0.05615  0.94721  0.45849    Cu
C        0.063   0.2045   0.1031     C
O       0.0664   0.7939   0.7793     O
H       0.0666   0.5358   0.7902     H
H        0.076   0.4276    0.249     H
C        0.078   0.8668   0.3414     C
C       0.0794   0.0942   0.2218     C
H       0.0807   0.8187   0.2679     H
C       0.0826   0.7105   0.6519     C
C       0.0929   0.5706   0.7446     C
H       0.0931   0.2311   0.4389     H
C        0.109   0.0937   0.4159     C
H       0.1105   0.8169   0.8833     H
C        0.119   0.8194   0.2924     C
C       0.1203   0.3398    0.197     C
N       0.1238     0.86   0.3898     N
H       0.1247   0.9717   0.6855     H
C       0.1263   0.4023   0.2135     C
C       0.1267   0.9216   0.5778     C
O       0.1339   0.0271   0.3963     O
C        0.143   0.7457   0.8123     C
O       0.1466   0.8897   0.5265     O
C       0.1492   0.2183   0.4007     C
C       0.1544   0.7689   0.8689     C
C       0.1597   0.1639   0.0687     C
H       0.1673   0.6813   0.2321     H
C       0.1719   0.6764   0.6068     C
C       0.1722   0.1488    0.377     C
C       0.1783   0.0535   0.1873     C
C       0.1834   0.9294    0.675     C
H       0.1865   0.1878   0.0178     H
C       0.1868   0.5359   0.6995     C
H       0.1893   0.3169   0.3833     H
H       0.1904   0.2565   0.1327     H
C       0.1955   0.2989   0.1435     C
H       0.1967   0.7112   0.5606     H
C       0.2046   0.8885   0.6209     C
C       0.2078   0.2689   0.3689     C
H       0.2119   0.6655   0.7493     H
C       0.2122   0.4294    0.175     C
C       0.2135   0.8085   0.3843     C
C       0.2154   0.6787   0.7879     C
C       0.2157   0.7726   0.2784     C
C       0.2162   0.0884   0.1096     C
H       0.2163   0.0053   0.2157     H
H       0.2181   0.4717   0.1855     H
H       0.2217   0.4788   0.7158     H
C       0.2268   0.5896    0.629     C
C       0.2308   0.6806   0.2076     C
C       0.2318   0.7183   0.9007     C
H       0.2369   0.7311   0.9389     H
H       0.2459   0.8012   0.4174     H
H       0.2474   0.9276    0.749     H
C       0.2562     0.13   0.3196     C
C       0.2579   0.9023   0.7135     C
C       0.2627   0.7634   0.3286     C
H       0.2636   0.5945   0.1581     H
C       0.2667   0.7274   0.2216     C
H       0.2712    0.085   0.3022     H
C       0.2804   0.3256   0.1064     C
C        0.286   0.3885   0.1209     C
C       0.2862   0.6332   0.1586     C
C       0.2876   0.8256   0.6064     C
C       0.2942     0.63   0.8196     C
H       0.2972   0.7991   0.5721     H
C        0.299   0.2457   0.3123     C
C        0.302   0.6488    0.877     C
C        0.318   0.1787   0.2879     C
C       0.3219   0.0488   0.0728     C
C       0.3262   0.5534   0.5828     C
H       0.3263   0.7277   0.3259     H
H       0.3316   0.2991   0.0721     H
H       0.3416    0.585   0.8022     H
C       0.3429   0.8398    0.697     C
H       0.3545   0.2462    0.425     H
C       0.3547   0.7366   0.1714     C
O       0.3554   0.6053   0.5145     O
O       0.3565   0.0975   0.0075     O
O       0.3604   0.2939   0.2793     O
C       0.3621   0.7989   0.6435     C
O       0.3676   0.9746    0.102     O
C       0.3706   0.2955   0.3969     C
H       0.3733   0.1655   0.2493     H
N       0.3736     0.64   0.1102     N
C       0.3739   0.3318   0.3178     C
C       0.3739   0.4216   0.0778     C
O       0.3752   0.4799   0.0977     O
O       0.3764   0.4789   0.6071     O
H       0.3799   0.7723   0.1741     H
C       0.3814   0.5937   0.9159     C
O       0.3817   0.6169   0.9679     O
H       0.3921   0.3122   0.4822     H
C       0.3923   0.3361   0.4313     C
H       0.3926   0.9642   0.7098     H
H       0.3948   0.4301   0.2275     H
C       0.3954   0.4058   0.2782     C
C       0.4063   0.6915   0.1157     C
C       0.4081   0.9294   0.7554     C
O       0.4138   0.8035   0.7353     O
C       0.4142   0.4116   0.3904     C
H       0.4163   0.0212   0.7842     H
C       0.4175   0.8427   0.7795     C
C       0.4191   0.4465   0.3127     C
H       0.4204   0.7565   0.6327     H
C       0.4222   0.9641   0.8005     C
O       0.4372   0.3897   0.0265     O
H       0.4373   0.4947   0.2843     H
O       0.4427   0.5271   0.8963     O
C       0.4435   0.4512   0.4272     C
O       0.4442   0.5254    0.398     O
C        0.445   0.7895   0.8481     C
C       0.4454   0.9104    0.871     C
C       0.4551   0.8236   0.8932     C
H       0.4561   0.7317   0.8625     H
O       0.4615   0.4025   0.4925     O
Cu     0.46185  0.55279  0.04151    Cu
O       0.4624   0.0211   0.8929     O
C       0.4624   0.9466   0.9172     C
H       0.4645   0.6988   0.0826     H
H       0.4685   0.7888   0.9394     H
O       0.4752   0.8947   0.9855     O
Cu     0.48767  0.57365  0.44525    Cu
Cu     0.49343  0.07365  0.94525    Cu
Cu     0.50657  0.92635  0.05475    Cu
Cu     0.51233  0.42635  0.55475    Cu
O       0.5248   0.1053   0.0145     O
H       0.5315   0.2112   0.0606     H
H       0.5355   0.3012   0.9174     H
C       0.5376   0.0534   0.0828     C
O       0.5376   0.9789   0.1071     O
Cu     0.53815  0.44721  0.95849    Cu
O       0.5385   0.5975   0.5075     O
H       0.5439   0.2683   0.1375     H
C       0.5449   0.1764   0.1068     C
C       0.5546   0.0896    0.129     C
C        0.555   0.2105   0.1519     C
O       0.5558   0.4746    0.602     O
C       0.5565   0.5488   0.5728     C
O       0.5573   0.4729   0.1037     O
H       0.5627   0.5053   0.7157     H
O       0.5628   0.6103   0.9735     O
C       0.5778   0.0359   0.1995     C
H       0.5796   0.2435   0.3673     H
C       0.5809   0.5535   0.6873     C
C       0.5825   0.1573   0.2205     C
H       0.5837   0.9788   0.2158     H
C       0.5858   0.5884   0.6096     C
O       0.5862   0.1965   0.2647     O
C       0.5919   0.0706   0.2446     C
C       0.5937   0.3085   0.8843     C
C       0.6046   0.5942   0.7218     C
H       0.6052   0.5699   0.7725     H
H       0.6074   0.0358   0.2902     H
C       0.6077   0.6639   0.5687     C
H       0.6079   0.6878   0.5178     H
O       0.6183   0.3831   0.0321     O
C       0.6186   0.4063   0.0841     C
H       0.6201   0.2277   0.8259     H
O       0.6236   0.5211   0.3929     O
O       0.6248   0.5201   0.9023     O
C       0.6261   0.5784   0.9222     C
C       0.6261   0.6682   0.6822     C
N       0.6264     0.36   0.8898     N
H       0.6267   0.8345   0.7507     H
C       0.6294   0.7045   0.6031     C
O       0.6324   0.0254    0.898     O
C       0.6379   0.2011   0.3565     C
O       0.6396   0.7061   0.7207     O
O       0.6435   0.9025   0.9925     O
O       0.6446   0.3947   0.4855     O
C       0.6453   0.2634   0.8286     C
H       0.6455   0.7538    0.575     H
C       0.6571   0.1602    0.303     C
H       0.6584    0.415   0.1978     H
H       0.6684   0.7009   0.9279     H
H       0.6737   0.2723   0.6741     H
C       0.6738   0.4466   0.4172     C
C       0.6781   0.9512   0.9272     C
C        0.682   0.8213   0.7121     C
C        0.698   0.3512    0.123     C
C        0.701   0.7543   0.6877     C
H       0.7028   0.2009   0.4279     H
C       0.7058     0.37   0.1804     C
C       0.7124   0.1744   0.3936     C
C       0.7138   0.3668   0.8414     C
C        0.714   0.6115   0.8791     C
C       0.7196   0.6744   0.8936     C
H       0.7288    0.915   0.6978     H
C       0.7333   0.2726   0.7784     C
H       0.7364   0.4055   0.8419     H
C       0.7373   0.2366   0.6714     C
C       0.7421   0.0977   0.2865     C
C       0.7438     0.87   0.6804     C
H       0.7526   0.0724    0.251     H
H       0.7541   0.1988   0.5826     H
H       0.7631   0.2689   0.0611     H
C       0.7682   0.2817   0.0993     C
C       0.7692   0.3194   0.7924     C
C       0.7732   0.4104    0.371     C
H       0.7783   0.5212   0.2842     H
H       0.7819   0.5283   0.8145     H
H       0.7837   0.9947   0.7843     H
C       0.7838   0.9116   0.8904     C
C       0.7843   0.2274   0.7216     C
C       0.7846   0.3213   0.2121     C
C       0.7865   0.1915   0.6157     C
C       0.7878   0.5706    0.825     C
H       0.7881   0.3345   0.2507     H
C       0.7922   0.7311   0.6311     C
C       0.7954   0.1115   0.3791     C
H       0.8033   0.2888   0.4394     H
C       0.8045   0.7011   0.8565     C
H       0.8096   0.7435   0.8673     H
H       0.8107   0.6831   0.6167     H
C       0.8132   0.4641   0.3005     C
H       0.8135   0.8122   0.9822     H
C       0.8166   0.0706    0.325     C
C       0.8217   0.9465   0.8127     C
C       0.8278   0.8512    0.623     C
C       0.8281   0.3236   0.3932     C
H       0.8327   0.3187   0.7679     H
C       0.8403   0.8361   0.9313     C
C       0.8456   0.2311   0.1311     C
C       0.8508   0.7817   0.5993     C
O       0.8534   0.1103   0.4735     O
C        0.857   0.2543   0.1877     C
O       0.8661   0.9729   0.6037     O
C       0.8733   0.0784   0.4222     C
C       0.8737   0.5977   0.7865     C
H       0.8753   0.0283   0.3145     H
N       0.8762     0.14   0.6102     N
C       0.8797   0.6602    0.803     C
C        0.881   0.1806   0.7076     C
H       0.8895   0.1831   0.1167     H
C        0.891   0.9063   0.5841     C
H       0.9069   0.7689   0.5611     H
C       0.9071   0.4294   0.2554     C
C       0.9174   0.2895   0.3481     C
H       0.9193   0.1813   0.7321     H
C       0.9206   0.9058   0.7782     C
C        0.922   0.1332   0.6586     C
H        0.924   0.5724    0.751     H
H       0.9334   0.4642   0.2098     H
O       0.9336   0.2061   0.2207     O
C        0.937   0.7955   0.8969     C
Cu     0.94385  0.05279  0.54151    Cu
H       0.9476   0.9301   0.7275     H
H       0.9497   0.2317   0.3625     H
O       0.9526   0.6965   0.7647     O
O       0.9528   0.0201   0.4023     O
C       0.9603   0.3427   0.2795     C
O       0.9665   0.8831   0.5321     O
H       0.9743   0.7462    0.925     H
C       0.9765   0.8318   0.8178     C
H       0.9838   0.0945   0.6581     H
