data_I
_chemical_name_common  '/home/zhangsd/repos/MofS-CGCNN/ML/data/TSD/clean_cifs/HEDCEA_clean'
_cell_length_a 11.06440
_cell_length_b 16.77580
_cell_length_c 22.43170
_cell_angle_alpha 90.00000
_cell_angle_beta  90.00000
_cell_angle_gamma 90.00000
_space_group_name_H-M_alt      'P 1'


loop_
_space_group_symop_operation_xyz
  'x, y, z' 

loop_
_atom_site_label
_atom_site_fract_x
_atom_site_fract_y
_atom_site_fract_z
_atom_site_type_symbol
O       0.0061   0.0864  0.08106     O
O       0.0061   0.4136  0.58106     O
O       0.0061   0.5864  0.91894     O
O       0.0061   0.9136  0.41894     O
O       0.0252   0.1264  0.96142     O
O       0.0252   0.3736  0.46142     O
O       0.0252   0.6264  0.03858     O
O       0.0252   0.8736  0.53858     O
H       0.0555   0.1775   0.1626     H
H       0.0555   0.3225   0.6626     H
H       0.0555   0.6775   0.8374     H
H       0.0555   0.8225   0.3374     H
Zn     0.09374  0.05903  0.50876    Zn
Zn     0.09374  0.44097  0.00876    Zn
Zn     0.09374  0.55903  0.49124    Zn
Zn     0.09374  0.94097  0.99124    Zn
H       0.1001   0.2407   0.4255     H
H       0.1001   0.2593   0.9255     H
H       0.1001   0.7407   0.5745     H
H       0.1001   0.7593   0.0745     H
C       0.1047   0.0551   0.0939     C
C       0.1047   0.4449   0.5939     C
C       0.1047   0.5551   0.9061     C
C       0.1047   0.9449   0.4061     C
C       0.1239    0.103   0.9403     C
C       0.1239    0.397   0.4403     C
C       0.1239    0.603   0.0597     C
C       0.1239    0.897   0.5597     C
C       0.1289   0.1555   0.1745     C
C       0.1289   0.3445   0.6745     C
C       0.1289   0.6555   0.8255     C
C       0.1289   0.8445   0.3255     C
O         0.15   0.0045   0.4322     O
O         0.15   0.4955   0.9322     O
O         0.15   0.5045   0.5678     O
O         0.15   0.9955   0.0678     O
H       0.1582   0.2322   0.2421     H
H       0.1582   0.2678   0.7421     H
H       0.1582   0.7322   0.7579     H
H       0.1582   0.7678   0.2579     H
H       0.1602   0.2229   0.5555     H
H       0.1602   0.2771   0.0555     H
H       0.1602   0.7229   0.4445     H
H       0.1602   0.7771   0.9445     H
C       0.1614   0.2407   0.9008     C
C       0.1614   0.2593   0.4008     C
C       0.1614   0.7407   0.0992     C
C       0.1614   0.7593   0.5992     C
O        0.167   0.0348   0.9467     O
O        0.167   0.4652   0.4467     O
O        0.167   0.5348   0.0533     O
O        0.167   0.9652   0.5533     O
C       0.1745   0.0903   0.1441     C
C       0.1745   0.4097   0.6441     C
C       0.1745   0.5903   0.8559     C
C       0.1745   0.9097   0.3559     C
C       0.1899   0.1886   0.2218     C
C       0.1899   0.3114   0.7218     C
C       0.1899   0.6886   0.7782     C
C       0.1899   0.8114   0.2782     C
C       0.1937    0.161   0.9025     C
C       0.1937    0.339   0.4025     C
C       0.1937    0.661   0.0975     C
C       0.1937    0.839   0.5975     C
H       0.1978   0.1541   0.3624     H
H       0.1978   0.3459   0.8624     H
H       0.1978   0.6541   0.6376     H
H       0.1978   0.8459   0.1376     H
C       0.2193   0.2077   0.3631     C
C       0.2193   0.2923   0.8631     C
C       0.2193   0.7077   0.6369     C
C       0.2193   0.7923   0.1369     C
C       0.2343   0.2036   0.5424     C
C       0.2343   0.2964   0.0424     C
C       0.2343   0.7036   0.4576     C
C       0.2343   0.7964   0.9576     C
N       0.2402   0.1307   0.5199     N
N       0.2402   0.3693   0.0199     N
N       0.2402   0.6307   0.4801     N
N       0.2402   0.8693   0.9801     N
C       0.2843   0.0593   0.1623     C
C       0.2843   0.4407   0.6623     C
C       0.2843   0.5593   0.8377     C
C       0.2843   0.9407   0.3377     C
C       0.2885   0.1355    0.868     C
C       0.2885   0.3645    0.368     C
C       0.2885   0.6355    0.132     C
C       0.2885   0.8645    0.632     C
C       0.2996   0.1558    0.239     C
C       0.2996   0.3442    0.739     C
C       0.2996   0.6558    0.761     C
C       0.2996   0.8442    0.261     C
C       0.3087   0.2352   0.3265     C
C       0.3087   0.2648   0.8265     C
C       0.3087   0.7352   0.6735     C
C       0.3087   0.7648   0.1735     C
H       0.3138   0.0827   0.8705     H
H       0.3138   0.4173   0.3705     H
H       0.3138   0.5827   0.1295     H
H       0.3138   0.9173   0.6295     H
H       0.3168   0.0158   0.1423     H
H       0.3168   0.4842   0.6423     H
H       0.3168   0.5158   0.8577     H
H       0.3168   0.9842   0.3577     H
H       0.3297   0.1973   0.0633     H
H       0.3297   0.3027   0.5633     H
H       0.3297   0.6973   0.9367     H
H       0.3297   0.8027   0.4367     H
C       0.3362   0.2481   0.0469     C
C       0.3362   0.2519   0.5469     C
C       0.3362   0.7481   0.9531     C
C       0.3362   0.7519   0.4531     C
C        0.346   0.0918   0.2095     C
C        0.346   0.4082   0.7095     C
C        0.346   0.5918   0.7905     C
C        0.346   0.9082   0.2905     C
C       0.3463   0.1052   0.5012     C
C       0.3463   0.3948   0.0012     C
C       0.3463   0.6052   0.4988     C
C       0.3463   0.8948   0.9988     C
C       0.3473   0.1876   0.8293     C
C       0.3473   0.3124   0.3293     C
C       0.3473   0.6876   0.1707     C
C       0.3473   0.8124   0.6707     C
H       0.3503   0.0543   0.4848     H
H       0.3503   0.4457   0.9848     H
H       0.3503   0.5543   0.5152     H
H       0.3503   0.9457   0.0152     H
O       0.3663   0.1847   0.2861     O
O       0.3663   0.3153   0.7861     O
O       0.3663   0.6847   0.7139     O
O       0.3663   0.8153   0.2139     O
H       0.4115   0.1702   0.8058     H
H       0.4115   0.3298   0.3058     H
H       0.4115   0.6702   0.1942     H
H       0.4115   0.8298   0.6942     H
H       0.4195     0.07   0.2213     H
H       0.4195     0.43   0.7213     H
H       0.4195     0.57   0.7787     H
H       0.4195     0.93   0.2787     H
C       0.4453   0.2251   0.5275     C
C       0.4453   0.2749   0.0275     C
C       0.4453   0.7251   0.4725     C
C       0.4453   0.7749   0.9725     C
C       0.4508   0.1485   0.5043     C
C       0.4508   0.3515   0.0043     C
C       0.4508   0.6485   0.4957     C
C       0.4508   0.8515   0.9957     C
H       0.4763   0.1272   0.9912     H
H       0.4763   0.3728   0.4912     H
H       0.4763   0.6272   0.0088     H
H       0.4763   0.8728   0.5088     H
H       0.5237   0.1272   0.4912     H
H       0.5237   0.3728   0.9912     H
H       0.5237   0.6272   0.5088     H
H       0.5237   0.8728   0.0088     H
C       0.5492   0.1485   0.0043     C
C       0.5492   0.3515   0.5043     C
C       0.5492   0.6485   0.9957     C
C       0.5492   0.8515   0.4957     C
C       0.5547   0.2251   0.0275     C
C       0.5547   0.2749   0.5275     C
C       0.5547   0.7251   0.9725     C
C       0.5547   0.7749   0.4725     C
H       0.5805     0.07   0.7213     H
H       0.5805     0.43   0.2213     H
H       0.5805     0.57   0.2787     H
H       0.5805     0.93   0.7787     H
H       0.5885   0.1702   0.3058     H
H       0.5885   0.3298   0.8058     H
H       0.5885   0.6702   0.6942     H
H       0.5885   0.8298   0.1942     H
O       0.6337   0.1847   0.7861     O
O       0.6337   0.3153   0.2861     O
O       0.6337   0.6847   0.2139     O
O       0.6337   0.8153   0.7139     O
H       0.6497   0.0543   0.9848     H
H       0.6497   0.4457   0.4848     H
H       0.6497   0.5543   0.0152     H
H       0.6497   0.9457   0.5152     H
C       0.6527   0.1876   0.3293     C
C       0.6527   0.3124   0.8293     C
C       0.6527   0.6876   0.6707     C
C       0.6527   0.8124   0.1707     C
C       0.6537   0.1052   0.0012     C
C       0.6537   0.3948   0.5012     C
C       0.6537   0.6052   0.9988     C
C       0.6537   0.8948   0.4988     C
C        0.654   0.0918   0.7095     C
C        0.654   0.4082   0.2095     C
C        0.654   0.5918   0.2905     C
C        0.654   0.9082   0.7905     C
C       0.6638   0.2481   0.5469     C
C       0.6638   0.2519   0.0469     C
C       0.6638   0.7481   0.4531     C
C       0.6638   0.7519   0.9531     C
H       0.6703   0.1973   0.5633     H
H       0.6703   0.3027   0.0633     H
H       0.6703   0.6973   0.4367     H
H       0.6703   0.8027   0.9367     H
H       0.6832   0.0158   0.6423     H
H       0.6832   0.4842   0.1423     H
H       0.6832   0.5158   0.3577     H
H       0.6832   0.9842   0.8577     H
H       0.6862   0.0827   0.3705     H
H       0.6862   0.4173   0.8705     H
H       0.6862   0.5827   0.6295     H
H       0.6862   0.9173   0.1295     H
C       0.6913   0.2352   0.8265     C
C       0.6913   0.2648   0.3265     C
C       0.6913   0.7352   0.1735     C
C       0.6913   0.7648   0.6735     C
C       0.7004   0.1558    0.739     C
C       0.7004   0.3442    0.239     C
C       0.7004   0.6558    0.261     C
C       0.7004   0.8442    0.761     C
C       0.7115   0.1355    0.368     C
C       0.7115   0.3645    0.868     C
C       0.7115   0.6355    0.632     C
C       0.7115   0.8645    0.132     C
C       0.7157   0.0593   0.6623     C
C       0.7157   0.4407   0.1623     C
C       0.7157   0.5593   0.3377     C
C       0.7157   0.9407   0.8377     C
N       0.7598   0.1307   0.0199     N
N       0.7598   0.3693   0.5199     N
N       0.7598   0.6307   0.9801     N
N       0.7598   0.8693   0.4801     N
C       0.7657   0.2036   0.0424     C
C       0.7657   0.2964   0.5424     C
C       0.7657   0.7036   0.9576     C
C       0.7657   0.7964   0.4576     C
C       0.7807   0.2077   0.8631     C
C       0.7807   0.2923   0.3631     C
C       0.7807   0.7077   0.1369     C
C       0.7807   0.7923   0.6369     C
H       0.8022   0.1541   0.8624     H
H       0.8022   0.3459   0.3624     H
H       0.8022   0.6541   0.1376     H
H       0.8022   0.8459   0.6376     H
C       0.8063    0.161   0.4025     C
C       0.8063    0.339   0.9025     C
C       0.8063    0.661   0.5975     C
C       0.8063    0.839   0.0975     C
C       0.8101   0.1886   0.7218     C
C       0.8101   0.3114   0.2218     C
C       0.8101   0.6886   0.2782     C
C       0.8101   0.8114   0.7782     C
C       0.8255   0.0903   0.6441     C
C       0.8255   0.4097   0.1441     C
C       0.8255   0.5903   0.3559     C
C       0.8255   0.9097   0.8559     C
O        0.833   0.0348   0.4467     O
O        0.833   0.4652   0.9467     O
O        0.833   0.5348   0.5533     O
O        0.833   0.9652   0.0533     O
C       0.8386   0.2407   0.4008     C
C       0.8386   0.2593   0.9008     C
C       0.8386   0.7407   0.5992     C
C       0.8386   0.7593   0.0992     C
H       0.8398   0.2229   0.0555     H
H       0.8398   0.2771   0.5555     H
H       0.8398   0.7229   0.9445     H
H       0.8398   0.7771   0.4445     H
H       0.8418   0.2322   0.7421     H
H       0.8418   0.2678   0.2421     H
H       0.8418   0.7322   0.2579     H
H       0.8418   0.7678   0.7579     H
O         0.85   0.0045   0.9322     O
O         0.85   0.4955   0.4322     O
O         0.85   0.5045   0.0678     O
O         0.85   0.9955   0.5678     O
C       0.8711   0.1555   0.6745     C
C       0.8711   0.3445   0.1745     C
C       0.8711   0.6555   0.3255     C
C       0.8711   0.8445   0.8255     C
C       0.8761    0.103   0.4403     C
C       0.8761    0.397   0.9403     C
C       0.8761    0.603   0.5597     C
C       0.8761    0.897   0.0597     C
C       0.8953   0.0551   0.5939     C
C       0.8953   0.4449   0.0939     C
C       0.8953   0.5551   0.4061     C
C       0.8953   0.9449   0.9061     C
H       0.8999   0.2407   0.9255     H
H       0.8999   0.2593   0.4255     H
H       0.8999   0.7407   0.0745     H
H       0.8999   0.7593   0.5745     H
Zn     0.90626  0.05903  0.00876    Zn
Zn     0.90626  0.44097  0.50876    Zn
Zn     0.90626  0.55903  0.99124    Zn
Zn     0.90626  0.94097  0.49124    Zn
H       0.9445   0.1775   0.6626     H
H       0.9445   0.3225   0.1626     H
H       0.9445   0.6775   0.3374     H
H       0.9445   0.8225   0.8374     H
O       0.9748   0.1264  0.46142     O
O       0.9748   0.3736  0.96142     O
O       0.9748   0.6264  0.53858     O
O       0.9748   0.8736  0.03858     O
O       0.9939   0.0864  0.58106     O
O       0.9939   0.4136  0.08106     O
O       0.9939   0.5864  0.41894     O
O       0.9939   0.9136  0.91894     O
