data_I
_chemical_name_common  '/home/zhangsd/repos/MofS-CGCNN/ML/data/TSD/clean_cifs/HEGNUD_clean'
_cell_length_a 23.71600
_cell_length_b 23.71600
_cell_length_c 13.44700
_cell_angle_alpha 90.00000
_cell_angle_beta  90.00000
_cell_angle_gamma 120.00000
_space_group_name_H-M_alt      'P 1'


loop_
_space_group_symop_operation_xyz
  'x, y, z' 

loop_
_atom_site_label
_atom_site_fract_x
_atom_site_fract_y
_atom_site_fract_z
_atom_site_type_symbol
N      0.00083  0.50957  0.81577     N
O      0.00286   0.2917  0.87887     O
H      0.00303  0.54307  0.76987     H
O      0.00323  0.60499  0.11493     O
P      0.00633  0.66005  0.05545     P
P      0.00661  0.67961  0.38879     P
O      0.01093  0.71062   0.6391     O
P      0.01294  0.33966  0.27788     P
Cr     0.01668  0.57603  0.24809    Cr
Ga     0.02675  0.42629  0.45388    Ga
H       0.0279   0.2287   0.0882     H
H      0.03013  0.82057  0.48777     H
O      0.03302  0.65574  0.30577     O
O      0.03366  0.54361  0.37043     O
O      0.03393  0.29234  0.65943     O
H      0.03763  0.84797  0.59187     H
O      0.04099  0.40825   0.3261     O
O      0.04164  0.37783  0.54553     O
O      0.04395  0.36636  0.02757     O
O      0.04433  0.86168  0.75687     O
O       0.0445  0.66953   0.7878     O
H      0.04857  0.46403  0.08523     H
H      0.05027  0.53023  0.05853     H
C      0.05137  0.50523  0.11393     C
H       0.0534    0.247   0.9823     H
O      0.05777   0.5924  0.53943     O
N      0.05803  0.83577  0.53587     N
O      0.06167  0.73157  0.44827     O
N       0.0625   0.2513   0.0595     N
O       0.0649  0.33656   0.2184     O
Ga     0.06621  0.30659  0.78722    Ga
C      0.06833  0.54427  0.85007     C
H      0.07193  0.51907  0.90707     H
O      0.07426   0.7987  0.87277     O
H       0.0747   0.1802    0.122     H
O      0.07492  0.70059  0.00723     O
H      0.07583  0.21767  0.55587     H
H       0.0783   0.8247   0.1934     H
H      0.07973  0.58837  0.86007     H
N      0.08203  0.47787  0.72617     N
H      0.08213  0.28477  0.41857     H
H      0.08253  0.17947  0.46617     H
P      0.08544  0.56938  0.45249     P
H      0.08633  0.47307  0.64897     H
O      0.08671  0.24489  0.82307     O
O      0.08845  0.50849  0.48973     O
Cr     0.09063  0.77398  0.58143    Cr
Ga     0.09296  0.73288  0.87945    Ga
H      0.09693  0.91747  0.46617     H
P      0.09728  0.84939  0.78583     P
H       0.1012   0.8714    0.046     H
C       0.1028   0.2241   0.0974     C
H      0.10353  0.56547  0.71267     H
C      0.10423  0.21957  0.49657     C
H      0.10463  0.46587  0.75487     H
H       0.1055   0.9253    0.122     H
Ga     0.10731  0.35001  0.08524    Ga
C      0.10923  0.54537  0.76407     C
N      0.11107  0.60863  0.20253     N
C      0.11377  0.55133  0.16323     C
H       0.1138   0.2614   0.2404     H
C      0.11533  0.89577  0.49657     C
H      0.11567  0.52483  0.22253     H
C      0.12053  0.28197  0.44727     C
C       0.1213   0.8972   0.0974     C
C       0.1224   0.8574   0.1834     C
O      0.12305  0.82338  0.70377     O
H       0.1236   0.7933   0.1032     H
H      0.12377  0.63653  0.15443     H
H      0.12663  0.33637  0.56347     H
H       0.1286   0.2298    0.046     H
H       0.1307   0.7488   0.2481     H
O      0.13203   0.3911   0.7939     O
H      0.13253  0.69457  0.57847     H
H      0.13643  0.85337  0.39187     H
O      0.13832  0.18266  0.75687     O
H      0.13973  0.72007  0.68437     H
H      0.14183  0.92417  0.55587     H
C       0.1426    0.265   0.1834     C
H      0.14367  0.62903  0.25853     H
N      0.14453  0.72917  0.60717     N
H      0.14663  0.28307  0.39187     H
H       0.1476   0.8862   0.2404     H
P      0.15061   0.2479  0.78583     P
O      0.15068  0.62233  0.42353     O
H      0.15203  0.18967  0.59187     H
H      0.15313  0.56117  0.78867     H
H      0.15387  0.56973  0.13283     H
H       0.1539   0.4571   0.1789     H
O      0.15671  0.36699   0.9629     O
N       0.1571   0.8246   0.1491     N
N      0.15793  0.33417  0.51757     N
H      0.15803  0.41307  0.47327     H
O      0.15817  0.91329  0.82307     O
C      0.16143  0.87947  0.44727     C
N      0.16423  0.22227  0.53587     N
N       0.1691   0.4444   0.1308     N
C       0.1719   0.7872   0.2194     C
O      0.17516  0.75338   0.8436     O
H       0.1753   0.2536   0.1934     H
N       0.1754   0.3325   0.1491     N
N      0.17623  0.84207  0.51757     N
O      0.17662  0.29968  0.70377     O
H      0.17943  0.20957  0.48777     H
H      0.17947  0.09693  0.53383     H
H       0.1802   0.1055    0.878     H
H       0.1813    0.477   0.0748     H
O      0.18266  0.04433  0.24313     O
P      0.18272  0.41877  0.88084     P
H      0.18573  0.78047  0.42627     H
H       0.1867   0.3836   0.2748     H
N       0.1888   0.9375   0.0595     N
H      0.18967  0.03763  0.40813     H
C      0.19073  0.40167  0.48327     C
H       0.1915   0.7425   0.1108     H
H       0.1936   0.9466   0.9823     H
O      0.19501  0.48401   0.9098     O
H       0.1969   0.8133   0.2748     H
H       0.2008   0.9721   0.0882     H
O       0.2013  0.27557  0.87277     O
H      0.20263  0.91787  0.41857     H
H      0.20473  0.43687  0.62067     H
H       0.2067   0.3303   0.1032     H
H      0.20957  0.03013  0.51223     H
H      0.20973  0.87337  0.56347     H
O      0.21028  0.84329   0.9629     O
C      0.21093  0.80927  0.48327     C
C      0.21203  0.76947  0.56927     C
C       0.2128   0.3847   0.2194     C
H      0.21767  0.14183  0.44413     H
C        0.218   0.7709   0.1701     C
H      0.21953  0.40527  0.42627     H
C      0.21957  0.11533  0.50343     C
N      0.22227  0.05803  0.46413     N
C       0.2241   0.1213   0.9026     C
Cr     0.22602  0.31666  0.58143    Cr
H      0.22783  0.74137  0.54467     H
H       0.2287   0.2008   0.9118     H
C       0.2291   0.4471   0.1701     C
H       0.2298   0.1012    0.954     H
C      0.23053  0.44257  0.56927     C
H      0.23213  0.79527  0.62067     H
P      0.23605  0.81728  0.88084     P
H       0.2364   0.7492   0.2005     H
Ga     0.24037  0.93379  0.78722    Ga
Ga      0.2427  0.89269  0.08524    Ga
O      0.24489  0.15817  0.17693     O
O      0.24662  0.42178   0.8436     O
H        0.247   0.1936   0.0177     H
P       0.2479  0.09728  0.21417     P
H       0.2508   0.4872   0.2005     H
H       0.2512   0.3819   0.2481     H
N       0.2513   0.1888   0.9405     N
H       0.2536   0.0783   0.8066     H
H      0.25503  0.84197  0.47327     H
H       0.2575    0.449   0.1108     H
O      0.25842  0.96607  0.65943     O
H      0.25863  0.48647  0.54467     H
O      0.25907  0.86797   0.7939     O
H       0.2614   0.1476   0.7596     H
C        0.265   0.1224   0.8166     C
Ga     0.26712  0.36008  0.87945    Ga
O      0.26843  0.33011  0.44827     O
N      0.27083  0.41537  0.60717     N
O      0.27166   0.9351   0.2184     O
N       0.2753   0.8309   0.1308     N
O      0.27557  0.07426  0.12723     O
H      0.27993  0.41967  0.68437     H
C      0.28197  0.16143  0.55273     C
H      0.28307  0.13643  0.60813     H
H      0.28477  0.20263  0.58143     H
O      0.28883  0.99714  0.87887     O
O        0.289  0.80499   0.9098     O
O      0.28938  0.30031   0.6391     O
O       0.2917  0.28883  0.12113     O
O      0.29234  0.25842  0.34057     O
H       0.2957   0.8187   0.0748     H
O      0.29941  0.37432  0.00723     O
O      0.29968  0.12305  0.29623     O
O      0.30031  0.01093   0.3609     O
H       0.3032   0.8461   0.1789     H
H      0.30543  0.43797  0.57847     H
Ga     0.30659  0.24037  0.21278    Ga
Ga     0.31666  0.09063  0.41857    Ga
P      0.32039  0.32701  0.38879     P
O       0.3224  0.95605  0.02757     O
P      0.32672  0.98706  0.27788     P
P      0.32701  0.00661  0.61121     P
O      0.33011  0.06167  0.55173     O
H       0.3303   0.1236   0.8968     H
O      0.33047  0.37497   0.7878     O
N       0.3325   0.1571   0.8509     N
N      0.33417  0.17623  0.48243     N
O       0.3362  0.95836  0.54553     O
H      0.33637  0.20973  0.43653     H
O      0.33656  0.27166   0.7816     O
P      0.33966  0.32672  0.72212     P
P      0.33995  0.34627  0.05545     P
O      0.34426  0.37729  0.30577     O
P      0.34627  0.00633  0.94455     P
Cr     0.35001   0.2427  0.91476    Cr
Ga     0.36008  0.09296  0.12055    Ga
H      0.36123  0.89537  0.75487     H
H      0.36347  0.48723  0.15443     H
O      0.36636   0.3224  0.97243     O
O      0.36699  0.21028   0.0371     O
O      0.36726  0.95901   0.3261     O
H      0.37097  0.51463  0.25853     H
O      0.37432  0.07492  0.99277     O
O      0.37497   0.0445   0.2122     O
O      0.37729  0.03302  0.69423     O
O      0.37767  0.52834  0.42353     O
O      0.37783   0.3362  0.45447     O
H       0.3819   0.1307   0.7519     H
H       0.3836   0.1969   0.7252     H
C       0.3847   0.1719   0.7806     C
H      0.38673  0.91367  0.64897     H
O       0.3911  0.25907   0.2061     O
N      0.39137  0.50243  0.20253     N
O      0.39501  0.39823  0.11493     O
N      0.39583  0.91797  0.72617     N
O      0.39823  0.00323  0.88507     O
Ga     0.39955  0.97325  0.45388    Ga
C      0.40167  0.21093  0.51673     C
H      0.40527  0.18573  0.57373     H
O       0.4076  0.46536  0.53943     O
H      0.40803  0.84687  0.78867     H
O      0.40825  0.36726   0.6739     O
H      0.40917  0.88433  0.22253     H
H      0.41163  0.49137  0.86007     H
H      0.41307  0.25503  0.52673     H
N      0.41537  0.14453  0.39283     N
H      0.41547  0.95143  0.08523     H
H      0.41587  0.84613  0.13283     H
P      0.41877  0.23605  0.11916     P
H      0.41967  0.13973  0.31563     H
O      0.42005  0.91155  0.48973     O
O      0.42178  0.17516   0.1564     O
Cr     0.42397  0.44064  0.24809    Cr
Ga     0.42629  0.39955  0.54612    Ga
H      0.43027  0.58413  0.13283     H
P      0.43062  0.51605  0.45249     P
H      0.43453  0.53807  0.71267     H
C      0.43613  0.89077  0.76407     C
H      0.43687  0.23213  0.37933     H
C      0.43757  0.88623  0.16323     C
H      0.43797  0.13253  0.42153     H
H      0.43883  0.59197  0.78867     H
Ga     0.44064  0.01668  0.75191    Ga
C      0.44257  0.21203  0.43073     C
N       0.4444   0.2753   0.8692     N
C       0.4471    0.218   0.8299     C
H      0.44713  0.92807  0.90707     H
C      0.44867  0.56243  0.16323     C
H        0.449   0.1915   0.8892     H
C      0.45387  0.94863  0.11393     C
C      0.45463  0.56387  0.76407     C
C      0.45573  0.52407  0.85007     C
O      0.45639  0.49004  0.37043     O
H      0.45693  0.45997  0.76987     H
H       0.4571   0.3032   0.8211     H
H      0.45997  0.00303  0.23013     H
H      0.46193  0.89647  0.71267     H
H      0.46403  0.41547  0.91477     H
O      0.46536  0.05777  0.46057     O
H      0.46587  0.36123  0.24513     H
H      0.46977  0.52003  0.05853     H
O      0.47166  0.84932  0.42353     O
H      0.47307  0.38673  0.35103     H
H      0.47517  0.59083  0.22253     H
C      0.47593  0.93167  0.85007     C
H        0.477   0.2957   0.9252     H
N      0.47787  0.39583  0.27383     N
H      0.47997  0.94973  0.05853     H
H      0.48093  0.55287  0.90707     H
P      0.48395  0.91456  0.45249     P
O      0.48401    0.289   0.0902     O
H      0.48537  0.85633  0.25853     H
H      0.48647  0.22783  0.45533     H
H       0.4872   0.2364   0.7995     H
H      0.48723  0.12377  0.84557     H
O      0.49004  0.03366  0.62957     O
N      0.49043  0.49127  0.81577     N
N      0.49127  0.00083  0.18423     N
H      0.49137  0.07973  0.13993     H
O      0.49151  0.57995  0.48973     O
C      0.49477  0.54613  0.11393     C
N      0.49757  0.88893  0.20253     N
N      0.50243  0.11107  0.79747     N
C      0.50523  0.45387  0.88607     C
O      0.50849  0.42005  0.51027     O
H      0.50863  0.92027  0.86007     H
N      0.50873  0.99917  0.81577     N
N      0.50957  0.50873  0.18423     N
O      0.50996  0.96634  0.37043     O
H      0.51277  0.87623  0.15443     H
H       0.5128   0.7636   0.2005     H
H      0.51353  0.77217  0.54467     H
H      0.51463  0.14367  0.74147     H
O      0.51599    0.711   0.9098     O
P      0.51605  0.08544  0.54751     P
H      0.51907  0.44713  0.09293     H
H      0.52003  0.05027  0.94147     H
N      0.52213  0.60417  0.72617     N
H        0.523   0.7043   0.0748     H
C      0.52407  0.06833  0.14993     C
H      0.52483  0.40917  0.77747     H
H      0.52693  0.61327  0.64897     H
O      0.52834  0.15068  0.57647     O
H      0.53023  0.47997  0.94147     H
H      0.53413  0.63877  0.75487     H
O      0.53464  0.94223  0.53943     O
H      0.53597  0.58453  0.08523     H
H      0.53807  0.10353  0.28733     H
H      0.54003  0.99697  0.76987     H
H       0.5429   0.6968   0.1789     H
H      0.54307  0.54003  0.23013     H
O      0.54361  0.50996  0.62957     O
C      0.54427  0.47593  0.14993     C
C      0.54537  0.43613  0.23593     C
C      0.54613  0.05137  0.88607     C
H        0.551   0.8085   0.1108     H
C      0.55133  0.43757  0.83677     C
H      0.55287  0.07193  0.09293     H
C       0.5529    0.782   0.1701     C
N       0.5556   0.7247   0.1308     N
C      0.55743  0.78797  0.56927     C
Cr     0.55936  0.98332  0.24809    Cr
H      0.56117  0.40803  0.21133     H
H      0.56203  0.86747  0.57847     H
C      0.56243  0.11377  0.83677     C
H      0.56313  0.76787  0.62067     H
C      0.56387  0.10923  0.23593     C
H      0.56547  0.46193  0.28733     H
P      0.56938  0.48395  0.54751     P
H      0.56973  0.41587  0.86717     H
Ga     0.57371  0.60045  0.45388    Ga
Ga     0.57603  0.55936  0.75191    Ga
O      0.57822  0.82484   0.8436     O
O      0.57995  0.08845  0.51027     O
H      0.58033  0.86027  0.68437     H
P      0.58123  0.76395  0.88084     P
H      0.58413  0.15387  0.86717     H
H      0.58453  0.04857  0.91477     H
N      0.58463  0.85547  0.60717     N
H      0.58693  0.74497  0.47327     H
H      0.58837  0.50863  0.13993     H
H      0.59083  0.11567  0.77747     H
O      0.59175  0.63274   0.3261     O
H      0.59197  0.15313  0.21133     H
O       0.5924  0.53464  0.46057     O
H      0.59473  0.81427  0.42627     H
C      0.59833  0.78907  0.48327     C
Ga     0.60045  0.02675  0.54612    Ga
O      0.60177  0.99677  0.11493     O
N      0.60417  0.08203  0.27383     N
O      0.60499  0.60177  0.88507     O
N      0.60863  0.49757  0.79747     N
O       0.6089  0.74093   0.7939     O
H      0.61327  0.08633  0.35103     H
C       0.6153   0.8281   0.2194     C
H       0.6164   0.8031   0.2748     H
H       0.6181   0.8693   0.2481     H
O      0.62217   0.6638  0.54553     O
O      0.62233  0.47166  0.57647     O
O      0.62271  0.96698  0.30577     O
O      0.62503   0.9555   0.7878     O
O      0.62568  0.92508  0.00723     O
H      0.62903  0.48537  0.74147     H
O      0.63274  0.04099   0.6739     O
O      0.63301  0.78972   0.9629     O
O      0.63364   0.6776  0.02757     O
H      0.63653  0.51277  0.84557     H
H      0.63877  0.10463  0.24513     H
Ga     0.63992  0.90704  0.87945    Ga
Ga     0.64999   0.7573  0.08524    Ga
P      0.65373  0.99367  0.05545     P
O      0.65574  0.62271  0.69423     O
P      0.66005  0.65373  0.94455     P
P      0.66034  0.67328  0.27788     P
O      0.66344  0.72834   0.2184     O
H      0.66363  0.79027  0.56347     H
O       0.6638  0.04164  0.45447     O
N      0.66583  0.82377  0.51757     N
N       0.6675   0.8429   0.1491     N
O      0.66953  0.62503   0.2122     O
H       0.6697   0.8764   0.1032     H
O      0.66989  0.93833  0.44827     O
P      0.67299  0.99339  0.38879     P
P      0.67328  0.01294  0.72212     P
O       0.6776  0.04395  0.97243     O
P      0.67961  0.67299  0.61121     P
Cr     0.68334  0.90937  0.58143    Cr
Ga     0.69341  0.75963  0.78722    Ga
H      0.69457  0.56203  0.42153     H
H       0.6968   0.1539   0.8211     H
O      0.69969  0.98907   0.6391     O
O      0.70032  0.87695  0.70377     O
O      0.70059  0.62568  0.99277     O
H       0.7043   0.1813   0.9252     H
O      0.70766  0.74158  0.65943     O
O       0.7083  0.71117  0.87887     O
O      0.71062  0.69969   0.3609     O
O        0.711  0.19501   0.0902     O
O      0.71117  0.00286  0.12113     O
H      0.71523  0.79737  0.41857     H
H      0.71693  0.86357  0.39187     H
C      0.71803  0.83857  0.44727     C
H      0.72007  0.58033  0.31563     H
O      0.72443  0.92574  0.87277     O
N       0.7247   0.1691   0.8692     N
O      0.72834   0.0649   0.7816     O
N      0.72917  0.58463  0.39283     N
O      0.73157  0.66989  0.55173     O
Ga     0.73288  0.63992  0.12055    Ga
C        0.735   0.8776   0.1834     C
H       0.7386   0.8524   0.2404     H
O      0.74093  0.13203   0.2061     O
H      0.74137  0.51353  0.45533     H
O      0.74158  0.03393  0.34057     O
H       0.7425    0.551   0.8892     H
H      0.74497  0.15803  0.52673     H
H       0.7464   0.9217   0.1934     H
N       0.7487   0.8112   0.0595     N
H       0.7488   0.6181   0.7519     H
H       0.7492   0.5128   0.7995     H
P       0.7521  0.90272  0.78583     P
H        0.753   0.8064   0.9823     H
O      0.75338  0.57822   0.1564     O
O      0.75511  0.84183  0.82307     O
Cr      0.7573  0.10731  0.91476    Cr
Ga     0.75963  0.06621  0.21278    Ga
H       0.7636   0.2508   0.7995     H
P      0.76395  0.18272  0.11916     P
H      0.76787  0.20473  0.37933     H
C      0.76947  0.55743  0.43073     C
H       0.7702   0.8988    0.046     H
C       0.7709   0.5529   0.8299     C
H       0.7713   0.7992   0.0882     H
H      0.77217  0.25863  0.45533     H
Ga     0.77398  0.68334  0.41857    Ga
C       0.7759   0.8787   0.0974     C
N      0.77773  0.94197  0.53587     N
C      0.78043  0.88467  0.49657     C
H      0.78047  0.59473  0.57373     H
C        0.782   0.2291   0.8299     C
H      0.78233  0.85817  0.55587     H
C       0.7872   0.6153   0.7806     C
C      0.78797  0.23053  0.43073     C
C      0.78907  0.19073  0.51673     C
O      0.78972  0.15671   0.0371     O
H      0.79027  0.12663  0.43653     H
H      0.79043  0.96987  0.48777     H
H       0.7933   0.6697   0.8968     H
H      0.79527  0.56313  0.37933     H
H      0.79737  0.08213  0.58143     H
O       0.7987  0.72443  0.12723     O
H       0.7992   0.0279   0.9118     H
H       0.8031   0.1867   0.7252     H
O      0.80499  0.51599   0.0902     O
H       0.8064   0.0534   0.0177     H
H       0.8085   0.2575   0.8892     H
C      0.80927  0.59833  0.51673     C
H      0.81033  0.96237  0.59187     H
N       0.8112   0.0625   0.9405     N
H       0.8133   0.6164   0.7252     H
H      0.81427  0.21953  0.57373     H
P      0.81728  0.58123  0.11916     P
O      0.81734  0.95567  0.75687     O
H       0.8187    0.523   0.9252     H
H       0.8198   0.8945    0.122     H
H      0.82053  0.90307  0.46617     H
H      0.82057  0.79043  0.51223     H
O      0.82338  0.70032  0.29623     O
N      0.82377  0.15793  0.48243     N
N       0.8246   0.6675   0.8509     N
H       0.8247   0.7464   0.8066     H
O      0.82484  0.24662   0.1564     O
C       0.8281   0.2128   0.7806     C
N       0.8309   0.5556   0.8692     N
N      0.83577  0.77773  0.46413     N
C      0.83857  0.12053  0.55273     C
O      0.84183  0.08671  0.17693     O
H      0.84197  0.58693  0.52673     H
N      0.84207  0.66583  0.48243     N
N       0.8429   0.1754   0.8509     N
O      0.84329  0.63301   0.0371     O
H       0.8461   0.5429   0.8211     H
H      0.84613  0.43027  0.86717     H
H      0.84687  0.43883  0.21133     H
H      0.84797  0.81033  0.40813     H
O      0.84932  0.37767  0.57647     O
P      0.84939   0.7521  0.21417     P
H       0.8524   0.1138   0.7596     H
H      0.85337  0.71693  0.60813     H
N      0.85547  0.27083  0.39283     N
H      0.85633  0.37097  0.74147     H
C       0.8574    0.735   0.8166     C
H      0.85817  0.07583  0.44413     H
H      0.86027  0.27993  0.31563     H
O      0.86168  0.81734  0.24313     O
H      0.86357  0.14663  0.60813     H
H      0.86747  0.30543  0.42153     H
O      0.86797   0.6089   0.2061     O
H       0.8693   0.2512   0.7519     H
H       0.8714   0.7702    0.954     H
H      0.87337  0.66363  0.43653     H
H      0.87623  0.36347  0.84557     H
H       0.8764   0.2067   0.8968     H
O      0.87695  0.17662  0.29623     O
C       0.8776   0.1426   0.8166     C
C       0.8787   0.1028   0.9026     C
C      0.87947  0.71803  0.55273     C
H      0.88433  0.47517  0.77747     H
C      0.88467  0.10423  0.50343     C
H       0.8862   0.7386   0.7596     H
C      0.88623  0.44867  0.83677     C
N      0.88893  0.39137  0.79747     N
C      0.89077  0.45463  0.23593     C
Cr     0.89269  0.64999  0.91476    Cr
H       0.8945   0.0747    0.878     H
H      0.89537  0.53413  0.24513     H
C      0.89577  0.78043  0.50343     C
H      0.89647  0.43453  0.28733     H
C       0.8972   0.7759   0.9026     C
H       0.8988   0.1286    0.954     H
P      0.90272  0.15061  0.21417     P
H      0.90307  0.08253  0.53383     H
Ga     0.90704  0.26712  0.12055    Ga
Ga     0.90937  0.22602  0.41857    Ga
O      0.91155  0.49151  0.51027     O
O      0.91329  0.75511  0.17693     O
H      0.91367  0.52693  0.35103     H
P      0.91456  0.43062  0.54751     P
H      0.91747  0.82053  0.53383     H
H      0.91787  0.71523  0.58143     H
N      0.91797  0.52213  0.27383     N
H      0.92027  0.41163  0.13993     H
H       0.9217   0.1753   0.8066     H
H      0.92417  0.78233  0.44413     H
O      0.92508  0.29941  0.99277     O
H       0.9253   0.8198    0.878     H
O      0.92574   0.2013  0.12723     O
H      0.92807  0.48093  0.09293     H
C      0.93167  0.45573  0.14993     C
Ga     0.93379  0.69341  0.21278    Ga
O       0.9351  0.66344   0.7816     O
N       0.9375   0.7487   0.9405     N
O      0.93833  0.26843  0.55173     O
N      0.94197  0.16423  0.46413     N
O      0.94223   0.4076  0.46057     O
H       0.9466    0.753   0.0177     H
C      0.94863  0.49477  0.88607     C
H      0.94973  0.46977  0.94147     H
H      0.95143  0.53597  0.91477     H
O       0.9555  0.33047   0.2122     O
O      0.95567  0.13832  0.24313     O
O      0.95605  0.63364  0.97243     O
O      0.95836  0.62217  0.45447     O
O      0.95901  0.59175   0.6739     O
H      0.96237  0.15203  0.40813     H
O      0.96607  0.70766  0.34057     O
O      0.96634  0.45639  0.62957     O
O      0.96698  0.34426  0.69423     O
H      0.96987  0.17943  0.51223     H
H       0.9721   0.7713   0.9118     H
Ga     0.97325  0.57371  0.54612    Ga
Ga     0.98332  0.42397  0.75191    Ga
P      0.98706  0.66034  0.72212     P
O      0.98907  0.28938   0.3609     O
P      0.99339  0.32039  0.61121     P
P      0.99367  0.33995  0.94455     P
O      0.99677  0.39501  0.88507     O
H      0.99697  0.45693  0.23013     H
O      0.99714   0.7083  0.12113     O
N      0.99917  0.49043  0.18423     N
