data_I
_chemical_name_common  '/home/zhangsd/repos/MofS-CGCNN/ML/data/TSD/clean_cifs/HEKTUO01_clean'
_cell_length_a 20.04070
_cell_length_b 10.06740
_cell_length_c 18.92730
_cell_angle_alpha 90.00000
_cell_angle_beta  101.30000
_cell_angle_gamma 90.00000
_space_group_name_H-M_alt      'P 1'


loop_
_space_group_symop_operation_xyz
  'x, y, z' 

loop_
_atom_site_label
_atom_site_fract_x
_atom_site_fract_y
_atom_site_fract_z
_atom_site_type_symbol
O      0.00426   0.0815  0.43373     O
O      0.00426   0.9185  0.93373     O
C      0.01208   0.4279  0.61614     C
C      0.01208   0.5721  0.11614     C
H       0.0251   0.3411   0.6288     H
H       0.0251   0.6589   0.1288     H
C       0.0259   0.3147   0.4258     C
C       0.0259   0.6853   0.9258     C
C       0.0347   0.3384  0.12281     C
C       0.0347   0.6616  0.62281     C
C      0.04541   0.1765  0.45206     C
C      0.04541   0.8235  0.95206     C
C      0.04874   0.4515  0.93131     C
C      0.04874   0.5485  0.43131     C
C      0.05406   0.4673  0.14522     C
C      0.05406   0.5327  0.64522     C
H       0.0627   0.2674   0.1406     H
H       0.0627   0.7326   0.6406     H
O      0.06506    0.224  0.95875     O
O      0.06506    0.776  0.45875     O
C      0.06792   0.4198  0.45189     C
C      0.06792   0.5802  0.95189     C
H       0.0778   0.3714   0.7569     H
H       0.0778   0.6286   0.2569     H
C       0.0931   0.3368  0.96352     C
C       0.0931   0.6632  0.46352     C
Cd     0.09481  0.05062   0.0262    Cd
Cd     0.09481  0.94938   0.5262    Cd
O      0.10251   0.1593  0.49167     O
O      0.10251   0.8407  0.99167     O
H       0.1091   0.4042   0.4832     H
H       0.1091   0.5958   0.9832     H
C      0.11704   0.4904  0.19962     C
C      0.11704   0.5096  0.69962     C
C       0.1171   0.4194   0.7552     C
C       0.1171   0.5806   0.2552     C
O      0.14992   0.0002  0.64261     O
O      0.14992   0.9998  0.14261     O
O      0.15307   0.3619  0.99228     O
O      0.15307   0.6381  0.49228     O
H       0.1732   0.3394   0.8448     H
H       0.1732   0.6606   0.3448     H
C       0.1745   0.3999   0.8079     C
C       0.1745   0.6001   0.3079     C
C      0.17681   0.4229  0.19748     C
C      0.17681   0.5771  0.69748     C
H       0.1785    0.364   0.1601     H
H       0.1785    0.636   0.6601     H
C      0.20525   0.0484  0.13508     C
C      0.20525   0.9516  0.63508     C
O      0.20826   0.1097  0.07871     O
O      0.20826   0.8903  0.57871     O
H       0.2261   0.1042   0.7508     H
H       0.2261   0.8958   0.2508     H
C      0.23356   0.4688  0.80664     C
C      0.23356   0.5312  0.30664     C
C      0.23434   0.4428  0.25098     C
C      0.23434   0.5572  0.75098     C
Cd        0.25     0.25      0.0    Cd
Cd        0.25     0.75      0.5    Cd
C      0.26566   0.0572  0.74902     C
C      0.26566   0.9428  0.24902     C
C      0.26644   0.0312  0.19336     C
C      0.26644   0.9688  0.69336     C
H       0.2739   0.3958   0.2492     H
H       0.2739   0.6042   0.7492     H
O      0.29174   0.3903  0.92129     O
O      0.29174   0.6097  0.42129     O
C      0.29475   0.4516  0.86492     C
C      0.29475   0.5484  0.36492     C
H       0.3215    0.136   0.8399     H
H       0.3215    0.864   0.3399     H
C      0.32319   0.0771  0.80252     C
C      0.32319   0.9229  0.30252     C
C       0.3255   0.1001   0.1921     C
C       0.3255   0.8999   0.6921     C
H       0.3268   0.1606   0.1552     H
H       0.3268   0.8394   0.6552     H
O      0.34693   0.1381  0.00772     O
O      0.34693   0.8619  0.50772     O
O      0.35008   0.4998  0.35739     O
O      0.35008   0.5002  0.85739     O
C       0.3829   0.0806   0.2448     C
C       0.3829   0.9194   0.7448     C
C      0.38296   0.0096  0.80038     C
C      0.38296   0.9904  0.30038     C
H       0.3909   0.0958   0.5168     H
H       0.3909   0.9042   0.0168     H
O      0.39749   0.3407  0.50833     O
O      0.39749   0.6593  0.00833     O
Cd     0.40519  0.44938   0.9738    Cd
Cd     0.40519  0.55062   0.4738    Cd
C       0.4069   0.1632  0.03648     C
C       0.4069   0.8368  0.53648     C
H       0.4222   0.1286   0.2431     H
H       0.4222   0.8714   0.7431     H
C      0.43208   0.0802  0.54811     C
C      0.43208   0.9198  0.04811     C
O      0.43494    0.276  0.04125     O
O      0.43494    0.724  0.54125     O
H       0.4373   0.2326   0.8594     H
H       0.4373   0.7674   0.3594     H
C      0.44594   0.0327  0.85478     C
C      0.44594   0.9673  0.35478     C
C      0.45126   0.0485  0.06869     C
C      0.45126   0.9515  0.56869     C
C      0.45459   0.3235  0.54794     C
C      0.45459   0.6765  0.04794     C
C       0.4653   0.1616  0.87719     C
C       0.4653   0.8384  0.37719     C
C       0.4741   0.1853   0.5742     C
C       0.4741   0.8147   0.0742     C
H       0.4749   0.1589   0.3712     H
H       0.4749   0.8411   0.8712     H
C      0.48792   0.0721  0.38386     C
C      0.48792   0.9279  0.88386     C
O      0.49574   0.4185  0.56627     O
O      0.49574   0.5815  0.06627     O
O      0.50426   0.4185  0.93373     O
O      0.50426   0.5815  0.43373     O
C      0.51208   0.0721  0.11614     C
C      0.51208   0.9279  0.61614     C
H       0.5251   0.1589   0.1288     H
H       0.5251   0.8411   0.6288     H
C       0.5259   0.1853   0.9258     C
C       0.5259   0.8147   0.4258     C
C       0.5347   0.1616  0.62281     C
C       0.5347   0.8384  0.12281     C
C      0.54541   0.3235  0.95206     C
C      0.54541   0.6765  0.45206     C
C      0.54874   0.0485  0.43131     C
C      0.54874   0.9515  0.93131     C
C      0.55406   0.0327  0.64522     C
C      0.55406   0.9673  0.14522     C
H       0.5627   0.2326   0.6406     H
H       0.5627   0.7674   0.1406     H
O      0.56506    0.276  0.45875     O
O      0.56506    0.724  0.95875     O
C      0.56792   0.0802  0.95189     C
C      0.56792   0.9198  0.45189     C
H       0.5778   0.1286   0.2569     H
H       0.5778   0.8714   0.7569     H
C       0.5931   0.1632  0.46352     C
C       0.5931   0.8368  0.96352     C
Cd     0.59481  0.44938   0.5262    Cd
Cd     0.59481  0.55062   0.0262    Cd
O      0.60251   0.3407  0.99167     O
O      0.60251   0.6593  0.49167     O
H       0.6091   0.0958   0.9832     H
H       0.6091   0.9042   0.4832     H
C      0.61704   0.0096  0.69962     C
C      0.61704   0.9904  0.19962     C
C       0.6171   0.0806   0.2552     C
C       0.6171   0.9194   0.7552     C
O      0.64992   0.4998  0.14261     O
O      0.64992   0.5002  0.64261     O
O      0.65307   0.1381  0.49228     O
O      0.65307   0.8619  0.99228     O
H       0.6732   0.1606   0.3448     H
H       0.6732   0.8394   0.8448     H
C       0.6745   0.1001   0.3079     C
C       0.6745   0.8999   0.8079     C
C      0.67681   0.0771  0.69748     C
C      0.67681   0.9229  0.19748     C
H       0.6785    0.136   0.6601     H
H       0.6785    0.864   0.1601     H
C      0.70525   0.4516  0.63508     C
C      0.70525   0.5484  0.13508     C
O      0.70826   0.3903  0.57871     O
O      0.70826   0.6097  0.07871     O
H       0.7261   0.3958   0.2508     H
H       0.7261   0.6042   0.7508     H
C      0.73356   0.0312  0.30664     C
C      0.73356   0.9688  0.80664     C
C      0.73434   0.0572  0.75098     C
C      0.73434   0.9428  0.25098     C
Cd        0.75     0.25      0.5    Cd
Cd        0.75     0.75      0.0    Cd
C      0.76566   0.4428  0.24902     C
C      0.76566   0.5572  0.74902     C
C      0.76644   0.4688  0.69336     C
C      0.76644   0.5312  0.19336     C
H       0.7739   0.1042   0.7492     H
H       0.7739   0.8958   0.2492     H
O      0.79174   0.1097  0.42129     O
O      0.79174   0.8903  0.92129     O
C      0.79475   0.0484  0.36492     C
C      0.79475   0.9516  0.86492     C
H       0.8215    0.364   0.3399     H
H       0.8215    0.636   0.8399     H
C      0.82319   0.4229  0.30252     C
C      0.82319   0.5771  0.80252     C
C       0.8255   0.3999   0.6921     C
C       0.8255   0.6001   0.1921     C
H       0.8268   0.3394   0.6552     H
H       0.8268   0.6606   0.1552     H
O      0.84693   0.3619  0.50772     O
O      0.84693   0.6381  0.00772     O
O      0.85008   0.0002  0.85739     O
O      0.85008   0.9998  0.35739     O
C       0.8829   0.4194   0.7448     C
C       0.8829   0.5806   0.2448     C
C      0.88296   0.4904  0.30038     C
C      0.88296   0.5096  0.80038     C
H       0.8909   0.4042   0.0168     H
H       0.8909   0.5958   0.5168     H
O      0.89749   0.1593  0.00833     O
O      0.89749   0.8407  0.50833     O
Cd     0.90519  0.05062   0.4738    Cd
Cd     0.90519  0.94938   0.9738    Cd
C       0.9069   0.3368  0.53648     C
C       0.9069   0.6632  0.03648     C
H       0.9222   0.3714   0.7431     H
H       0.9222   0.6286   0.2431     H
C      0.93208   0.4198  0.04811     C
C      0.93208   0.5802  0.54811     C
O      0.93494    0.224  0.54125     O
O      0.93494    0.776  0.04125     O
H       0.9373   0.2674   0.3594     H
H       0.9373   0.7326   0.8594     H
C      0.94594   0.4673  0.35478     C
C      0.94594   0.5327  0.85478     C
C      0.95126   0.4515  0.56869     C
C      0.95126   0.5485  0.06869     C
C      0.95459   0.1765  0.04794     C
C      0.95459   0.8235  0.54794     C
C       0.9653   0.3384  0.37719     C
C       0.9653   0.6616  0.87719     C
C       0.9741   0.3147   0.0742     C
C       0.9741   0.6853   0.5742     C
H       0.9749   0.3411   0.8712     H
H       0.9749   0.6589   0.3712     H
C      0.98792   0.4279  0.88386     C
C      0.98792   0.5721  0.38386     C
O      0.99574   0.0815  0.06627     O
O      0.99574   0.9185  0.56627     O
