data_I
_chemical_name_common  '/home/zhangsd/repos/MofS-CGCNN/ML/data/TSD/clean_cifs/HEMVEB_clean'
_cell_length_a 14.89520
_cell_length_b  9.71330
_cell_length_c 13.68780
_cell_angle_alpha 90.00000
_cell_angle_beta  90.00000
_cell_angle_gamma 90.00000
_space_group_name_H-M_alt      'P 1'


loop_
_space_group_symop_operation_xyz
  'x, y, z' 

loop_
_atom_site_label
_atom_site_fract_x
_atom_site_fract_y
_atom_site_fract_z
_atom_site_type_symbol
Co         0.0   0.0494  0.61247    Co
Co         0.0   0.0494  0.88753    Co
O          0.0   0.1257  0.03446     O
O          0.0   0.1257  0.46554     O
P          0.0  0.27469  0.07244     P
P          0.0  0.27469  0.42756     P
O          0.0   0.3713  0.51825     O
O          0.0   0.3713  0.98175     O
O          0.0   0.6287  0.01825     O
O          0.0   0.6287  0.48175     O
P          0.0  0.72531  0.57244     P
P          0.0  0.72531  0.92756     P
O          0.0   0.8743  0.53446     O
O          0.0   0.8743  0.96554     O
Co         0.0   0.9506  0.11247    Co
Co         0.0   0.9506  0.38753    Co
O      0.08541  0.30404  0.13061     O
O      0.08541  0.30404  0.36939     O
O      0.08541  0.69596  0.63061     O
O      0.08541  0.69596  0.86939     O
O      0.10816  0.14201  0.65694     O
O      0.10816  0.14201  0.84306     O
O      0.10816  0.85799  0.15694     O
O      0.10816  0.85799  0.34306     O
Co     0.12905  0.21451     0.25    Co
Co     0.12905  0.78549     0.75    Co
P      0.16276  0.11257     0.75     P
P      0.16276  0.88743     0.25     P
O      0.19329   0.0391     0.25     O
O      0.19329   0.9609     0.75     O
O      0.24514   0.2039     0.75     O
O      0.24514   0.7961     0.25     O
O      0.25486   0.2961     0.25     O
O      0.25486   0.7039     0.75     O
O      0.30671   0.4609     0.75     O
O      0.30671   0.5391     0.25     O
P      0.33724  0.38743     0.25     P
P      0.33724  0.61257     0.75     P
Co     0.37095  0.28549     0.75    Co
Co     0.37095  0.71451     0.25    Co
O      0.39184  0.35799  0.15694     O
O      0.39184  0.35799  0.34306     O
O      0.39184  0.64201  0.65694     O
O      0.39184  0.64201  0.84306     O
O      0.41459  0.19596  0.63061     O
O      0.41459  0.19596  0.86939     O
O      0.41459  0.80404  0.13061     O
O      0.41459  0.80404  0.36939     O
O          0.5   0.1287  0.01825     O
O          0.5   0.1287  0.48175     O
P          0.5  0.22531  0.57244     P
P          0.5  0.22531  0.92756     P
O          0.5   0.3743  0.53446     O
O          0.5   0.3743  0.96554     O
Co         0.5   0.4506  0.11247    Co
Co         0.5   0.4506  0.38753    Co
Co         0.5   0.5494  0.61247    Co
Co         0.5   0.5494  0.88753    Co
O          0.5   0.6257  0.03446     O
O          0.5   0.6257  0.46554     O
P          0.5  0.77469  0.07244     P
P          0.5  0.77469  0.42756     P
O          0.5   0.8713  0.51825     O
O          0.5   0.8713  0.98175     O
O      0.58541  0.19596  0.63061     O
O      0.58541  0.19596  0.86939     O
O      0.58541  0.80404  0.13061     O
O      0.58541  0.80404  0.36939     O
O      0.60816  0.35799  0.15694     O
O      0.60816  0.35799  0.34306     O
O      0.60816  0.64201  0.65694     O
O      0.60816  0.64201  0.84306     O
Co     0.62905  0.28549     0.75    Co
Co     0.62905  0.71451     0.25    Co
P      0.66276  0.38743     0.25     P
P      0.66276  0.61257     0.75     P
O      0.69329   0.4609     0.75     O
O      0.69329   0.5391     0.25     O
O      0.74514   0.2961     0.25     O
O      0.74514   0.7039     0.75     O
O      0.75486   0.2039     0.75     O
O      0.75486   0.7961     0.25     O
O      0.80671   0.0391     0.25     O
O      0.80671   0.9609     0.75     O
P      0.83724  0.11257     0.75     P
P      0.83724  0.88743     0.25     P
Co     0.87095  0.21451     0.25    Co
Co     0.87095  0.78549     0.75    Co
O      0.89184  0.14201  0.65694     O
O      0.89184  0.14201  0.84306     O
O      0.89184  0.85799  0.15694     O
O      0.89184  0.85799  0.34306     O
O      0.91459  0.30404  0.13061     O
O      0.91459  0.30404  0.36939     O
O      0.91459  0.69596  0.63061     O
O      0.91459  0.69596  0.86939     O
