data_I
_chemical_name_common  '/home/zhangsd/repos/MofS-CGCNN/ML/data/TSD/clean_cifs/HICVUM_clean'
_cell_length_a 12.72130
_cell_length_b 12.72130
_cell_length_c 20.70900
_cell_angle_alpha 84.16000
_cell_angle_beta  84.16000
_cell_angle_gamma 70.86960
_space_group_name_H-M_alt      'P 1'


loop_
_space_group_symop_operation_xyz
  'x, y, z' 

loop_
_atom_site_label
_atom_site_fract_x
_atom_site_fract_y
_atom_site_fract_z
_atom_site_type_symbol
O       0.0355   0.0533   0.8141     O
O       0.0497   0.0621   0.0633     O
O       0.0533   0.0355   0.3141     O
H       0.0541   0.0775   0.9364     H
O       0.0621   0.0497   0.5633     O
Cd     0.06619  0.06901  0.17921    Cd
Cd     0.06901  0.06619  0.67921    Cd
H       0.0775   0.0541   0.4364     H
N       0.0941   0.7781    0.327     N
C       0.0978   0.1104   0.8068     C
C       0.0983   0.1235   0.9286     C
C       0.1033   0.1285   0.0504     C
N       0.1071   0.7859   0.8186     N
C       0.1104   0.0978   0.3068     C
H       0.1118    0.822   0.4112     H
H       0.1129   0.6957   0.7444     H
H       0.1152   0.7022   0.2456     H
C       0.1235   0.0983   0.4286     C
C       0.1285   0.1033   0.5504     C
C       0.1303   0.1533   0.8653     C
C       0.1328   0.1628   0.9808     C
O        0.136   0.1702   0.0952     O
O       0.1364   0.1394   0.2525     O
H       0.1369   0.8451   0.8964     H
O       0.1394   0.1364   0.7525     O
C       0.1413   0.7669   0.3819     C
C       0.1442   0.6974   0.2856     C
C       0.1485   0.6975   0.7811     C
C       0.1533   0.1303   0.3653     C
H       0.1549   0.8631   0.6036     H
C       0.1614   0.7846   0.8707     C
C       0.1628   0.1328   0.4808     C
O       0.1702    0.136   0.5952     O
H        0.178   0.8882   0.0888     H
C        0.198   0.2226   0.8535     C
C       0.1995   0.2323   0.9684     C
N       0.2141   0.8929   0.6814     N
C       0.2154   0.8386   0.6293     C
H         0.22   0.2418    0.811     H
N       0.2219   0.9059    0.173     N
H       0.2221   0.2587    0.003     H
C       0.2226    0.198   0.3535     C
C       0.2318   0.2622   0.9049     C
C       0.2323   0.1995   0.4684     C
C       0.2325   0.6771    0.398     C
C       0.2331   0.8587   0.1181     C
N       0.2352   0.7378   0.5083     N
C       0.2367   0.6087   0.3008     C
C       0.2413   0.6115   0.7968     C
H       0.2418     0.22    0.311     H
C        0.254   0.6944   0.8874     C
H       0.2587   0.2221    0.503     H
C       0.2622   0.2318   0.4049     C
N       0.2622   0.7648   0.9917     N
H       0.2681   0.5551   0.2709     H
H       0.2682    0.553   0.7697     H
C       0.2801   0.6677   0.4607     C
N       0.2825   0.5973   0.3575     N
N       0.2953   0.6077   0.8494     N
H       0.2978   0.8848   0.2544     H
C       0.3025   0.8515   0.7189     C
C       0.3026   0.8558   0.2144     C
H       0.3043   0.8871   0.7556     H
C       0.3045   0.6883   0.9472     C
C       0.3056    0.746   0.6126     C
C       0.3089   0.3321   0.8937     C
C       0.3117   0.6955   0.5528     C
C       0.3229   0.7675    0.102     C
C       0.3321   0.3089   0.3937     C
C       0.3323   0.7199   0.0393     C
O       0.3342   0.3666   0.9428     O
O       0.3444   0.3528   0.8366     O
O       0.3528   0.3444   0.3366     O
O       0.3666   0.3342   0.4428     O
N       0.3766   0.5888   0.4745     N
C       0.3885   0.7587   0.7032     C
C       0.3913   0.7633   0.1992     C
N       0.3923   0.7047   0.6506     N
N        0.394   0.6044   0.9648     N
N       0.3956    0.606   0.5352     N
N       0.4027   0.7175   0.1425     N
N       0.4112   0.6234   0.0255     N
H       0.4449   0.7319   0.2291     H
H        0.447   0.7318   0.7303     H
Cd      0.4538  0.45382  0.89882    Cd
Cd     0.45382   0.4538  0.39882    Cd
Cd     0.54618   0.5462  0.60118    Cd
Cd      0.5462  0.54618  0.10118    Cd
H        0.553   0.2682   0.2697     H
H       0.5551   0.2681   0.7709     H
N       0.5888   0.3766   0.9745     N
N       0.5973   0.2825   0.8575     N
N       0.6044    0.394   0.4648     N
N        0.606   0.3956   0.0352     N
N       0.6077   0.2953   0.3494     N
C       0.6087   0.2367   0.8008     C
C       0.6115   0.2413   0.2968     C
N       0.6234   0.4112   0.5255     N
O       0.6334   0.6658   0.5572     O
O       0.6472   0.6556   0.6634     O
O       0.6556   0.6472   0.1634     O
O       0.6658   0.6334   0.0572     O
C       0.6677   0.2801   0.9607     C
C       0.6679   0.6911   0.6063     C
C       0.6771   0.2325    0.898     C
C       0.6883   0.3045   0.4472     C
C       0.6911   0.6679   0.1063     C
C       0.6944    0.254   0.3874     C
C       0.6955   0.3117   0.0528     C
H       0.6957   0.1129   0.2444     H
C       0.6974   0.1442   0.7856     C
C       0.6975   0.1485   0.2811     C
H       0.7022   0.1152   0.7456     H
N       0.7047   0.3923   0.1506     N
N       0.7175   0.4027   0.6425     N
C       0.7199   0.3323   0.5393     C
H       0.7318    0.447   0.2303     H
H       0.7319   0.4449   0.7291     H
N       0.7378   0.2352   0.0083     N
C       0.7378   0.7682   0.5951     C
H       0.7413   0.7779    0.497     H
C        0.746   0.3056   0.1126     C
H       0.7582     0.78    0.689     H
C       0.7587   0.3885   0.2032     C
C       0.7633   0.3913   0.6992     C
N       0.7648   0.2622   0.4917     N
C       0.7669   0.1413   0.8819     C
C       0.7675   0.3229    0.602     C
C       0.7677   0.8005   0.5316     C
C       0.7682   0.7378   0.0951     C
C       0.7774    0.802   0.6465     C
H       0.7779   0.7413    0.997     H
N       0.7781   0.0941    0.827     N
H         0.78   0.7582    0.189     H
C       0.7846   0.1614   0.3707     C
N       0.7859   0.1071   0.3186     N
C       0.8005   0.7677   0.0316     C
C        0.802   0.7774   0.1465     C
H        0.822   0.1118   0.9112     H
O       0.8298    0.864   0.4048     O
C       0.8372   0.8672   0.5192     C
C       0.8386   0.2154   0.1293     C
H       0.8451   0.1369   0.3964     H
C       0.8467   0.8697   0.6347     C
C       0.8515   0.3025   0.2189     C
C       0.8558   0.3026   0.7144     C
C       0.8587   0.2331   0.6181     C
O       0.8606   0.8636   0.2475     O
H       0.8631   0.1549   0.1036     H
O       0.8636   0.8606   0.7475     O
O        0.864   0.8298   0.9048     O
C       0.8672   0.8372   0.0192     C
C       0.8697   0.8467   0.1347     C
C       0.8715   0.8967   0.4496     C
C       0.8765   0.9017   0.5714     C
H       0.8848   0.2978   0.7544     H
H       0.8871   0.3043   0.2556     H
H       0.8882    0.178   0.5888     H
C       0.8896   0.9022   0.6932     C
N       0.8929   0.2141   0.1814     N
C       0.8967   0.8715   0.9496     C
C       0.9017   0.8765   0.0714     C
C       0.9022   0.8896   0.1932     C
N       0.9059   0.2219    0.673     N
H       0.9225   0.9459   0.5636     H
Cd     0.93099  0.93381  0.32079    Cd
Cd     0.93381  0.93099  0.82079    Cd
O       0.9379   0.9503   0.4367     O
H       0.9459   0.9225   0.0636     H
O       0.9467   0.9645   0.6859     O
O       0.9503   0.9379   0.9367     O
O       0.9645   0.9467   0.1859     O
