data_I
_chemical_name_common  '/home/zhangsd/repos/MofS-CGCNN/ML/data/TSD/clean_cifs/HICZAW_clean'
_cell_length_a 14.60260
_cell_length_b 16.63010
_cell_length_c 16.66170
_cell_angle_alpha 90.00000
_cell_angle_beta  90.00000
_cell_angle_gamma 90.00000
_space_group_name_H-M_alt      'P 1'


loop_
_space_group_symop_operation_xyz
  'x, y, z' 

loop_
_atom_site_label
_atom_site_fract_x
_atom_site_fract_y
_atom_site_fract_z
_atom_site_type_symbol
Sm         0.0  0.33199     0.25    Sm
Sm         0.0  0.66801     0.75    Sm
C       0.0101   0.3574   0.0437     C
C       0.0101   0.6426   0.9563     C
H       0.0182   0.3459   0.6091     H
H       0.0182   0.6541   0.3909     H
C        0.024   0.3129   0.9033     C
C        0.024   0.6871   0.0967     C
C       0.0363   0.2684   0.7622     C
O       0.0363   0.7316   0.2378     O
O       0.0447   0.3554   0.1151     O
O       0.0447   0.6446   0.8849     O
C       0.0494   0.3059   0.9827     C
C       0.0494   0.6941   0.0173     C
O       0.0541    0.404   0.4765     O
O       0.0541    0.596   0.5235     O
H       0.0638   0.3149   0.7381     H
H       0.0638   0.6851   0.2619     H
H        0.064   0.2223   0.7374     H
H        0.064   0.7777   0.2626     H
C       0.0641   0.2687   0.8438     C
C       0.0641   0.7313   0.1562     C
O       0.0665     0.22   0.3335     O
O       0.0665     0.78   0.6665     O
O       0.1045   0.4343   0.2782     O
O       0.1045   0.5657   0.7218     O
C       0.1089   0.2425   0.0043     C
C       0.1089   0.7575   0.9957     C
C       0.1212   0.2068   0.8642     C
C       0.1212   0.7932   0.1358     C
H       0.1247   0.2345   0.0578     H
H       0.1247   0.7655   0.9422     H
C       0.1305   0.2053   0.2871     C
C       0.1305   0.7947   0.7129     C
O       0.1316   0.4657   0.6362     O
O       0.1316   0.5343   0.3638     O
C       0.1361   0.4975   0.7035     C
C       0.1361   0.5025   0.2965     C
C       0.1444   0.1913   0.9442     C
C       0.1444   0.8087   0.0558     C
O       0.1446   0.2514   0.2253     O
O       0.1446   0.7486   0.7747     O
H       0.1451   0.1743   0.8239     H
H       0.1451   0.8257   0.1761     H
H       0.1481   0.4722   0.1411     H
H       0.1481   0.5278   0.8589     H
Sm     0.16213      0.5      0.5    Sm
H       0.1809   0.1429   0.4242     H
H       0.1809   0.8571   0.5758     H
C       0.1812   0.4817   0.8468     C
C       0.1812   0.5183   0.1532     C
H       0.1823   0.4453   0.0127     H
H       0.1823   0.5547   0.9873     H
C       0.1863   0.4541    0.768     C
C       0.1863   0.5459    0.232     C
C        0.201   0.1426   0.3075     C
C        0.201   0.8574   0.6925     C
C       0.2014   0.1195   0.9659     C
C       0.2014   0.8805   0.0341     C
C       0.2123   0.1198   0.3879     C
C       0.2123   0.8802   0.6121     C
H       0.2201   0.0506   0.5074     H
H       0.2201   0.9494   0.4926     H
O       0.2258   0.0735   0.9155     O
O       0.2258   0.9265   0.0845     O
C       0.2269   0.4388   0.9084     C
C       0.2269   0.5612   0.0916     C
O       0.2314   0.1152   0.0358     O
O       0.2314   0.8848   0.9642     O
C       0.2338   0.4702    0.987     C
O       0.2338   0.5298    0.013     O
C       0.2461   0.3912   0.7491     C
C       0.2461   0.6088   0.2509     C
H       0.2499   0.3724   0.6966     H
H       0.2499   0.6276   0.3034     H
H       0.2501   0.1276   0.1966     H
H       0.2501   0.8724   0.8034     H
C       0.2539   0.1088   0.2491     C
C       0.2539   0.8912   0.7509     C
C       0.2662   0.0298    0.487     C
O       0.2662   0.9702    0.513     O
O       0.2686   0.3848   0.5358     O
O       0.2686   0.6152   0.4642     O
C       0.2731   0.0612   0.4084     C
C       0.2731   0.9388   0.5916     C
O       0.2742   0.4265   0.4155     O
O       0.2742   0.5735   0.5845     O
H       0.2799   0.4494   0.0074     H
H       0.2799   0.5506   0.9926     H
C       0.2877   0.3802   0.8879     C
C       0.2877   0.6198   0.1121     C
C       0.2986   0.3805   0.4659     C
C       0.2986   0.6195   0.5341     C
C        0.299   0.3574   0.8075     C
C        0.299   0.6426   0.1925     C
C       0.3137   0.0459    0.268     C
C       0.3137   0.9541    0.732     C
H       0.3177   0.0547   0.5127     H
H       0.3177   0.9453   0.4873     H
C       0.3188   0.0183   0.3468     C
C       0.3188   0.9817   0.6532     C
H       0.3191   0.3571   0.9242     H
H       0.3191   0.6429   0.0758     H
Sm     0.33787      0.0      0.0    Sm
H       0.3519   0.0278   0.6411     H
H       0.3519   0.9722   0.3589     H
H       0.3549   0.3257   0.3239     H
H       0.3549   0.6743   0.6761     H
O       0.3554   0.2486   0.7253     O
O       0.3554   0.7514   0.2747     O
C       0.3556   0.3087   0.4442     C
C       0.3556   0.6913   0.5558     C
C       0.3639   0.0025   0.2035     C
C       0.3639   0.9975   0.7965     C
O       0.3684   0.0343   0.1362     O
O       0.3684   0.9657   0.8638     O
C       0.3695   0.2947   0.7871     C
C       0.3695   0.7053   0.2129     C
H       0.3753   0.2655   0.5578     H
H       0.3753   0.7345   0.4422     H
C       0.3788   0.2932   0.3642     C
C       0.3788   0.7068   0.6358     C
C       0.3911   0.2575   0.5043     C
C       0.3911   0.7425   0.4957     C
O       0.3955   0.0657   0.7782     O
O       0.3955   0.9343   0.2218     O
O       0.4335     0.28   0.8335     O
O       0.4335     0.72   0.1665     O
C       0.4359   0.2313   0.3438     C
C       0.4359   0.7687   0.6562     C
H        0.436   0.2777   0.2374     H
H        0.436   0.7223   0.7626     H
H       0.4362   0.1851   0.2381     H
H       0.4362   0.8149   0.7619     H
O       0.4459    0.096   0.9765     O
O       0.4459    0.904   0.0235     O
C       0.4506   0.1941   0.4827     C
C       0.4506   0.8059   0.5173     C
O       0.4553   0.1446   0.6151     O
O       0.4553   0.8554   0.3849     O
C       0.4637   0.2316   0.2622     C
O       0.4637   0.7684   0.7378     O
C        0.476   0.1871   0.4033     C
C        0.476   0.8129   0.5967     C
H       0.4818   0.1541   0.1091     H
H       0.4818   0.8459   0.8909     H
C       0.4899   0.1426   0.5437     C
C       0.4899   0.8574   0.4563     C
Sm         0.5  0.16801     0.75    Sm
Sm         0.5  0.83199     0.25    Sm
C       0.5101   0.1426   0.9563     C
C       0.5101   0.8574   0.0437     C
H       0.5182   0.1541   0.3909     H
H       0.5182   0.8459   0.6091     H
C        0.524   0.1871   0.0967     C
C        0.524   0.8129   0.9033     C
O       0.5363   0.2316   0.2378     O
C       0.5363   0.7684   0.7622     C
O       0.5447   0.1446   0.8849     O
O       0.5447   0.8554   0.1151     O
C       0.5494   0.1941   0.0173     C
C       0.5494   0.8059   0.9827     C
O       0.5541    0.096   0.5235     O
O       0.5541    0.904   0.4765     O
H       0.5638   0.1851   0.2619     H
H       0.5638   0.8149   0.7381     H
H        0.564   0.2777   0.2626     H
H        0.564   0.7223   0.7374     H
C       0.5641   0.2313   0.1562     C
C       0.5641   0.7687   0.8438     C
O       0.5665     0.28   0.6665     O
O       0.5665     0.72   0.3335     O
O       0.6045   0.0657   0.7218     O
O       0.6045   0.9343   0.2782     O
C       0.6089   0.2575   0.9957     C
C       0.6089   0.7425   0.0043     C
C       0.6212   0.2932   0.1358     C
C       0.6212   0.7068   0.8642     C
H       0.6247   0.2655   0.9422     H
H       0.6247   0.7345   0.0578     H
C       0.6305   0.2947   0.7129     C
C       0.6305   0.7053   0.2871     C
O       0.6316   0.0343   0.3638     O
O       0.6316   0.9657   0.6362     O
C       0.6361   0.0025   0.2965     C
C       0.6361   0.9975   0.7035     C
C       0.6444   0.3087   0.0558     C
C       0.6444   0.6913   0.9442     C
O       0.6446   0.2486   0.7747     O
O       0.6446   0.7514   0.2253     O
H       0.6451   0.3257   0.1761     H
H       0.6451   0.6743   0.8239     H
H       0.6481   0.0278   0.8589     H
H       0.6481   0.9722   0.1411     H
Sm     0.66213      0.0      0.5    Sm
H       0.6809   0.3571   0.5758     H
H       0.6809   0.6429   0.4242     H
C       0.6812   0.0183   0.1532     C
C       0.6812   0.9817   0.8468     C
H       0.6823   0.0547   0.9873     H
H       0.6823   0.9453   0.0127     H
C       0.6863   0.0459    0.232     C
C       0.6863   0.9541    0.768     C
C        0.701   0.3574   0.6925     C
C        0.701   0.6426   0.3075     C
C       0.7014   0.3805   0.0341     C
C       0.7014   0.6195   0.9659     C
C       0.7123   0.3802   0.6121     C
C       0.7123   0.6198   0.3879     C
H       0.7201   0.4494   0.4926     H
H       0.7201   0.5506   0.5074     H
O       0.7258   0.4265   0.0845     O
O       0.7258   0.5735   0.9155     O
C       0.7269   0.0612   0.0916     C
C       0.7269   0.9388   0.9084     C
O       0.7314   0.3848   0.9642     O
O       0.7314   0.6152   0.0358     O
O       0.7338   0.0298    0.013     O
C       0.7338   0.9702    0.987     C
C       0.7461   0.1088   0.2509     C
C       0.7461   0.8912   0.7491     C
H       0.7499   0.1276   0.3034     H
H       0.7499   0.8724   0.6966     H
H       0.7501   0.3724   0.8034     H
H       0.7501   0.6276   0.1966     H
C       0.7539   0.3912   0.7509     C
C       0.7539   0.6088   0.2491     C
O       0.7662   0.4702    0.513     O
C       0.7662   0.5298    0.487     C
O       0.7686   0.1152   0.4642     O
O       0.7686   0.8848   0.5358     O
C       0.7731   0.4388   0.5916     C
C       0.7731   0.5612   0.4084     C
O       0.7742   0.0735   0.5845     O
O       0.7742   0.9265   0.4155     O
H       0.7799   0.0506   0.9926     H
H       0.7799   0.9494   0.0074     H
C       0.7877   0.1198   0.1121     C
C       0.7877   0.8802   0.8879     C
C       0.7986   0.1195   0.5341     C
C       0.7986   0.8805   0.4659     C
C        0.799   0.1426   0.1925     C
C        0.799   0.8574   0.8075     C
C       0.8137   0.4541    0.732     C
C       0.8137   0.5459    0.268     C
H       0.8177   0.4453   0.4873     H
H       0.8177   0.5547   0.5127     H
C       0.8188   0.4817   0.6532     C
C       0.8188   0.5183   0.3468     C
H       0.8191   0.1429   0.0758     H
H       0.8191   0.8571   0.9242     H
Sm     0.83787      0.5      0.0    Sm
H       0.8519   0.4722   0.3589     H
H       0.8519   0.5278   0.6411     H
H       0.8549   0.1743   0.6761     H
H       0.8549   0.8257   0.3239     H
O       0.8554   0.2514   0.2747     O
O       0.8554   0.7486   0.7253     O
C       0.8556   0.1913   0.5558     C
C       0.8556   0.8087   0.4442     C
C       0.8639   0.4975   0.7965     C
C       0.8639   0.5025   0.2035     C
O       0.8684   0.4657   0.8638     O
O       0.8684   0.5343   0.1362     O
C       0.8695   0.2053   0.2129     C
C       0.8695   0.7947   0.7871     C
H       0.8753   0.2345   0.4422     H
H       0.8753   0.7655   0.5578     H
C       0.8788   0.2068   0.6358     C
C       0.8788   0.7932   0.3642     C
C       0.8911   0.2425   0.4957     C
C       0.8911   0.7575   0.5043     C
O       0.8955   0.4343   0.2218     O
O       0.8955   0.5657   0.7782     O
O       0.9335     0.22   0.1665     O
O       0.9335     0.78   0.8335     O
C       0.9359   0.2687   0.6562     C
C       0.9359   0.7313   0.3438     C
H        0.936   0.2223   0.7626     H
H        0.936   0.7777   0.2374     H
H       0.9362   0.3149   0.7619     H
H       0.9362   0.6851   0.2381     H
O       0.9459    0.404   0.0235     O
O       0.9459    0.596   0.9765     O
C       0.9506   0.3059   0.5173     C
C       0.9506   0.6941   0.4827     C
O       0.9553   0.3554   0.3849     O
O       0.9553   0.6446   0.6151     O
O       0.9637   0.2684   0.7378     O
C       0.9637   0.7316   0.2622     C
C        0.976   0.3129   0.5967     C
C        0.976   0.6871   0.4033     C
H       0.9818   0.3459   0.8909     H
H       0.9818   0.6541   0.1091     H
C       0.9899   0.3574   0.4563     C
C       0.9899   0.6426   0.5437     C
