data_I
_chemical_name_common  '/home/zhangsd/repos/MofS-CGCNN/ML/data/TSD/clean_cifs/HICZEA_clean'
_cell_length_a 14.66500
_cell_length_b 16.79490
_cell_length_c 16.72920
_cell_angle_alpha 90.00000
_cell_angle_beta  90.00000
_cell_angle_gamma 90.00000
_space_group_name_H-M_alt      'P 1'


loop_
_space_group_symop_operation_xyz
  'x, y, z' 

loop_
_atom_site_label
_atom_site_fract_x
_atom_site_fract_y
_atom_site_fract_z
_atom_site_type_symbol
Pr         0.0  0.33163     0.25    Pr
Pr         0.0  0.66837     0.75    Pr
C       0.0107   0.3569   0.0434     C
C       0.0107   0.6431   0.9566     C
H       0.0206   0.3515   0.6093     H
H       0.0206   0.6485   0.3907     H
C       0.0255   0.3155   0.9032     C
C       0.0255   0.6845   0.0968     C
C       0.0392   0.2712    0.761     C
C       0.0392   0.7288    0.239     C
O        0.046   0.3545   0.1129     O
O        0.046   0.6455   0.8871     O
C       0.0501   0.3064   0.9808     C
C       0.0501   0.6936   0.0192     C
O       0.0514   0.4016   0.4774     O
O       0.0514   0.5984   0.5226     O
H       0.0612   0.2356    0.742     H
H       0.0612   0.7644    0.258     H
C       0.0664   0.2733   0.8418     C
C       0.0664   0.7267   0.1582     C
H       0.0671   0.3174   0.7376     H
H       0.0671   0.6826   0.2624     H
O       0.0701    0.221   0.3347     O
O       0.0701    0.779   0.6653     O
O        0.105   0.4356   0.2781     O
O        0.105   0.5644   0.7219     O
C       0.1085   0.2428   0.0028     C
C       0.1085   0.7572   0.9972     C
C       0.1182   0.2071   0.8644     C
C       0.1182   0.7929   0.1356     C
H       0.1238   0.2351   0.0562     H
H       0.1238   0.7649   0.9438     H
O       0.1315   0.4649   0.6379     O
O       0.1315   0.5351   0.3621     O
C       0.1334   0.2065   0.2878     C
C       0.1334   0.7935   0.7122     C
H       0.1371   0.1716   0.8252     H
H       0.1371   0.8284   0.1748     H
C       0.1375   0.4967   0.7057     C
C       0.1375   0.5033   0.2943     C
H        0.141   0.4758   0.1396     H
H        0.141   0.5242   0.8604     H
C       0.1427   0.1922   0.9445     C
C       0.1427   0.8078   0.0555     C
O       0.1451   0.2506   0.2259     O
O       0.1451   0.7494   0.7741     O
Pr     0.16235      0.5      0.5    Pr
H       0.1687   0.4411     0.01     H
H       0.1687   0.5589     0.99     H
C       0.1771   0.4803   0.8482     C
C       0.1771   0.5197   0.1518     C
H       0.1819   0.1406   0.4253     H
H       0.1819   0.8594   0.5747     H
C       0.1871   0.4541   0.7686     C
C       0.1871   0.5459   0.2314     C
C       0.2004   0.1233   0.9634     C
C       0.2004   0.8767   0.0366     C
C        0.201    0.143   0.3078     C
C        0.201    0.857   0.6922     C
C       0.2138    0.119   0.3888     C
C       0.2138    0.881   0.6112     C
C       0.2229   0.4645    0.988     C
C       0.2229   0.5355    0.012     C
O       0.2232   0.0745   0.9143     O
O       0.2232   0.9255   0.0857     O
C       0.2237   0.4378    0.909     C
C       0.2237   0.5622    0.091     C
O       0.2292   0.1147   0.0332     O
O       0.2292   0.8853   0.9668     O
H        0.235   0.0562   0.5102     H
H        0.235   0.9438   0.4898     H
C       0.2458   0.3933    0.749     C
C       0.2458   0.6067    0.251     C
H         0.25   0.1238   0.1963     H
H         0.25   0.3762   0.6963     H
H         0.25   0.6238   0.3037     H
H         0.25   0.8762   0.8037     H
C       0.2542   0.1067    0.249     C
C       0.2542   0.8933    0.751     C
H        0.265   0.4438   0.0102     H
H        0.265   0.5562   0.9898     H
O       0.2708   0.3853   0.5332     O
O       0.2708   0.6147   0.4668     O
C       0.2763   0.0622    0.409     C
C       0.2763   0.9378    0.591     C
O       0.2768   0.4255   0.4143     O
O       0.2768   0.5745   0.5857     O
C       0.2771   0.0355    0.488     C
C       0.2771   0.9645    0.512     C
C       0.2862    0.381   0.8888     C
C       0.2862    0.619   0.1112     C
C        0.299    0.357   0.8078     C
C        0.299    0.643   0.1922     C
C       0.2996   0.3767   0.4634     C
C       0.2996   0.6233   0.5366     C
C       0.3129   0.0459   0.2686     C
C       0.3129   0.9541   0.7314     C
H       0.3181   0.3594   0.9253     H
H       0.3181   0.6406   0.0747     H
C       0.3229   0.0197   0.3482     C
C       0.3229   0.9803   0.6518     C
H       0.3313   0.0589     0.51     H
H       0.3313   0.9411     0.49     H
Pr     0.33765      0.0      0.0    Pr
O       0.3549   0.2494   0.7259     O
O       0.3549   0.7506   0.2741     O
C       0.3573   0.3078   0.4445     C
C       0.3573   0.6922   0.5555     C
H        0.359   0.0242   0.6396     H
H        0.359   0.9758   0.3604     H
C       0.3625   0.0033   0.2057     C
C       0.3625   0.9967   0.7943     C
H       0.3629   0.3284   0.3252     H
H       0.3629   0.6716   0.6748     H
C       0.3666   0.2935   0.7878     C
C       0.3666   0.7065   0.2122     C
O       0.3685   0.0351   0.1379     O
O       0.3685   0.9649   0.8621     O
H       0.3762   0.2649   0.5562     H
H       0.3762   0.7351   0.4438     H
C       0.3818   0.2929   0.3644     C
C       0.3818   0.7071   0.6356     C
C       0.3915   0.2572   0.5028     C
C       0.3915   0.7428   0.4972     C
O        0.395   0.0644   0.7781     O
O        0.395   0.9356   0.2219     O
O       0.4299    0.279   0.8347     O
O       0.4299    0.721   0.1653     O
H       0.4329   0.1826   0.2376     H
H       0.4329   0.8174   0.7624     H
C       0.4336   0.2267   0.3418     C
C       0.4336   0.7733   0.6582     C
H       0.4388   0.2644    0.242     H
H       0.4388   0.7356    0.758     H
O       0.4486   0.0984   0.9774     O
O       0.4486   0.9016   0.0226     O
C       0.4499   0.1936   0.4808     C
C       0.4499   0.8064   0.5192     C
O        0.454   0.1455   0.6129     O
O        0.454   0.8545   0.3871     O
C       0.4608   0.2288    0.261     C
C       0.4608   0.7712    0.739     C
C       0.4745   0.1845   0.4032     C
C       0.4745   0.8155   0.5968     C
H       0.4794   0.1485   0.1093     H
H       0.4794   0.8515   0.8907     H
C       0.4893   0.1431   0.5434     C
C       0.4893   0.8569   0.4566     C
Pr         0.5  0.16837     0.75    Pr
Pr         0.5  0.83163     0.25    Pr
C       0.5107   0.1431   0.9566     C
C       0.5107   0.8569   0.0434     C
H       0.5206   0.1485   0.3907     H
H       0.5206   0.8515   0.6093     H
C       0.5255   0.1845   0.0968     C
C       0.5255   0.8155   0.9032     C
C       0.5392   0.2288    0.239     C
C       0.5392   0.7712    0.761     C
O        0.546   0.1455   0.8871     O
O        0.546   0.8545   0.1129     O
C       0.5501   0.1936   0.0192     C
C       0.5501   0.8064   0.9808     C
O       0.5514   0.0984   0.5226     O
O       0.5514   0.9016   0.4774     O
H       0.5612   0.2644    0.258     H
H       0.5612   0.7356    0.742     H
C       0.5664   0.2267   0.1582     C
C       0.5664   0.7733   0.8418     C
H       0.5671   0.1826   0.2624     H
H       0.5671   0.8174   0.7376     H
O       0.5701    0.279   0.6653     O
O       0.5701    0.721   0.3347     O
O        0.605   0.0644   0.7219     O
O        0.605   0.9356   0.2781     O
C       0.6085   0.2572   0.9972     C
C       0.6085   0.7428   0.0028     C
C       0.6182   0.2929   0.1356     C
C       0.6182   0.7071   0.8644     C
H       0.6238   0.2649   0.9438     H
H       0.6238   0.7351   0.0562     H
O       0.6315   0.0351   0.3621     O
O       0.6315   0.9649   0.6379     O
C       0.6334   0.2935   0.7122     C
C       0.6334   0.7065   0.2878     C
H       0.6371   0.3284   0.1748     H
H       0.6371   0.6716   0.8252     H
C       0.6375   0.0033   0.2943     C
C       0.6375   0.9967   0.7057     C
H        0.641   0.0242   0.8604     H
H        0.641   0.9758   0.1396     H
C       0.6427   0.3078   0.0555     C
C       0.6427   0.6922   0.9445     C
O       0.6451   0.2494   0.7741     O
O       0.6451   0.7506   0.2259     O
Pr     0.66235      0.0      0.5    Pr
H       0.6687   0.0589     0.99     H
H       0.6687   0.9411     0.01     H
C       0.6771   0.0197   0.1518     C
C       0.6771   0.9803   0.8482     C
H       0.6819   0.3594   0.5747     H
H       0.6819   0.6406   0.4253     H
C       0.6871   0.0459   0.2314     C
C       0.6871   0.9541   0.7686     C
C       0.7004   0.3767   0.0366     C
C       0.7004   0.6233   0.9634     C
C        0.701    0.357   0.6922     C
C        0.701    0.643   0.3078     C
C       0.7138    0.381   0.6112     C
C       0.7138    0.619   0.3888     C
C       0.7229   0.0355    0.012     C
C       0.7229   0.9645    0.988     C
O       0.7232   0.4255   0.0857     O
O       0.7232   0.5745   0.9143     O
C       0.7237   0.0622    0.091     C
C       0.7237   0.9378    0.909     C
O       0.7292   0.3853   0.9668     O
O       0.7292   0.6147   0.0332     O
H        0.735   0.4438   0.4898     H
H        0.735   0.5562   0.5102     H
C       0.7458   0.1067    0.251     C
C       0.7458   0.8933    0.749     C
H         0.75   0.1238   0.3037     H
H         0.75   0.3762   0.8037     H
H         0.75   0.6238   0.1963     H
H         0.75   0.8762   0.6963     H
C       0.7542   0.3933    0.751     C
C       0.7542   0.6067    0.249     C
H        0.765   0.0562   0.9898     H
H        0.765   0.9438   0.0102     H
O       0.7708   0.1147   0.4668     O
O       0.7708   0.8853   0.5332     O
C       0.7763   0.4378    0.591     C
C       0.7763   0.5622    0.409     C
O       0.7768   0.0745   0.5857     O
O       0.7768   0.9255   0.4143     O
C       0.7771   0.4645    0.512     C
C       0.7771   0.5355    0.488     C
C       0.7862    0.119   0.1112     C
C       0.7862    0.881   0.8888     C
C        0.799    0.143   0.1922     C
C        0.799    0.857   0.8078     C
C       0.7996   0.1233   0.5366     C
C       0.7996   0.8767   0.4634     C
C       0.8129   0.4541   0.7314     C
C       0.8129   0.5459   0.2686     C
H       0.8181   0.1406   0.0747     H
H       0.8181   0.8594   0.9253     H
C       0.8229   0.4803   0.6518     C
C       0.8229   0.5197   0.3482     C
H       0.8313   0.4411     0.49     H
H       0.8313   0.5589     0.51     H
Pr     0.83765      0.5      0.0    Pr
O       0.8549   0.2506   0.2741     O
O       0.8549   0.7494   0.7259     O
C       0.8573   0.1922   0.5555     C
C       0.8573   0.8078   0.4445     C
H        0.859   0.4758   0.3604     H
H        0.859   0.5242   0.6396     H
C       0.8625   0.4967   0.7943     C
C       0.8625   0.5033   0.2057     C
H       0.8629   0.1716   0.6748     H
H       0.8629   0.8284   0.3252     H
C       0.8666   0.2065   0.2122     C
C       0.8666   0.7935   0.7878     C
O       0.8685   0.4649   0.8621     O
O       0.8685   0.5351   0.1379     O
H       0.8762   0.2351   0.4438     H
H       0.8762   0.7649   0.5562     H
C       0.8818   0.2071   0.6356     C
C       0.8818   0.7929   0.3644     C
C       0.8915   0.2428   0.4972     C
C       0.8915   0.7572   0.5028     C
O        0.895   0.4356   0.2219     O
O        0.895   0.5644   0.7781     O
O       0.9299    0.221   0.1653     O
O       0.9299    0.779   0.8347     O
H       0.9329   0.3174   0.7624     H
H       0.9329   0.6826   0.2376     H
C       0.9336   0.2733   0.6582     C
C       0.9336   0.7267   0.3418     C
H       0.9388   0.2356    0.758     H
H       0.9388   0.7644    0.242     H
O       0.9486   0.4016   0.0226     O
O       0.9486   0.5984   0.9774     O
C       0.9499   0.3064   0.5192     C
C       0.9499   0.6936   0.4808     C
O        0.954   0.3545   0.3871     O
O        0.954   0.6455   0.6129     O
C       0.9608   0.2712    0.739     C
C       0.9608   0.7288    0.261     C
C       0.9745   0.3155   0.5968     C
C       0.9745   0.6845   0.4032     C
H       0.9794   0.3515   0.8907     H
H       0.9794   0.6485   0.1093     H
C       0.9893   0.3569   0.4566     C
C       0.9893   0.6431   0.5434     C
