data_I
_chemical_name_common  '/home/zhangsd/repos/MofS-CGCNN/ML/data/TSD/clean_cifs/HIDBIH_clean'
_cell_length_a 23.60660
_cell_length_b 10.05990
_cell_length_c 17.71350
_cell_angle_alpha 90.00000
_cell_angle_beta  124.83600
_cell_angle_gamma 90.00000
_space_group_name_H-M_alt      'P 1'


loop_
_space_group_symop_operation_xyz
  'x, y, z' 

loop_
_atom_site_label
_atom_site_fract_x
_atom_site_fract_y
_atom_site_fract_z
_atom_site_type_symbol
H          0.0   0.0406     0.75     H
C          0.0   0.0519     0.25     C
C          0.0   0.3281     0.25     C
H          0.0   0.4205     0.25     H
H          0.0   0.5795     0.75     H
C          0.0   0.6719     0.75     C
C          0.0   0.9481     0.75     C
H          0.0   0.9594     0.25     H
C      0.02779   0.2586   0.2103     C
C      0.02779   0.7414   0.7103     C
C      0.02812   0.1217   0.2108     C
C      0.02812   0.8783   0.7108     C
H       0.0461   0.3047   0.1834     H
H       0.0461   0.6953   0.6834     H
C       0.0602   0.0469  0.17061     C
C       0.0602   0.9531  0.67061     C
O      0.06943   0.1055   0.1153     O
O      0.06943   0.8945   0.6153     O
O      0.07977   0.0702  0.69604     O
O      0.07977   0.9298  0.19604     O
H       0.1251   0.1798   0.0188     H
H       0.1251   0.8202   0.5188     H
Cd     0.13569  0.09936  0.62633    Cd
Cd     0.13569  0.90064  0.12633    Cd
C      0.13683   0.1128   0.9939     C
C      0.13683   0.8872   0.4939     C
N       0.1374   0.0208   0.5108     N
N       0.1374   0.9792   0.0108     N
H       0.1403   0.3796   0.9653     H
H       0.1403   0.6204   0.4653     H
C      0.15564   0.3771   0.9272     C
C      0.15564   0.6229   0.4272     C
C      0.15617   0.1327  0.93497     C
C      0.15617   0.8673  0.43497     C
C      0.15679   0.0815   0.4622     C
C      0.15679   0.9185   0.9622     C
H        0.158    0.424    0.414     H
H        0.158    0.576    0.914     H
H       0.1616    0.173   0.4606     H
H       0.1616    0.827   0.9606     H
C       0.1664   0.4954   0.8965     C
C       0.1664   0.5046   0.3965     C
C      0.16744   0.2555  0.90163     C
C      0.16744   0.7445  0.40163     C
N      0.16839   0.0071  0.91569     N
N      0.16839   0.9929  0.41569     N
H       0.1812   0.0112   0.3801     H
H       0.1812   0.9888   0.8801     H
C      0.18964   0.4943   0.8403     C
C      0.18964   0.5057   0.3403     C
C      0.19133   0.2547   0.8453     C
C      0.19133   0.7453   0.3453     C
H       0.1969   0.4262   0.3201     H
H       0.1969   0.5738   0.8201     H
H       0.2002   0.1741   0.8283     H
H       0.2002   0.8259   0.3283     H
C      0.20208   0.3732  0.81425     C
C      0.20208   0.6268  0.31425     C
N      0.20467   0.2819  0.68633     N
N      0.20467   0.7181  0.18633     N
N      0.22516   0.0805   0.3137     N
N      0.22516   0.9195   0.8137     N
C      0.22583   0.3713  0.75318     C
C      0.22583   0.6287  0.25318     C
N      0.23028   0.0427  0.24501     N
N      0.23028   0.9573  0.74501     N
N       0.2364   0.3157  0.64457     N
N       0.2364   0.6843  0.14457     N
N       0.2636   0.1843  0.35543     N
N       0.2636   0.8157  0.85543     N
N      0.26972   0.4573  0.75499     N
N      0.26972   0.5427  0.25499     N
C      0.27417   0.1287  0.24682     C
C      0.27417   0.8713  0.74682     C
N      0.27484   0.4195   0.6863     N
N      0.27484   0.5805   0.1863     N
N      0.29533   0.2181  0.31367     N
N      0.29533   0.7819  0.81367     N
C      0.29792   0.1268  0.18575     C
C      0.29792   0.8732  0.68575     C
H       0.2998   0.3259   0.1717     H
H       0.2998   0.6741   0.6717     H
H       0.3031   0.0738   0.6799     H
H       0.3031   0.9262   0.1799     H
C      0.30867   0.2453   0.1547     C
C      0.30867   0.7547   0.6547     C
C      0.31036   0.0057   0.1597     C
C      0.31036   0.9943   0.6597     C
H       0.3188   0.4888   0.6199     H
H       0.3188   0.5112   0.1199     H
N      0.33161   0.4929  0.08431     N
N      0.33161   0.5071  0.58431     N
C      0.33256   0.2445  0.09837     C
C      0.33256   0.7555  0.59837     C
C       0.3336   0.0046   0.1035     C
C       0.3336   0.9954   0.6035     C
H       0.3384    0.327   0.5394     H
H       0.3384    0.673   0.0394     H
H        0.342    0.076    0.586     H
H        0.342    0.924    0.086     H
C      0.34321   0.4185   0.5378     C
C      0.34321   0.5815   0.0378     C
C      0.34383   0.3673  0.06503     C
C      0.34383   0.6327  0.56503     C
C      0.34436   0.1229   0.0728     C
C      0.34436   0.8771   0.5728     C
H       0.3597   0.1204   0.0347     H
H       0.3597   0.8796   0.5347     H
N       0.3626   0.4792   0.4892     N
N       0.3626   0.5208   0.9892     N
C      0.36317   0.3872   0.0061     C
C      0.36317   0.6128   0.5061     C
Cd     0.36431  0.40064  0.37367    Cd
Cd     0.36431  0.59936  0.87367    Cd
H       0.3749   0.3202   0.9812     H
H       0.3749   0.6798   0.4812     H
O      0.42023   0.4298  0.30396     O
O      0.42023   0.5702  0.80396     O
O      0.43057   0.3945   0.8847     O
O      0.43057   0.6055   0.3847     O
C       0.4398   0.4531  0.82939     C
C       0.4398   0.5469  0.32939     C
H       0.4539   0.1953   0.8166     H
H       0.4539   0.8047   0.3166     H
C      0.47188   0.3783   0.7892     C
C      0.47188   0.6217   0.2892     C
C      0.47221   0.2414   0.7897     C
C      0.47221   0.7586   0.2897     C
H          0.5   0.0795     0.75     H
C          0.5   0.1719     0.75     C
C          0.5   0.4481     0.75     C
H          0.5   0.4594     0.25     H
H          0.5   0.5406     0.75     H
C          0.5   0.5519     0.25     C
C          0.5   0.8281     0.25     C
H          0.5   0.9205     0.25     H
C      0.52779   0.2414   0.7103     C
C      0.52779   0.7586   0.2103     C
C      0.52812   0.3783   0.7108     C
C      0.52812   0.6217   0.2108     C
H       0.5461   0.1953   0.6834     H
H       0.5461   0.8047   0.1834     H
C       0.5602   0.4531  0.67061     C
C       0.5602   0.5469  0.17061     C
O      0.56943   0.3945   0.6153     O
O      0.56943   0.6055   0.1153     O
O      0.57977   0.4298  0.19604     O
O      0.57977   0.5702  0.69604     O
H       0.6251   0.3202   0.5188     H
H       0.6251   0.6798   0.0188     H
Cd     0.63569  0.40064  0.12633    Cd
Cd     0.63569  0.59936  0.62633    Cd
C      0.63683   0.3872   0.4939     C
C      0.63683   0.6128   0.9939     C
N       0.6374   0.4792   0.0108     N
N       0.6374   0.5208   0.5108     N
H       0.6403   0.1204   0.4653     H
H       0.6403   0.8796   0.9653     H
C      0.65564   0.1229   0.4272     C
C      0.65564   0.8771   0.9272     C
C      0.65617   0.3673  0.43497     C
C      0.65617   0.6327  0.93497     C
C      0.65679   0.4185   0.9622     C
C      0.65679   0.5815   0.4622     C
H        0.658    0.076    0.914     H
H        0.658    0.924    0.414     H
H       0.6616    0.327   0.9606     H
H       0.6616    0.673   0.4606     H
C       0.6664   0.0046   0.3965     C
C       0.6664   0.9954   0.8965     C
C      0.66744   0.2445  0.40163     C
C      0.66744   0.7555  0.90163     C
N      0.66839   0.4929  0.41569     N
N      0.66839   0.5071  0.91569     N
H       0.6812   0.4888   0.8801     H
H       0.6812   0.5112   0.3801     H
C      0.68964   0.0057   0.3403     C
C      0.68964   0.9943   0.8403     C
C      0.69133   0.2453   0.3453     C
C      0.69133   0.7547   0.8453     C
H       0.6969   0.0738   0.8201     H
H       0.6969   0.9262   0.3201     H
H       0.7002   0.3259   0.3283     H
H       0.7002   0.6741   0.8283     H
C      0.70208   0.1268  0.31425     C
C      0.70208   0.8732  0.81425     C
N      0.70467   0.2181  0.18633     N
N      0.70467   0.7819  0.68633     N
N      0.72516   0.4195   0.8137     N
N      0.72516   0.5805   0.3137     N
C      0.72583   0.1287  0.25318     C
C      0.72583   0.8713  0.75318     C
N      0.73028   0.4573  0.74501     N
N      0.73028   0.5427  0.24501     N
N       0.7364   0.1843  0.14457     N
N       0.7364   0.8157  0.64457     N
N       0.7636   0.3157  0.85543     N
N       0.7636   0.6843  0.35543     N
N      0.76972   0.0427  0.25499     N
N      0.76972   0.9573  0.75499     N
C      0.77417   0.3713  0.74682     C
C      0.77417   0.6287  0.24682     C
N      0.77484   0.0805   0.1863     N
N      0.77484   0.9195   0.6863     N
N      0.79533   0.2819  0.81367     N
N      0.79533   0.7181  0.31367     N
C      0.79792   0.3732  0.68575     C
C      0.79792   0.6268  0.18575     C
H       0.7998   0.1741   0.6717     H
H       0.7998   0.8259   0.1717     H
H       0.8031   0.4262   0.1799     H
H       0.8031   0.5738   0.6799     H
C      0.80867   0.2547   0.6547     C
C      0.80867   0.7453   0.1547     C
C      0.81036   0.4943   0.6597     C
C      0.81036   0.5057   0.1597     C
H       0.8188   0.0112   0.1199     H
H       0.8188   0.9888   0.6199     H
N      0.83161   0.0071  0.58431     N
N      0.83161   0.9929  0.08431     N
C      0.83256   0.2555  0.59837     C
C      0.83256   0.7445  0.09837     C
C       0.8336   0.4954   0.6035     C
C       0.8336   0.5046   0.1035     C
H       0.8384    0.173   0.0394     H
H       0.8384    0.827   0.5394     H
H        0.842    0.424    0.086     H
H        0.842    0.576    0.586     H
C      0.84321   0.0815   0.0378     C
C      0.84321   0.9185   0.5378     C
C      0.84383   0.1327  0.56503     C
C      0.84383   0.8673  0.06503     C
C      0.84436   0.3771   0.5728     C
C      0.84436   0.6229   0.0728     C
H       0.8597   0.3796   0.5347     H
H       0.8597   0.6204   0.0347     H
N       0.8626   0.0208   0.9892     N
N       0.8626   0.9792   0.4892     N
C      0.86317   0.1128   0.5061     C
C      0.86317   0.8872   0.0061     C
Cd     0.86431  0.09936  0.87367    Cd
Cd     0.86431  0.90064  0.37367    Cd
H       0.8749   0.1798   0.4812     H
H       0.8749   0.8202   0.9812     H
O      0.92023   0.0702  0.80396     O
O      0.92023   0.9298  0.30396     O
O      0.93057   0.1055   0.3847     O
O      0.93057   0.8945   0.8847     O
C       0.9398   0.0469  0.32939     C
C       0.9398   0.9531  0.82939     C
H       0.9539   0.3047   0.3166     H
H       0.9539   0.6953   0.8166     H
C      0.97188   0.1217   0.2892     C
C      0.97188   0.8783   0.7892     C
C      0.97221   0.2586   0.2897     C
C      0.97221   0.7414   0.7897     C
