data_I
_chemical_name_common  '/home/zhangsd/repos/MofS-CGCNN/ML/data/TSD/clean_cifs/HIDCUU_clean'
_cell_length_a 14.60770
_cell_length_b 16.55680
_cell_length_c 16.63030
_cell_angle_alpha 90.00000
_cell_angle_beta  90.00000
_cell_angle_gamma 90.00000
_space_group_name_H-M_alt      'P 1'


loop_
_space_group_symop_operation_xyz
  'x, y, z' 

loop_
_atom_site_label
_atom_site_fract_x
_atom_site_fract_y
_atom_site_fract_z
_atom_site_type_symbol
Eu         0.0  0.33196     0.25    Eu
Eu         0.0  0.66804     0.75    Eu
C       0.0095   0.3576    0.044     C
C       0.0095   0.6424    0.956     C
H       0.0193   0.3525   0.6105     H
H       0.0193   0.6475   0.3895     H
C       0.0245   0.3142   0.9033     C
C       0.0245   0.6858   0.0967     C
C       0.0352   0.2653   0.7626     C
C       0.0352   0.7347   0.2374     C
O       0.0434   0.3563   0.1148     O
O       0.0434   0.6437   0.8852     O
C       0.0488   0.3049    0.983     C
C       0.0488   0.6951    0.017     C
O       0.0538   0.4031   0.4761     O
O       0.0538   0.5969   0.5239     O
H       0.0634   0.2179   0.7404     H
H       0.0634   0.7821   0.2596     H
C       0.0638   0.2678   0.8437     C
C       0.0638   0.7322   0.1563     C
H       0.0646   0.3105   0.7374     H
H       0.0646   0.6895   0.2626     H
O       0.0647   0.2196   0.3322     O
O       0.0647   0.7804   0.6678     O
O       0.1021   0.4346   0.2781     O
O       0.1021   0.5654   0.7219     O
C       0.1084   0.2421   0.0055     C
C       0.1084   0.7579   0.9945     C
C       0.1217   0.2068   0.8646     C
C       0.1217   0.7932   0.1354     C
H       0.1233   0.2342   0.0593     H
H       0.1233   0.7658   0.9407     H
O        0.131   0.4654   0.6353     O
O        0.131   0.5346   0.3647     O
C       0.1312   0.2064   0.2859     C
C       0.1312   0.7936   0.7141     C
C       0.1365   0.4984   0.7037     C
C       0.1365   0.5016   0.2963     C
O       0.1431    0.252   0.2251     O
O       0.1431    0.748   0.7749     O
H        0.144   0.4747    0.141     H
H        0.144   0.5253    0.859     H
C       0.1454   0.1912   0.9456     C
C       0.1454   0.8088   0.0544     C
H       0.1465   0.1744   0.8244     H
H       0.1465   0.8256   0.1756     H
Eu     0.16194      0.5      0.5    Eu
H       0.1786   0.1459   0.4273     H
H       0.1786   0.8541   0.5727     H
C       0.1794   0.4803   0.8468     C
C       0.1794   0.5197   0.1532     C
H       0.1798   0.4439   0.0128     H
H       0.1798   0.5561   0.9872     H
C       0.1874   0.4536   0.7683     C
C       0.1874   0.5464   0.2317     C
C       0.2009   0.1447   0.3074     C
C       0.2009   0.8553   0.6926     C
C       0.2032   0.1208   0.9654     C
C       0.2032   0.8792   0.0346     C
C       0.2129    0.121   0.3873     C
C       0.2129    0.879   0.6127     C
H       0.2153   0.0555    0.511     H
H       0.2153   0.9445    0.489     H
C       0.2258   0.4381   0.9081     C
C       0.2258   0.5619   0.0919     C
O       0.2281   0.0739    0.914     O
O       0.2281   0.9261    0.086     O
C       0.2315   0.4688   0.9872     C
C       0.2315   0.5312   0.0128     C
O       0.2336   0.1152   0.0362     O
O       0.2336   0.8848   0.9638     O
C       0.2471   0.3922   0.7488     C
C       0.2471   0.6078   0.2512     C
H       0.2476   0.1244   0.1956     H
H       0.2476   0.8756   0.8044     H
H       0.2524   0.3756   0.6956     H
H       0.2524   0.6244   0.3044     H
C       0.2529   0.1078   0.2488     C
C       0.2529   0.8922   0.7512     C
O       0.2664   0.3848   0.5362     O
O       0.2664   0.6152   0.4638     O
C       0.2685   0.0312   0.4872     C
C       0.2685   0.9688   0.5128     C
O       0.2719   0.4261    0.414     O
O       0.2719   0.5739    0.586     O
C       0.2742   0.0619   0.4081     C
C       0.2742   0.9381   0.5919     C
H       0.2847   0.4445    0.011     H
H       0.2847   0.5555    0.989     H
C       0.2871    0.379   0.8873     C
C       0.2871    0.621   0.1127     C
C       0.2968   0.3792   0.4654     C
C       0.2968   0.6208   0.5346     C
C       0.2991   0.3553   0.8074     C
C       0.2991   0.6447   0.1926     C
C       0.3126   0.0464   0.2683     C
C       0.3126   0.9536   0.7317     C
H       0.3202   0.0561   0.5128     H
H       0.3202   0.9439   0.4872     H
C       0.3206   0.0197   0.3468     C
C       0.3206   0.9803   0.6532     C
H       0.3214   0.3541   0.9273     H
H       0.3214   0.6459   0.0727     H
Eu     0.33806      0.0      0.0    Eu
H       0.3535   0.3256   0.3244     H
H       0.3535   0.6744   0.6756     H
C       0.3546   0.3088   0.4456     C
C       0.3546   0.6912   0.5544     C
H        0.356   0.0253    0.641     H
H        0.356   0.9747    0.359     H
O       0.3569    0.248   0.7251     O
O       0.3569    0.752   0.2749     O
C       0.3635   0.0016   0.2037     C
C       0.3635   0.9984   0.7963     C
C       0.3688   0.2936   0.7859     C
C       0.3688   0.7064   0.2141     C
O        0.369   0.0346   0.1353     O
O        0.369   0.9654   0.8647     O
H       0.3767   0.2658   0.5593     H
H       0.3767   0.7342   0.4407     H
C       0.3783   0.2932   0.3646     C
C       0.3783   0.7068   0.6354     C
C       0.3916   0.2579   0.5055     C
C       0.3916   0.7421   0.4945     C
O       0.3979   0.0654   0.7781     O
O       0.3979   0.9346   0.2219     O
O       0.4353   0.2804   0.8322     O
O       0.4353   0.7196   0.1678     O
H       0.4354   0.1895   0.2374     H
H       0.4354   0.8105   0.7626     H
C       0.4362   0.2322   0.3437     C
C       0.4362   0.7678   0.6563     C
H       0.4366   0.2821   0.2404     H
H       0.4366   0.7179   0.7596     H
O       0.4462   0.0969   0.9761     O
O       0.4462   0.9031   0.0239     O
C       0.4512   0.1951    0.483     C
C       0.4512   0.8049    0.517     C
O       0.4566   0.1437   0.6148     O
O       0.4566   0.8563   0.3852     O
C       0.4648   0.2347   0.2626     C
C       0.4648   0.7653   0.7374     C
C       0.4755   0.1858   0.4033     C
C       0.4755   0.8142   0.5967     C
H       0.4807   0.1475   0.1105     H
H       0.4807   0.8525   0.8895     H
C       0.4905   0.1424    0.544     C
C       0.4905   0.8576    0.456     C
Eu         0.5  0.16804     0.75    Eu
Eu         0.5  0.83196     0.25    Eu
C       0.5095   0.1424    0.956     C
C       0.5095   0.8576    0.044     C
H       0.5193   0.1475   0.3895     H
H       0.5193   0.8525   0.6105     H
C       0.5245   0.1858   0.0967     C
C       0.5245   0.8142   0.9033     C
C       0.5352   0.2347   0.2374     C
C       0.5352   0.7653   0.7626     C
O       0.5434   0.1437   0.8852     O
O       0.5434   0.8563   0.1148     O
C       0.5488   0.1951    0.017     C
C       0.5488   0.8049    0.983     C
O       0.5538   0.0969   0.5239     O
O       0.5538   0.9031   0.4761     O
H       0.5634   0.2821   0.2596     H
H       0.5634   0.7179   0.7404     H
C       0.5638   0.2322   0.1563     C
C       0.5638   0.7678   0.8437     C
H       0.5646   0.1895   0.2626     H
H       0.5646   0.8105   0.7374     H
O       0.5647   0.2804   0.6678     O
O       0.5647   0.7196   0.3322     O
O       0.6021   0.0654   0.7219     O
O       0.6021   0.9346   0.2781     O
C       0.6084   0.2579   0.9945     C
C       0.6084   0.7421   0.0055     C
C       0.6217   0.2932   0.1354     C
C       0.6217   0.7068   0.8646     C
H       0.6233   0.2658   0.9407     H
H       0.6233   0.7342   0.0593     H
O        0.631   0.0346   0.3647     O
O        0.631   0.9654   0.6353     O
C       0.6312   0.2936   0.7141     C
C       0.6312   0.7064   0.2859     C
C       0.6365   0.0016   0.2963     C
C       0.6365   0.9984   0.7037     C
O       0.6431    0.248   0.7749     O
O       0.6431    0.752   0.2251     O
H        0.644   0.0253    0.859     H
H        0.644   0.9747    0.141     H
C       0.6454   0.3088   0.0544     C
C       0.6454   0.6912   0.9456     C
H       0.6465   0.3256   0.1756     H
H       0.6465   0.6744   0.8244     H
Eu     0.66194      0.0      0.5    Eu
H       0.6786   0.3541   0.5727     H
H       0.6786   0.6459   0.4273     H
C       0.6794   0.0197   0.1532     C
C       0.6794   0.9803   0.8468     C
H       0.6798   0.0561   0.9872     H
H       0.6798   0.9439   0.0128     H
C       0.6874   0.0464   0.2317     C
C       0.6874   0.9536   0.7683     C
C       0.7009   0.3553   0.6926     C
C       0.7009   0.6447   0.3074     C
C       0.7032   0.3792   0.0346     C
C       0.7032   0.6208   0.9654     C
C       0.7129    0.379   0.6127     C
C       0.7129    0.621   0.3873     C
H       0.7153   0.4445    0.489     H
H       0.7153   0.5555    0.511     H
C       0.7258   0.0619   0.0919     C
C       0.7258   0.9381   0.9081     C
O       0.7281   0.4261    0.086     O
O       0.7281   0.5739    0.914     O
C       0.7315   0.0312   0.0128     C
C       0.7315   0.9688   0.9872     C
O       0.7336   0.3848   0.9638     O
O       0.7336   0.6152   0.0362     O
C       0.7471   0.1078   0.2512     C
C       0.7471   0.8922   0.7488     C
H       0.7476   0.3756   0.8044     H
H       0.7476   0.6244   0.1956     H
H       0.7524   0.1244   0.3044     H
H       0.7524   0.8756   0.6956     H
C       0.7529   0.3922   0.7512     C
C       0.7529   0.6078   0.2488     C
O       0.7664   0.1152   0.4638     O
O       0.7664   0.8848   0.5362     O
C       0.7685   0.4688   0.5128     C
C       0.7685   0.5312   0.4872     C
O       0.7719   0.0739    0.586     O
O       0.7719   0.9261    0.414     O
C       0.7742   0.4381   0.5919     C
C       0.7742   0.5619   0.4081     C
H       0.7847   0.0555    0.989     H
H       0.7847   0.9445    0.011     H
C       0.7871    0.121   0.1127     C
C       0.7871    0.879   0.8873     C
C       0.7968   0.1208   0.5346     C
C       0.7968   0.8792   0.4654     C
C       0.7991   0.1447   0.1926     C
C       0.7991   0.8553   0.8074     C
C       0.8126   0.4536   0.7317     C
C       0.8126   0.5464   0.2683     C
H       0.8202   0.4439   0.4872     H
H       0.8202   0.5561   0.5128     H
C       0.8206   0.4803   0.6532     C
C       0.8206   0.5197   0.3468     C
H       0.8214   0.1459   0.0727     H
H       0.8214   0.8541   0.9273     H
Eu     0.83806      0.5      0.0    Eu
H       0.8535   0.1744   0.6756     H
H       0.8535   0.8256   0.3244     H
C       0.8546   0.1912   0.5544     C
C       0.8546   0.8088   0.4456     C
H        0.856   0.4747    0.359     H
H        0.856   0.5253    0.641     H
O       0.8569    0.252   0.2749     O
O       0.8569    0.748   0.7251     O
C       0.8635   0.4984   0.7963     C
C       0.8635   0.5016   0.2037     C
C       0.8688   0.2064   0.2141     C
C       0.8688   0.7936   0.7859     C
O        0.869   0.4654   0.8647     O
O        0.869   0.5346   0.1353     O
H       0.8767   0.2342   0.4407     H
H       0.8767   0.7658   0.5593     H
C       0.8783   0.2068   0.6354     C
C       0.8783   0.7932   0.3646     C
C       0.8916   0.2421   0.4945     C
C       0.8916   0.7579   0.5055     C
O       0.8979   0.4346   0.2219     O
O       0.8979   0.5654   0.7781     O
O       0.9353   0.2196   0.1678     O
O       0.9353   0.7804   0.8322     O
H       0.9354   0.3105   0.7626     H
H       0.9354   0.6895   0.2374     H
C       0.9362   0.2678   0.6563     C
C       0.9362   0.7322   0.3437     C
H       0.9366   0.2179   0.7596     H
H       0.9366   0.7821   0.2404     H
O       0.9462   0.4031   0.0239     O
O       0.9462   0.5969   0.9761     O
C       0.9512   0.3049    0.517     C
C       0.9512   0.6951    0.483     C
O       0.9566   0.3563   0.3852     O
O       0.9566   0.6437   0.6148     O
C       0.9648   0.2653   0.7374     C
C       0.9648   0.7347   0.2626     C
C       0.9755   0.3142   0.5967     C
C       0.9755   0.6858   0.4033     C
H       0.9807   0.3525   0.8895     H
H       0.9807   0.6475   0.1105     H
C       0.9905   0.3576    0.456     C
C       0.9905   0.6424    0.544     C
