data_I
_chemical_name_common  '/home/zhangsd/repos/MofS-CGCNN/ML/data/TSD/clean_cifs/HIFTOG01_clean'
_cell_length_a 18.31490
_cell_length_b 18.31490
_cell_length_c 18.31490
_cell_angle_alpha 60.32950
_cell_angle_beta  60.32950
_cell_angle_gamma 60.32950
_space_group_name_H-M_alt      'P 1'


loop_
_space_group_symop_operation_xyz
  'x, y, z' 

loop_
_atom_site_label
_atom_site_fract_x
_atom_site_fract_y
_atom_site_fract_z
_atom_site_type_symbol
C       0.0252   0.0252    0.406     C
C       0.0252    0.406   0.0252     C
C       0.0277   0.4051   0.5387     C
C       0.0277   0.5387   0.4051     C
C       0.0294   0.0294   0.5353     C
C       0.0294   0.5353   0.0294     C
H       0.0417   0.0417   0.3445     H
H       0.0417   0.3445   0.0417     H
H       0.0426   0.3435   0.5653     H
H       0.0426   0.5653   0.3435     H
H       0.0488   0.0488   0.5586     H
H       0.0488   0.5586   0.0488     H
C       0.0539   0.0539    0.444     C
C       0.0539    0.444   0.0539     C
C       0.0599  0.44245  0.44245     C
C       0.1113   0.1113   0.3901     C
C       0.1113   0.3901   0.1113     C
C       0.1117   0.3894   0.3894     C
O       0.1338   0.1338   0.4282     O
O       0.1338   0.4282   0.1338     O
O       0.1341   0.1341   0.3022     O
O       0.1341   0.3022   0.1341     O
O      0.13529  0.30119  0.42759     O
O      0.13529  0.42759  0.30119     O
Zn     0.20609  0.20609  0.20609    Zn
Zn     0.20677  0.20677  0.37952    Zn
Zn     0.20677  0.37952  0.20677    Zn
O      0.25153  0.25153  0.25153     O
O      0.30119  0.13529  0.42759     O
O      0.30119  0.42759  0.13529     O
O       0.3022   0.1341   0.1341     O
H       0.3435   0.0426   0.5653     H
H       0.3435   0.5653   0.0426     H
H       0.3445   0.0417   0.0417     H
Zn     0.37952  0.20677  0.20677    Zn
C       0.3894   0.1117   0.3894     C
C       0.3894   0.3894   0.1117     C
C       0.3901   0.1113   0.1113     C
C       0.4051   0.0277   0.5387     C
C       0.4051   0.5387   0.0277     C
C        0.406   0.0252   0.0252     C
O      0.42759  0.13529  0.30119     O
O      0.42759  0.30119  0.13529     O
O       0.4282   0.1338   0.1338     O
H       0.4347   0.6565   0.9574     H
H       0.4347   0.9574   0.6565     H
H       0.4414   0.9512   0.9512     H
C      0.44245   0.0599  0.44245     C
C      0.44245  0.44245   0.0599     C
C        0.444   0.0539   0.0539     C
C       0.4613   0.5949   0.9723     C
C       0.4613   0.9723   0.5949     C
C       0.4647   0.9706   0.9706     C
C       0.5353   0.0294   0.0294     C
C       0.5387   0.0277   0.4051     C
C       0.5387   0.4051   0.0277     C
C        0.556   0.9461   0.9461     C
C      0.55755  0.55755   0.9401     C
C      0.55755   0.9401  0.55755     C
H       0.5586   0.0488   0.0488     H
H       0.5653   0.0426   0.3435     H
H       0.5653   0.3435   0.0426     H
O       0.5718   0.8662   0.8662     O
O      0.57241  0.69881  0.86471     O
O      0.57241  0.86471  0.69881     O
C        0.594   0.9748   0.9748     C
C       0.5949   0.4613   0.9723     C
C       0.5949   0.9723   0.4613     C
C       0.6099   0.8887   0.8887     C
C       0.6106   0.6106   0.8883     C
C       0.6106   0.8883   0.6106     C
Zn     0.62048  0.79323  0.79323    Zn
H       0.6555   0.9583   0.9583     H
H       0.6565   0.4347   0.9574     H
H       0.6565   0.9574   0.4347     H
O       0.6978   0.8659   0.8659     O
O      0.69881  0.57241  0.86471     O
O      0.69881  0.86471  0.57241     O
O      0.74847  0.74847  0.74847     O
Zn     0.79323  0.62048  0.79323    Zn
Zn     0.79323  0.79323  0.62048    Zn
Zn     0.79391  0.79391  0.79391    Zn
O      0.86471  0.57241  0.69881     O
O      0.86471  0.69881  0.57241     O
O       0.8659   0.6978   0.8659     O
O       0.8659   0.8659   0.6978     O
O       0.8662   0.5718   0.8662     O
O       0.8662   0.8662   0.5718     O
C       0.8883   0.6106   0.6106     C
C       0.8887   0.6099   0.8887     C
C       0.8887   0.8887   0.6099     C
C       0.9401  0.55755  0.55755     C
C       0.9461    0.556   0.9461     C
C       0.9461   0.9461    0.556     C
H       0.9512   0.4414   0.9512     H
H       0.9512   0.9512   0.4414     H
H       0.9574   0.4347   0.6565     H
H       0.9574   0.6565   0.4347     H
H       0.9583   0.6555   0.9583     H
H       0.9583   0.9583   0.6555     H
C       0.9706   0.4647   0.9706     C
C       0.9706   0.9706   0.4647     C
C       0.9723   0.4613   0.5949     C
C       0.9723   0.5949   0.4613     C
C       0.9748    0.594   0.9748     C
C       0.9748   0.9748    0.594     C
