data_I
_chemical_name_common  '/home/zhangsd/repos/MofS-CGCNN/ML/data/TSD/clean_cifs/HIFTOG02_clean'
_cell_length_a 18.38000
_cell_length_b 18.38000
_cell_length_c 18.38000
_cell_angle_alpha 60.25950
_cell_angle_beta  60.25950
_cell_angle_gamma 60.25950
_space_group_name_H-M_alt      'P 1'


loop_
_space_group_symop_operation_xyz
  'x, y, z' 

loop_
_atom_site_label
_atom_site_fract_x
_atom_site_fract_y
_atom_site_fract_z
_atom_site_type_symbol
C      0.00639  0.62399  0.62399     C
C      0.00643  0.13443  0.62553     C
C      0.00643  0.62553  0.13443     C
C      0.01443  0.29093  0.29093     C
C       0.0146   0.0146   0.2909     C
C       0.0146   0.2909   0.0146     C
Zn     0.02202  0.19614  0.19614    Zn
O      0.02365   0.7314   0.7314     O
O      0.02385  0.73165  0.90295     O
O      0.02385  0.90295  0.73165     O
H       0.0338   0.5524   0.5524     H
H       0.0346   0.2491   0.5552     H
H       0.0346   0.5552   0.2491     H
C      0.04374  0.04374  0.65164     C
C      0.04374  0.65164  0.04374     C
C      0.04386  0.65066  0.65066     C
H        0.055   0.3585   0.3585     H
H       0.0551   0.3567   0.8393     H
H       0.0551   0.8393   0.3567     H
C         0.06   0.5702   0.5702     C
C      0.06055  0.18765  0.57225     C
C      0.06055  0.57225  0.18765     C
O      0.09705  0.26835  0.97615     O
O      0.09705  0.97615  0.26835     O
O      0.09753  0.26927  0.26927     O
C      0.13414  0.62424  0.62424     C
C      0.13443  0.00643  0.62553     C
C      0.13443  0.62553  0.00643     C
C      0.15075  0.15075  0.54505     C
C      0.15075  0.54505  0.15075     C
C      0.15117  0.54347  0.54347     C
O      0.15274  0.15274  0.15274     O
H       0.1603    0.642    0.642     H
H       0.1607   0.6433   0.9449     H
H       0.1607   0.9449   0.6433     H
O      0.17033  0.29213  0.46323     O
O      0.17033  0.46323  0.29213     O
O      0.17049  0.46304  0.46304     O
C      0.18707  0.57097  0.57097     C
C      0.18765  0.06055  0.57225     C
C      0.18765  0.57225  0.06055     C
Zn     0.19614  0.02202  0.19614    Zn
Zn     0.19614  0.19614  0.02202    Zn
Zn     0.19661  0.19661  0.19661    Zn
C      0.20881  0.48561  0.48561     C
C      0.20901  0.20901  0.48541     C
C      0.20901  0.48541  0.20901     C
Zn     0.21671  0.39067  0.39067    Zn
H       0.2484   0.5537   0.5537     H
H       0.2491   0.0346   0.5552     H
H       0.2491   0.5552   0.0346     H
O      0.26835  0.09705  0.97615     O
O      0.26835  0.97615  0.09705     O
O       0.2686   0.2686  0.97635     O
O       0.2686  0.97635   0.2686     O
O      0.26927  0.09753  0.26927     O
O      0.26927  0.26927  0.09753     O
C       0.2909   0.0146   0.0146     C
C      0.29093  0.01443  0.29093     C
C      0.29093  0.29093  0.01443     C
O      0.29195  0.46375  0.46375     O
O      0.29213  0.17033  0.46323     O
O      0.29213  0.46323  0.17033     O
O      0.34747  0.34747  0.34747     O
C      0.34836  0.95626  0.95626     C
C      0.34934  0.34934  0.95614     C
C      0.34934  0.95614  0.34934     C
H       0.3567   0.0551   0.8393     H
H       0.3567   0.8393   0.0551     H
H        0.358    0.358   0.8397     H
H        0.358   0.8397    0.358     H
H       0.3585    0.055   0.3585     H
H       0.3585   0.3585    0.055     H
C      0.37447  0.86557  0.99357     C
C      0.37447  0.99357  0.86557     C
C      0.37576  0.37576  0.86586     C
C      0.37576  0.86586  0.37576     C
C      0.37601  0.37601  0.99361     C
C      0.37601  0.99361  0.37601     C
Zn     0.39067  0.21671  0.39067    Zn
Zn     0.39067  0.39067  0.21671    Zn
Zn     0.39121  0.39121  0.39121    Zn
C      0.42775  0.81235  0.93945     C
C      0.42775  0.93945  0.81235     C
C      0.42903  0.42903  0.81293     C
C      0.42903  0.81293  0.42903     C
C       0.4298   0.4298     0.94     C
C       0.4298     0.94   0.4298     C
H       0.4448   0.7509   0.9654     H
H       0.4448   0.9654   0.7509     H
H       0.4463   0.4463   0.7516     H
H       0.4463   0.7516   0.4463     H
H       0.4476   0.4476   0.9662     H
H       0.4476   0.9662   0.4476     H
C      0.45495  0.84925  0.84925     C
C      0.45653  0.45653  0.84883     C
C      0.45653  0.84883  0.45653     C
O      0.46304  0.17049  0.46304     O
O      0.46304  0.46304  0.17049     O
O      0.46323  0.17033  0.29213     O
O      0.46323  0.29213  0.17033     O
O      0.46375  0.29195  0.46375     O
O      0.46375  0.46375  0.29195     O
C      0.48541  0.20901  0.20901     C
C      0.48561  0.20881  0.48561     C
C      0.48561  0.48561  0.20881     C
C      0.51439  0.51439  0.79119     C
C      0.51439  0.79119  0.51439     C
C      0.51459  0.79099  0.79099     C
O      0.53625  0.53625  0.70805     O
O      0.53625  0.70805  0.53625     O
O      0.53677  0.70787  0.82967     O
O      0.53677  0.82967  0.70787     O
O      0.53696  0.53696  0.82951     O
O      0.53696  0.82951  0.53696     O
C      0.54347  0.15117  0.54347     C
C      0.54347  0.54347  0.15117     C
C      0.54505  0.15075  0.15075     C
H       0.5524   0.0338   0.5524     H
H       0.5524   0.5524   0.0338     H
H       0.5537   0.2484   0.5537     H
H       0.5537   0.5537   0.2484     H
H       0.5552   0.0346   0.2491     H
H       0.5552   0.2491   0.0346     H
C       0.5702     0.06   0.5702     C
C       0.5702   0.5702     0.06     C
C      0.57097  0.18707  0.57097     C
C      0.57097  0.57097  0.18707     C
C      0.57225  0.06055  0.18765     C
C      0.57225  0.18765  0.06055     C
Zn     0.60879  0.60879  0.60879    Zn
Zn     0.60933  0.60933  0.78329    Zn
Zn     0.60933  0.78329  0.60933    Zn
C      0.62399  0.00639  0.62399     C
C      0.62399  0.62399  0.00639     C
C      0.62424  0.13414  0.62424     C
C      0.62424  0.62424  0.13414     C
C      0.62553  0.00643  0.13443     C
C      0.62553  0.13443  0.00643     C
H       0.6415   0.6415    0.945     H
H       0.6415    0.945   0.6415     H
H        0.642   0.1603    0.642     H
H        0.642    0.642   0.1603     H
H       0.6433   0.1607   0.9449     H
H       0.6433   0.9449   0.1607     H
C      0.65066  0.04386  0.65066     C
C      0.65066  0.65066  0.04386     C
C      0.65164  0.04374  0.04374     C
O      0.65253  0.65253  0.65253     O
O      0.70787  0.53677  0.82967     O
O      0.70787  0.82967  0.53677     O
O      0.70805  0.53625  0.53625     O
C      0.70907  0.70907  0.98557     C
C      0.70907  0.98557  0.70907     C
C       0.7091   0.9854   0.9854     C
O      0.73073  0.73073  0.90247     O
O      0.73073  0.90247  0.73073     O
O       0.7314  0.02365   0.7314     O
O       0.7314   0.7314  0.02365     O
O      0.73165  0.02385  0.90295     O
O      0.73165  0.90295  0.02385     O
H       0.7509   0.4448   0.9654     H
H       0.7509   0.9654   0.4448     H
H       0.7516   0.4463   0.4463     H
Zn     0.78329  0.60933  0.60933    Zn
C      0.79099  0.51459  0.79099     C
C      0.79099  0.79099  0.51459     C
C      0.79119  0.51439  0.51439     C
Zn     0.80339  0.80339  0.80339    Zn
Zn     0.80386  0.80386  0.97798    Zn
Zn     0.80386  0.97798  0.80386    Zn
C      0.81235  0.42775  0.93945     C
C      0.81235  0.93945  0.42775     C
C      0.81293  0.42903  0.42903     C
O      0.82951  0.53696  0.53696     O
O      0.82967  0.53677  0.70787     O
O      0.82967  0.70787  0.53677     O
H       0.8393   0.0551   0.3567     H
H       0.8393   0.3567   0.0551     H
H       0.8397    0.358    0.358     H
O      0.84726  0.84726  0.84726     O
C      0.84883  0.45653  0.45653     C
C      0.84925  0.45495  0.84925     C
C      0.84925  0.84925  0.45495     C
C      0.86557  0.37447  0.99357     C
C      0.86557  0.99357  0.37447     C
C      0.86586  0.37576  0.37576     C
O      0.90247  0.73073  0.73073     O
O      0.90295  0.02385  0.73165     O
O      0.90295  0.73165  0.02385     O
C      0.93945  0.42775  0.81235     C
C      0.93945  0.81235  0.42775     C
C         0.94   0.4298   0.4298     C
H       0.9449   0.1607   0.6433     H
H       0.9449   0.6433   0.1607     H
H        0.945   0.6415   0.6415     H
C      0.95614  0.34934  0.34934     C
C      0.95626  0.34836  0.95626     C
C      0.95626  0.95626  0.34836     C
H       0.9654   0.4448   0.7509     H
H       0.9654   0.7509   0.4448     H
H       0.9662   0.4476   0.4476     H
O      0.97615  0.09705  0.26835     O
O      0.97615  0.26835  0.09705     O
O      0.97635   0.2686   0.2686     O
Zn     0.97798  0.80386  0.80386    Zn
C       0.9854   0.7091   0.9854     C
C       0.9854   0.9854   0.7091     C
C      0.98557  0.70907  0.70907     C
C      0.99357  0.37447  0.86557     C
C      0.99357  0.86557  0.37447     C
C      0.99361  0.37601  0.37601     C
