data_I
_chemical_name_common  '/home/zhangsd/repos/MofS-CGCNN/ML/data/TSD/clean_cifs/HIFTOG_clean'
_cell_length_a 18.36660
_cell_length_b 18.36660
_cell_length_c 18.36660
_cell_angle_alpha 60.05540
_cell_angle_beta  60.05540
_cell_angle_gamma 60.05540
_space_group_name_H-M_alt      'P 1'


loop_
_space_group_symop_operation_xyz
  'x, y, z' 

loop_
_atom_site_label
_atom_site_fract_x
_atom_site_fract_y
_atom_site_fract_z
_atom_site_type_symbol
C      0.00429  0.13409  0.62459     C
C      0.00429  0.62459  0.13409     C
C      0.00537  0.62297  0.62297     C
C      0.01585  0.01585   0.2917     C
C      0.01585   0.2917  0.01585     C
C      0.01633  0.29181  0.29181     C
O      0.02275  0.73025  0.90185     O
O      0.02275  0.90185  0.73025     O
O      0.02282  0.73003  0.73003     O
Zn     0.02347  0.19741   0.1974    Zn
H       0.0318   0.2491   0.5538     H
H       0.0318   0.5538   0.2491     H
H       0.0319    0.552    0.552     H
C      0.04201  0.04201  0.65081     C
C      0.04201  0.65081  0.04201     C
C      0.04259  0.64987  0.64987     C
H       0.0562   0.3594   0.3594     H
H       0.0573   0.3569   0.8396     H
H       0.0573   0.8396   0.3569     H
C      0.05805  0.18735  0.57085     C
C      0.05805  0.57085  0.18735     C
C      0.05864  0.56944  0.56944     C
O      0.09815  0.26975  0.97725     O
O      0.09815  0.27019  0.27019     O
O      0.09815  0.97725  0.26975     O
C       0.1338    0.623    0.623     C
C      0.13409  0.00429  0.62459     C
C      0.13409  0.62459  0.00429     C
C      0.14931  0.54218  0.54218     C
C      0.14992  0.14992  0.54242     C
C      0.14992  0.54242  0.14992     C
O      0.15433  0.15433  0.15433     O
H         0.16   0.6408   0.6408     H
H       0.1604   0.6431   0.9427     H
H       0.1604   0.9427   0.6431     H
O      0.16903  0.46224  0.46224     O
O      0.16929  0.29099  0.46169     O
O      0.16929  0.46169  0.29099     O
C      0.18735  0.05805  0.57085     C
C      0.18735  0.57085  0.05805     C
C      0.18742  0.56952  0.56952     C
Zn      0.1974  0.02347   0.1974    Zn
Zn      0.1974  0.19741  0.02347    Zn
Zn     0.19754  0.19754  0.19754    Zn
C      0.20788  0.48444  0.48444     C
C      0.20818  0.20818  0.48417     C
C      0.20818  0.48417  0.20818     C
Zn     0.21576  0.38953  0.38953    Zn
H       0.2491   0.0318   0.5538     H
H       0.2491   0.5538   0.0318     H
H       0.2492   0.5518   0.5518     H
O      0.26975  0.09815  0.97725     O
O      0.26975  0.97725  0.09815     O
O      0.26997  0.26997  0.97718     O
O      0.26997  0.97718  0.26997     O
O      0.27019  0.09815  0.27019     O
O      0.27019  0.27019  0.09815     O
O      0.29027  0.46249  0.46249     O
O      0.29099  0.16929  0.46169     O
O      0.29099  0.46169  0.16929     O
C       0.2917  0.01585  0.01585     C
C      0.29181  0.01633  0.29181     C
C      0.29181  0.29181  0.01633     C
O      0.34632  0.34632  0.34632     O
C      0.34919  0.95799  0.95799     C
C      0.35013  0.35013  0.95741     C
C      0.35013  0.95741  0.35013     C
H       0.3569   0.0573   0.8396     H
H       0.3569   0.8396   0.0573     H
H       0.3592   0.3592     0.84     H
H       0.3592     0.84   0.3592     H
H       0.3594   0.0562   0.3594     H
H       0.3594   0.3594   0.0562     H
C      0.37541  0.86591  0.99571     C
C      0.37541  0.99571  0.86591     C
C        0.377    0.377   0.8662     C
C        0.377   0.8662    0.377     C
C      0.37703  0.37703  0.99463     C
C      0.37703  0.99463  0.37703     C
Zn     0.38953  0.21576  0.38953    Zn
Zn     0.38953  0.38953  0.21576    Zn
Zn     0.38989  0.38989  0.38989    Zn
C      0.42915  0.81265  0.94195     C
C      0.42915  0.94195  0.81265     C
C      0.43048  0.43048  0.81258     C
C      0.43048  0.81258  0.43048     C
C      0.43056  0.43056  0.94136     C
C      0.43056  0.94136  0.43056     C
H       0.4462   0.7509   0.9682     H
H       0.4462   0.9682   0.7509     H
H        0.448    0.448   0.9681     H
H        0.448   0.9681    0.448     H
H       0.4482   0.4482   0.7508     H
H       0.4482   0.7508   0.4482     H
C      0.45758  0.85008  0.85008     C
C      0.45782  0.45782  0.85069     C
C      0.45782  0.85069  0.45782     C
O      0.46169  0.16929  0.29099     O
O      0.46169  0.29099  0.16929     O
O      0.46224  0.16903  0.46224     O
O      0.46224  0.46224  0.16903     O
O      0.46249  0.29027  0.46249     O
O      0.46249  0.46249  0.29027     O
C      0.48417  0.20818  0.20818     C
C      0.48444  0.20788  0.48444     C
C      0.48444  0.48444  0.20788     C
C      0.51556  0.51556  0.79212     C
C      0.51556  0.79212  0.51556     C
C      0.51583  0.79182  0.79182     C
O      0.53751  0.53751  0.70973     O
O      0.53751  0.70973  0.53751     O
O      0.53776  0.53776  0.83097     O
O      0.53776  0.83097  0.53776     O
O      0.53831  0.70901  0.83071     O
O      0.53831  0.83071  0.70901     O
C      0.54218  0.14931  0.54218     C
C      0.54218  0.54218  0.14931     C
C      0.54242  0.14992  0.14992     C
H       0.5518   0.2492   0.5518     H
H       0.5518   0.5518   0.2492     H
H        0.552   0.0319    0.552     H
H        0.552    0.552   0.0319     H
H       0.5538   0.0318   0.2491     H
H       0.5538   0.2491   0.0318     H
C      0.56944  0.05864  0.56944     C
C      0.56944  0.56944  0.05864     C
C      0.56952  0.18742  0.56952     C
C      0.56952  0.56952  0.18742     C
C      0.57085  0.05805  0.18735     C
C      0.57085  0.18735  0.05805     C
Zn     0.61011  0.61011  0.61011    Zn
Zn     0.61047  0.61047  0.78424    Zn
Zn     0.61047  0.78424  0.61047    Zn
C      0.62297  0.00537  0.62297     C
C      0.62297  0.62297  0.00537     C
C        0.623   0.1338    0.623     C
C        0.623    0.623   0.1338     C
C      0.62459  0.00429  0.13409     C
C      0.62459  0.13409  0.00429     C
H       0.6406   0.6406   0.9438     H
H       0.6406   0.9438   0.6406     H
H       0.6408     0.16   0.6408     H
H       0.6408   0.6408     0.16     H
H       0.6431   0.1604   0.9427     H
H       0.6431   0.9427   0.1604     H
C      0.64987  0.04259  0.64987     C
C      0.64987  0.64987  0.04259     C
C      0.65081  0.04201  0.04201     C
O      0.65368  0.65368  0.65368     O
C      0.70819  0.70819  0.98367     C
C      0.70819  0.98367  0.70819     C
C       0.7083  0.98415  0.98415     C
O      0.70901  0.53831  0.83071     O
O      0.70901  0.83071  0.53831     O
O      0.70973  0.53751  0.53751     O
O      0.72981  0.72981  0.90185     O
O      0.72981  0.90185  0.72981     O
O      0.73003  0.02282  0.73003     O
O      0.73003  0.73003  0.02282     O
O      0.73025  0.02275  0.90185     O
O      0.73025  0.90185  0.02275     O
H       0.7508   0.4482   0.4482     H
H       0.7509   0.4462   0.9682     H
H       0.7509   0.9682   0.4462     H
Zn     0.78424  0.61047  0.61047    Zn
C      0.79182  0.51583  0.79182     C
C      0.79182  0.79182  0.51583     C
C      0.79212  0.51556  0.51556     C
Zn     0.80246  0.80246  0.80246    Zn
Zn     0.80259   0.8026  0.97653    Zn
Zn     0.80259  0.97653  0.80259    Zn
C      0.81258  0.43048  0.43048     C
C      0.81265  0.42915  0.94195     C
C      0.81265  0.94195  0.42915     C
O      0.83071  0.53831  0.70901     O
O      0.83071  0.70901  0.53831     O
O      0.83097  0.53776  0.53776     O
H       0.8396   0.0573   0.3569     H
H       0.8396   0.3569   0.0573     H
H         0.84   0.3592   0.3592     H
O      0.84567  0.84567  0.84567     O
C      0.85008  0.45758  0.85008     C
C      0.85008  0.85008  0.45758     C
C      0.85069  0.45782  0.45782     C
C      0.86591  0.37541  0.99571     C
C      0.86591  0.99571  0.37541     C
C       0.8662    0.377    0.377     C
O      0.90185  0.02275  0.73025     O
O      0.90185  0.72981  0.72981     O
O      0.90185  0.73025  0.02275     O
C      0.94136  0.43056  0.43056     C
C      0.94195  0.42915  0.81265     C
C      0.94195  0.81265  0.42915     C
H       0.9427   0.1604   0.6431     H
H       0.9427   0.6431   0.1604     H
H       0.9438   0.6406   0.6406     H
C      0.95741  0.35013  0.35013     C
C      0.95799  0.34919  0.95799     C
C      0.95799  0.95799  0.34919     C
H       0.9681    0.448    0.448     H
H       0.9682   0.4462   0.7509     H
H       0.9682   0.7509   0.4462     H
Zn     0.97653  0.80259  0.80259    Zn
O      0.97718  0.26997  0.26997     O
O      0.97725  0.09815  0.26975     O
O      0.97725  0.26975  0.09815     O
C      0.98367  0.70819  0.70819     C
C      0.98415   0.7083  0.98415     C
C      0.98415  0.98415   0.7083     C
C      0.99463  0.37703  0.37703     C
C      0.99571  0.37541  0.86591     C
C      0.99571  0.86591  0.37541     C
