data_I
_chemical_name_common  '/home/zhangsd/repos/MofS-CGCNN/ML/data/TSD/clean_cifs/HIFVOI_clean'
_cell_length_a 17.05800
_cell_length_b 19.07300
_cell_length_c 19.07300
_cell_angle_alpha 90.00000
_cell_angle_beta  90.00000
_cell_angle_gamma 90.00000
_space_group_name_H-M_alt      'P 1'


loop_
_space_group_symop_operation_xyz
  'x, y, z' 

loop_
_atom_site_label
_atom_site_fract_x
_atom_site_fract_y
_atom_site_fract_z
_atom_site_type_symbol
H          0.0   0.0681   0.6969     H
C          0.0   0.1054   0.6655     C
H          0.0   0.3031   0.9319     H
C          0.0   0.3345   0.8946     C
C          0.0   0.6655   0.1054     C
H          0.0   0.6969   0.0681     H
C          0.0   0.8946   0.3345     C
H          0.0   0.9319   0.3031     H
C       0.0398   0.1942   0.6114     C
C       0.0398   0.3886   0.8058     C
C       0.0398   0.6114   0.1942     C
C       0.0398   0.8058   0.3886     C
N       0.0657   0.1342   0.6413     N
N       0.0657   0.3587   0.8658     N
N       0.0657   0.6413   0.1342     N
N       0.0657   0.8658   0.3587     N
H       0.0714   0.2297   0.5937     H
H       0.0714   0.4063   0.7703     H
H       0.0714   0.5937   0.2297     H
H       0.0714   0.7703   0.4063     H
H       0.1268   0.2443   0.7557     H
H       0.1268   0.7557   0.2443     H
H       0.1431   0.0227   0.2378     H
H       0.1431   0.2378   0.0227     H
H       0.1431   0.7622   0.9773     H
H       0.1431   0.9773   0.7622     H
C       0.1685   0.2221   0.7779     C
C       0.1685   0.7779   0.2221     C
Zn     0.17642  0.11388  0.66509    Zn
Zn     0.17642  0.33491  0.88612    Zn
Zn     0.17642  0.66509  0.11388    Zn
Zn     0.17642  0.88612  0.33491    Zn
C       0.1777   0.0327   0.2742     C
C       0.1777   0.2742   0.0327     C
C       0.1777   0.7258   0.9673     C
C       0.1777   0.9673   0.7258     C
H       0.1914   0.2849   0.3757     H
H       0.1914   0.3757   0.2849     H
H       0.1914   0.6243   0.7151     H
H       0.1914   0.7151   0.6243     H
N       0.1996    0.013    0.675     N
N       0.1996    0.325    0.987     N
N       0.1996    0.675    0.013     N
N       0.1996    0.987    0.325     N
N       0.2013   0.1634   0.7539     N
N       0.2013   0.2461   0.8366     N
N       0.2013   0.7539   0.1634     N
N       0.2013   0.8366   0.2461     N
H       0.2115   0.1341   0.2552     H
H       0.2115   0.2552   0.1341     H
H       0.2115   0.7448   0.8659     H
H       0.2115   0.8659   0.7448     H
C        0.214   0.0953   0.2846     C
C        0.214   0.2846   0.0953     C
C        0.214   0.7154   0.9047     C
C        0.214   0.9047   0.7154     C
H       0.2181   0.1028   0.5029     H
H       0.2181   0.4971   0.8972     H
H       0.2181   0.5029   0.1028     H
H       0.2181   0.8972   0.4971     H
C       0.2307   0.2922   0.3427     C
C       0.2307   0.3427   0.2922     C
C       0.2307   0.6573   0.7078     C
C       0.2307   0.7078   0.6573     C
N       0.2452    0.154   0.5908     N
N       0.2452   0.4092    0.846     N
N       0.2452   0.5908    0.154     N
N       0.2452    0.846   0.4092     N
C       0.2489   0.1376   0.5231     C
C       0.2489   0.4769   0.8624     C
C       0.2489   0.5231   0.1376     C
C       0.2489   0.8624   0.4769     C
C       0.2511   0.0231   0.3624     C
C       0.2511   0.3624   0.0231     C
C       0.2511   0.6376   0.9769     C
C       0.2511   0.9769   0.6376     C
N       0.2548   0.0908    0.346     N
N       0.2548    0.346   0.0908     N
N       0.2548    0.654   0.9092     N
N       0.2548   0.9092    0.654     N
C       0.2693   0.1573   0.7922     C
C       0.2693   0.2078   0.8427     C
C       0.2693   0.7922   0.1573     C
C       0.2693   0.8427   0.2078     C
H       0.2819   0.0029   0.3972     H
H       0.2819   0.3972   0.0029     H
H       0.2819   0.6028   0.9971     H
H       0.2819   0.9971   0.6028     H
C        0.286   0.2154   0.5953     C
C        0.286   0.4047   0.7846     C
C        0.286   0.5953   0.2154     C
C        0.286   0.7846   0.4047     C
H       0.2885   0.2448   0.6341     H
H       0.2885   0.3659   0.7552     H
H       0.2885   0.6341   0.2448     H
H       0.2885   0.7552   0.3659     H
N       0.2987   0.2539   0.3366     N
N       0.2987   0.3366   0.2539     N
N       0.2987   0.6634   0.7461     N
N       0.2987   0.7461   0.6634     N
N       0.3004    0.175    0.487     N
N       0.3004    0.487    0.175     N
N       0.3004    0.513    0.825     N
N       0.3004    0.825    0.513     N
H       0.3086   0.1243   0.7849     H
H       0.3086   0.2151   0.8757     H
H       0.3086   0.7849   0.1243     H
H       0.3086   0.8757   0.2151     H
C       0.3223   0.2258   0.5327     C
C       0.3223   0.4673   0.7742     C
C       0.3223   0.5327   0.2258     C
C       0.3223   0.7742   0.4673     C
Zn     0.32358  0.16509  0.38612    Zn
Zn     0.32358  0.38612  0.16509    Zn
Zn     0.32358  0.61388  0.83491    Zn
Zn     0.32358  0.83491  0.61388    Zn
C       0.3315   0.2779   0.2779     C
C       0.3315   0.7221   0.7221     C
H       0.3569   0.2622   0.5227     H
H       0.3569   0.4773   0.7378     H
H       0.3569   0.5227   0.2622     H
H       0.3569   0.7378   0.4773     H
H       0.3732   0.2557   0.2557     H
H       0.3732   0.7443   0.7443     H
H       0.4286   0.0937   0.2703     H
H       0.4286   0.2703   0.0937     H
H       0.4286   0.7297   0.9063     H
H       0.4286   0.9063   0.7297     H
N       0.4343   0.1413   0.3658     N
N       0.4343   0.3658   0.1413     N
N       0.4343   0.6342   0.8587     N
N       0.4343   0.8587   0.6342     N
C       0.4602   0.1114   0.3058     C
C       0.4602   0.3058   0.1114     C
C       0.4602   0.6942   0.8886     C
C       0.4602   0.8886   0.6942     C
C          0.5   0.1655   0.3946     C
H          0.5   0.1969   0.4319     H
C          0.5   0.3946   0.1655     C
H          0.5   0.4319   0.1969     H
H          0.5   0.5681   0.8031     H
C          0.5   0.6054   0.8345     C
H          0.5   0.8031   0.5681     H
C          0.5   0.8345   0.6054     C
C       0.5398   0.1114   0.3058     C
C       0.5398   0.3058   0.1114     C
C       0.5398   0.6942   0.8886     C
C       0.5398   0.8886   0.6942     C
N       0.5657   0.1413   0.3658     N
N       0.5657   0.3658   0.1413     N
N       0.5657   0.6342   0.8587     N
N       0.5657   0.8587   0.6342     N
H       0.5714   0.0937   0.2703     H
H       0.5714   0.2703   0.0937     H
H       0.5714   0.7297   0.9063     H
H       0.5714   0.9063   0.7297     H
H       0.6268   0.2557   0.2557     H
H       0.6268   0.7443   0.7443     H
H       0.6431   0.2622   0.5227     H
H       0.6431   0.4773   0.7378     H
H       0.6431   0.5227   0.2622     H
H       0.6431   0.7378   0.4773     H
C       0.6685   0.2779   0.2779     C
C       0.6685   0.7221   0.7221     C
Zn     0.67642  0.16509  0.38612    Zn
Zn     0.67642  0.38612  0.16509    Zn
Zn     0.67642  0.61388  0.83491    Zn
Zn     0.67642  0.83491  0.61388    Zn
C       0.6777   0.2258   0.5327     C
C       0.6777   0.4673   0.7742     C
C       0.6777   0.5327   0.2258     C
C       0.6777   0.7742   0.4673     C
H       0.6914   0.1243   0.7849     H
H       0.6914   0.2151   0.8757     H
H       0.6914   0.7849   0.1243     H
H       0.6914   0.8757   0.2151     H
N       0.6996    0.175    0.487     N
N       0.6996    0.487    0.175     N
N       0.6996    0.513    0.825     N
N       0.6996    0.825    0.513     N
N       0.7013   0.2539   0.3366     N
N       0.7013   0.3366   0.2539     N
N       0.7013   0.6634   0.7461     N
N       0.7013   0.7461   0.6634     N
H       0.7115   0.2448   0.6341     H
H       0.7115   0.3659   0.7552     H
H       0.7115   0.6341   0.2448     H
H       0.7115   0.7552   0.3659     H
C        0.714   0.2154   0.5953     C
C        0.714   0.4047   0.7846     C
C        0.714   0.5953   0.2154     C
C        0.714   0.7846   0.4047     C
H       0.7181   0.0029   0.3972     H
H       0.7181   0.3972   0.0029     H
H       0.7181   0.6028   0.9971     H
H       0.7181   0.9971   0.6028     H
C       0.7307   0.1573   0.7922     C
C       0.7307   0.2078   0.8427     C
C       0.7307   0.7922   0.1573     C
C       0.7307   0.8427   0.2078     C
N       0.7452   0.0908    0.346     N
N       0.7452    0.346   0.0908     N
N       0.7452    0.654   0.9092     N
N       0.7452   0.9092    0.654     N
C       0.7489   0.0231   0.3624     C
C       0.7489   0.3624   0.0231     C
C       0.7489   0.6376   0.9769     C
C       0.7489   0.9769   0.6376     C
C       0.7511   0.1376   0.5231     C
C       0.7511   0.4769   0.8624     C
C       0.7511   0.5231   0.1376     C
C       0.7511   0.8624   0.4769     C
N       0.7548    0.154   0.5908     N
N       0.7548   0.4092    0.846     N
N       0.7548   0.5908    0.154     N
N       0.7548    0.846   0.4092     N
C       0.7693   0.2922   0.3427     C
C       0.7693   0.3427   0.2922     C
C       0.7693   0.6573   0.7078     C
C       0.7693   0.7078   0.6573     C
H       0.7819   0.1028   0.5029     H
H       0.7819   0.4971   0.8972     H
H       0.7819   0.5029   0.1028     H
H       0.7819   0.8972   0.4971     H
C        0.786   0.0953   0.2846     C
C        0.786   0.2846   0.0953     C
C        0.786   0.7154   0.9047     C
C        0.786   0.9047   0.7154     C
H       0.7885   0.1341   0.2552     H
H       0.7885   0.2552   0.1341     H
H       0.7885   0.7448   0.8659     H
H       0.7885   0.8659   0.7448     H
N       0.7987   0.1634   0.7539     N
N       0.7987   0.2461   0.8366     N
N       0.7987   0.7539   0.1634     N
N       0.7987   0.8366   0.2461     N
N       0.8004    0.013    0.675     N
N       0.8004    0.325    0.987     N
N       0.8004    0.675    0.013     N
N       0.8004    0.987    0.325     N
H       0.8086   0.2849   0.3757     H
H       0.8086   0.3757   0.2849     H
H       0.8086   0.6243   0.7151     H
H       0.8086   0.7151   0.6243     H
C       0.8223   0.0327   0.2742     C
C       0.8223   0.2742   0.0327     C
C       0.8223   0.7258   0.9673     C
C       0.8223   0.9673   0.7258     C
Zn     0.82358  0.11388  0.66509    Zn
Zn     0.82358  0.33491  0.88612    Zn
Zn     0.82358  0.66509  0.11388    Zn
Zn     0.82358  0.88612  0.33491    Zn
C       0.8315   0.2221   0.7779     C
C       0.8315   0.7779   0.2221     C
H       0.8569   0.0227   0.2378     H
H       0.8569   0.2378   0.0227     H
H       0.8569   0.7622   0.9773     H
H       0.8569   0.9773   0.7622     H
H       0.8732   0.2443   0.7557     H
H       0.8732   0.7557   0.2443     H
H       0.9286   0.2297   0.5937     H
H       0.9286   0.4063   0.7703     H
H       0.9286   0.5937   0.2297     H
H       0.9286   0.7703   0.4063     H
N       0.9343   0.1342   0.6413     N
N       0.9343   0.3587   0.8658     N
N       0.9343   0.6413   0.1342     N
N       0.9343   0.8658   0.3587     N
C       0.9602   0.1942   0.6114     C
C       0.9602   0.3886   0.8058     C
C       0.9602   0.6114   0.1942     C
C       0.9602   0.8058   0.3886     C
