data_I
_chemical_name_common  '/home/zhangsd/repos/MofS-CGCNN/ML/data/TSD/clean_cifs/HIHFOV_clean'
_cell_length_a  9.65350
_cell_length_b 12.91320
_cell_length_c 17.20720
_cell_angle_alpha 105.77400
_cell_angle_beta  90.00000
_cell_angle_gamma 111.94900
_space_group_name_H-M_alt      'P 1'


loop_
_space_group_symop_operation_xyz
  'x, y, z' 

loop_
_atom_site_label
_atom_site_fract_x
_atom_site_fract_y
_atom_site_fract_z
_atom_site_type_symbol
C      0.00826  0.49112  0.05124     C
H       0.0218   0.9084    0.297     H
H       0.0252   0.0572   0.4265     H
C      0.03144  0.90308  0.34943     C
H        0.032   0.0572   0.9265     H
C      0.03225   0.1847   0.7947     C
N       0.0334  0.18232  0.57809     N
C      0.03352  0.98684  0.42379     C
N      0.03646  0.16776  0.23983     N
C      0.04012   0.6083   0.0601     C
C      0.04177  0.33296  0.09785     C
C      0.04685   0.8139  0.37136     C
H       0.0486   0.7456   0.3362     H
N      0.04874  0.95306  0.48883     N
C      0.05562  0.35868   0.5611     C
H       0.0571   0.3178   0.8991     H
C      0.05966  0.84392  0.45815     C
C      0.06037  0.85306  0.11807     C
C      0.07694   0.4593  0.10679     C
Ni     0.08261  0.05512  0.61039    Ni
N        0.085  0.33222  0.33936     N
C      0.08532   0.4443  0.38163     C
C      0.08938  0.66394  0.46199     C
C      0.09048   0.7818   0.5063     C
H       0.0965    0.436   0.5606     H
C      0.10057  0.28614  0.85556     C
N      0.11773  0.96756  0.13234     N
C      0.12376  0.81904  0.59123     C
N      0.12767  0.92518  0.64167     N
N       0.1313  0.16776  0.73983     N
C       0.1349  0.29484   0.5835     C
C      0.13729  0.69328  0.12557     C
N      0.14892  0.18232  0.07809     N
C      0.15245   0.1847   0.2947     C
C      0.15408  0.75536  0.63974     C
H       0.1571   0.6816   0.6213     H
C      0.15846  0.92532  0.71699     C
C      0.15994  0.29484   0.0835     C
N      0.16524  0.81344  0.13531     N
H       0.1661   0.9858   0.7631     H
C      0.17758  0.54622  0.17155     C
C      0.17823  0.82326  0.71885     C
C      0.18557  0.28614  0.35556     C
H       0.2014    0.134   0.2908     H
H       0.2027   0.8056   0.7646     H
C      0.20693   0.6631  0.18172     C
H       0.2149   0.5248   0.9086     H
C      0.22037  0.53614  0.41424     C
C      0.22252  0.64524  0.45537     C
H       0.2254   0.5256   0.2082     H
N      0.24722  0.33222  0.83936     N
C      0.25952  0.25786  0.76966     C
H       0.2607   0.3178   0.3991     H
C      0.26668  0.00224  0.16093     C
H       0.2724   0.7206   0.2256     H
C      0.27646  0.17698  0.05226     C
C      0.29119  0.33296  0.59785     C
C       0.2978  0.90842  0.16332     C
H       0.2984   0.1106   0.0429     H
H       0.3002   0.5256   0.7082     H
C      0.30306  0.35868   0.0611     C
N      0.30646  0.14748  0.60101     N
H       0.3099   0.5248   0.4086     H
H       0.3135   0.7064   0.4787     H
C      0.31577  0.53614  0.91424     C
H       0.3362    0.079   0.1764     H
H       0.3395    0.436   0.0606     H
H        0.348   0.2688   0.7455     H
C      0.35898   0.4443  0.88163     C
C      0.36864  0.54622  0.67155     C
C      0.37209  0.26464   0.6048     C
C      0.37558  0.28372  0.04054     C
C      0.38236   0.4593  0.60679     C
H       0.3895   0.9088   0.1803     H
H       0.3929   0.7064   0.9787     H
H       0.4059   0.0418   0.6164     H
C      0.41876  0.11626   0.6148     C
C      0.42272  0.64524  0.95537     C
H       0.4482   0.7206   0.7256     H
C      0.45617   0.6631  0.68172     C
H       0.4701   0.2994   0.0226     H
C      0.48286  0.49112  0.55124     C
H        0.493   0.4338    0.508     H
C      0.50978  0.46054  0.88871     C
H       0.5193   0.9088   0.6803     H
H       0.5245   0.6816   0.1213     H
C      0.53146  0.30386  0.62091     C
H       0.5385   0.3982   0.8673     H
H       0.5547   0.2082   0.1367     H
C      0.55599  0.69328  0.62557     C
C      0.55987     0.21  0.62677     C
C      0.56818   0.6083   0.5601     C
C      0.57456  0.66394  0.96199     C
C      0.60128  0.75536  0.13974     C
H       0.6021   0.3786   0.6264     H
H       0.6029   0.8056   0.2646     H
C      0.61062  0.90842  0.66332     C
C      0.61673  0.57046  0.92807     C
H       0.6332   0.6294   0.5221     H
H       0.6359   0.0418   0.1164     H
C      0.64503  0.82326  0.21885     C
N       0.6482  0.81344  0.63531     N
C      0.65013     0.21  0.12677     C
H       0.6535   0.2082   0.6367     H
C      0.69132   0.7818   0.0063     C
C      0.69528  0.81904  0.09123     C
H        0.697   0.7456   0.8362     H
C       0.6975  0.11626   0.1148     C
H       0.7179    0.582   0.9319     H
C      0.73556  0.00224  0.66093     C
H       0.7428    0.079   0.6764     H
C      0.76686  0.92532  0.21699     C
C      0.76705   0.8139  0.87136     C
C       0.7724  0.30386  0.12091     C
H       0.7765   0.3786   0.1264     H
C      0.78426  0.84392  0.95815     C
C      0.79269  0.85306  0.61807     C
N      0.79751  0.92518  0.14167     N
H       0.8122   0.1106   0.5429     H
H       0.8197   0.9858   0.2631     H
H       0.8293   0.2994   0.5226     H
N      0.84102  0.14748  0.10101     N
H       0.8449   0.8054   0.5986     H
N      0.84983  0.96756  0.63234     N
H       0.8597   0.3982   0.3673     H
H       0.8641    0.582   0.4319     H
C      0.87164  0.90308  0.84943     C
H       0.8866   0.9084    0.797     H
C      0.89255  0.26464   0.1048     C
C      0.90052  0.17698  0.55226     C
N      0.90432  0.95306  0.98883     N
C      0.90814  0.28372  0.54054     C
H       0.9208   0.2688   0.2455     H
H       0.9326    0.134   0.7908     H
H       0.9408   0.4338    0.008     H
C      0.95076  0.46054  0.38871     C
C      0.95332  0.98684  0.92379     C
C      0.95373  0.57046  0.42807     C
H       0.9605   0.8054   0.0986     H
Ni     0.97251  0.05512  0.11039    Ni
H       0.9962   0.6294   0.0221     H
C      0.99834  0.25786  0.26966     C
