data_I
_chemical_name_common  '/home/zhangsd/repos/MofS-CGCNN/ML/data/TSD/clean_cifs/HIHFUB_clean'
_cell_length_a 24.30210
_cell_length_b 16.01420
_cell_length_c 22.00180
_cell_angle_alpha 90.00000
_cell_angle_beta  100.13800
_cell_angle_gamma 90.00000
_space_group_name_H-M_alt      'P 1'


loop_
_space_group_symop_operation_xyz
  'x, y, z' 

loop_
_atom_site_label
_atom_site_fract_x
_atom_site_fract_y
_atom_site_fract_z
_atom_site_type_symbol
C      0.01087  0.29927  0.97764     C
C      0.01087  0.70073  0.47764     C
C      0.01247  0.15711  0.94875     C
C      0.01247  0.84289  0.44875     C
H       0.0292    0.348   0.9927     H
H       0.0292    0.652   0.4927     H
H       0.0319    0.108   0.9445     H
H       0.0319    0.892   0.4445     H
C      0.04216  0.22777  0.97223     C
C      0.04216  0.77223  0.47223     C
C        0.045   0.1577  0.56839     C
C        0.045   0.8423  0.06839     C
C      0.04652   0.2997  0.53882     C
C      0.04652   0.7003  0.03882     C
H       0.0636   0.1094    0.584     H
H       0.0636   0.8906    0.084     H
H       0.0662   0.3483   0.5338     H
H       0.0662   0.6517   0.0338     H
H       0.0692   0.2773   0.1024     H
H       0.0692   0.7227   0.6024     H
C      0.07512  0.22968  0.56243     C
C      0.07512  0.77032  0.06243     C
H       0.1005   0.2936   0.2072     H
H       0.1005   0.7064   0.7072     H
C      0.10673   0.2679  0.11854     C
C      0.10673   0.7321  0.61854     C
H       0.1102   0.2765    0.865     H
H       0.1102   0.7235    0.365     H
H       0.1188   0.0638   0.0431     H
H       0.1188   0.9362   0.5431     H
Si     0.11992  0.22907  0.99401    Si
Si     0.11992  0.77093  0.49401    Si
C      0.12539   0.2772   0.1818     C
C      0.12539   0.7228   0.6818     C
C      0.13281    0.318  0.88587     C
C      0.13281    0.682  0.38587     C
C      0.13695  0.22869  0.57935     C
C      0.13695  0.77131  0.07935     C
C      0.13914  0.05673  0.01134     C
C      0.13914  0.94327  0.51134     C
C      0.14288  0.24474  0.07893     C
C      0.14288  0.75526  0.57893     C
H       0.1443   0.3798   0.8093     H
H       0.1443   0.6202   0.3093     H
C      0.14598  0.31505  0.95021     C
C      0.14598  0.68495  0.45021     C
C      0.14813  0.12506   0.9756     C
C      0.14813  0.87494   0.4756     C
C       0.1525   0.3812  0.85216     C
C       0.1525   0.6188  0.35216     C
H       0.1528   0.0651   0.5261     H
H       0.1528   0.9349   0.0261     H
C      0.15939  0.02076  0.50109     C
C      0.15939  0.97924  0.00109     C
O      0.16113  0.16568  0.60627     O
O      0.16113  0.83432  0.10627     O
O      0.16542  0.28984  0.56499     O
O      0.16542  0.71016  0.06499     O
O      0.16551  0.28337  0.31084     O
O      0.16551  0.71663  0.81084     O
C      0.17808   0.3799  0.97829     C
C      0.17808   0.6201  0.47829     C
C      0.17897  0.11061  0.92879     C
C      0.17897  0.88939  0.42879     C
C      0.18048  0.26219  0.20683     C
C      0.18048  0.73781  0.70683     C
C      0.18395   0.4456  0.88126     C
C      0.18395   0.5544  0.38126     C
H       0.1865    0.155   0.9043     H
H       0.1865    0.845   0.4043     H
H       0.1875   0.3809   0.0211     H
H       0.1875   0.6191   0.5211     H
C      0.18942  0.03429  0.45408     C
C      0.18942  0.96571  0.95408     C
C      0.19689   0.4442  0.94408     C
C      0.19689   0.5558  0.44408     C
C       0.1981   0.2306  0.10568     C
C       0.1981   0.7694  0.60568     C
C      0.19848  0.03253  0.91804     C
C      0.19848  0.96747  0.41804     C
O      0.19983   0.4933  0.28967     O
O      0.19983   0.5067  0.78967     O
C       0.1999  0.27034  0.27554     C
C       0.1999  0.72966  0.77554     C
C      0.20677   0.4871   0.3468     C
C      0.20677   0.5129   0.8468     C
C      0.21084  0.11908  0.44206     C
C      0.21084  0.88092  0.94206     C
O      0.21587  0.13813  0.38832     O
O      0.21587  0.86187  0.88832     O
C      0.21721    0.239  0.16861     C
C      0.21721    0.761  0.66861     C
H       0.2181   0.0248   0.8858     H
H       0.2181   0.9752   0.3858     H
H       0.2186   0.4868   0.9646     H
H       0.2186   0.5132   0.4646     H
O      0.22229  0.17126   0.4861     O
O      0.22229  0.82874   0.9861     O
H       0.2233   0.2149   0.0805     H
H       0.2233   0.7851   0.5805     H
O       0.2344  0.42992  0.37539     O
O       0.2344  0.57008  0.87539     O
Nd     0.24181  0.28843  0.40455    Nd
Nd     0.24181  0.71157  0.90455    Nd
H       0.2454   0.2709    0.815     H
H       0.2454   0.7291    0.315     H
O      0.24801   0.2367  0.70389     O
O      0.24801   0.7633  0.20389     O
O      0.25199   0.2633  0.29611     O
O      0.25199   0.7367  0.79611     O
H       0.2546   0.2291    0.185     H
H       0.2546   0.7709    0.685     H
Nd     0.25819  0.21157  0.59545    Nd
Nd     0.25819  0.78843  0.09545    Nd
O       0.2656  0.07008  0.62461     O
O       0.2656  0.92992  0.12461     O
H       0.2767   0.2851   0.9195     H
H       0.2767   0.7149   0.4195     H
O      0.27771  0.32874   0.5139     O
O      0.27771  0.67126   0.0139     O
H       0.2814   0.0132   0.0354     H
H       0.2814   0.9868   0.5354     H
H       0.2819   0.4752   0.1142     H
H       0.2819   0.5248   0.6142     H
C      0.28279    0.261  0.83139     C
C      0.28279    0.739  0.33139     C
O      0.28413  0.36187  0.61168     O
O      0.28413  0.63813  0.11168     O
C      0.28916  0.38092  0.55794     C
C      0.28916  0.61908  0.05794     C
C      0.29323   0.0129   0.6532     C
C      0.29323   0.9871   0.1532     C
C       0.3001  0.22966  0.72446     C
C       0.3001  0.77034  0.22446     C
O      0.30017   0.0067  0.71033     O
O      0.30017   0.9933  0.21033     O
C      0.30152  0.46747  0.08196     C
C      0.30152  0.53253  0.58196     C
C       0.3019   0.2694  0.89432     C
C       0.3019   0.7306  0.39432     C
C      0.30311   0.0558  0.05592     C
C      0.30311   0.9442  0.55592     C
C      0.31058  0.46571  0.54592     C
C      0.31058  0.53429  0.04592     C
H       0.3125   0.1191   0.9789     H
H       0.3125   0.8809   0.4789     H
H       0.3135    0.345   0.0957     H
H       0.3135    0.655   0.5957     H
C      0.31605   0.0544  0.11874     C
C      0.31605   0.9456  0.61874     C
C      0.31952  0.23781  0.79317     C
C      0.31952  0.76219  0.29317     C
C      0.32103  0.38939  0.07121     C
C      0.32103  0.61061  0.57121     C
C      0.32192   0.1201  0.02171     C
C      0.32192   0.8799  0.52171     C
O      0.33449  0.21663  0.68916     O
O      0.33449  0.78337  0.18916     O
O      0.33458  0.21016  0.43501     O
O      0.33458  0.78984  0.93501     O
O      0.33887  0.33432  0.39373     O
O      0.33887  0.66568  0.89373     O
C      0.34061  0.47924  0.49891     C
C      0.34061  0.52076  0.99891     C
H       0.3472   0.4349   0.4739     H
H       0.3472   0.5651   0.9739     H
C       0.3475   0.1188  0.14784     C
C       0.3475   0.8812  0.64784     C
C      0.35187  0.37494   0.0244     C
C      0.35187  0.62506   0.5244     C
C      0.35402  0.18495  0.04979     C
C      0.35402  0.81505  0.54979     C
H       0.3557   0.1202   0.1907     H
H       0.3557   0.8798   0.6907     H
C      0.35712  0.25526  0.92107     C
C      0.35712  0.74474  0.42107     C
C      0.36086  0.44327  0.98866     C
C      0.36086  0.55673  0.48866     C
C      0.36305  0.27131  0.42065     C
C      0.36305  0.72869  0.92065     C
C      0.36719    0.182  0.11413     C
C      0.36719    0.818  0.61413     C
C      0.37461   0.2228   0.8182     C
C      0.37461   0.7772   0.3182     C
Si     0.38008  0.27093  0.00599    Si
Si     0.38008  0.72907  0.50599    Si
H       0.3812   0.4362   0.9569     H
H       0.3812   0.5638   0.4569     H
H       0.3898   0.2235    0.135     H
H       0.3898   0.7765    0.635     H
C      0.39327   0.2321  0.88146     C
C      0.39327   0.7679  0.38146     C
H       0.3995   0.2064   0.7928     H
H       0.3995   0.7936   0.2928     H
C      0.42488  0.27032  0.43757     C
C      0.42488  0.72968  0.93757     C
H       0.4308   0.2227   0.8976     H
H       0.4308   0.7773   0.3976     H
H       0.4338   0.1517   0.4662     H
H       0.4338   0.8483   0.9662     H
H       0.4364   0.3906    0.416     H
H       0.4364   0.6094    0.916     H
C      0.45348   0.2003  0.46118     C
C      0.45348   0.7997  0.96118     C
C        0.455   0.3423  0.43161     C
C        0.455   0.6577  0.93161     C
C      0.45784  0.27223  0.02777     C
C      0.45784  0.72777  0.52777     C
H       0.4681    0.392   0.0555     H
H       0.4681    0.608   0.5555     H
H       0.4708    0.152   0.0073     H
H       0.4708    0.848   0.5073     H
C      0.48753  0.34289  0.05125     C
C      0.48753  0.65711  0.55125     C
C      0.48913  0.20073  0.02236     C
C      0.48913  0.79927  0.52236     C
C      0.51087  0.20073  0.47764     C
C      0.51087  0.79927  0.97764     C
C      0.51247  0.34289  0.44875     C
C      0.51247  0.65711  0.94875     C
H       0.5292    0.152   0.4927     H
H       0.5292    0.848   0.9927     H
H       0.5319    0.392   0.4445     H
H       0.5319    0.608   0.9445     H
C      0.54216  0.27223  0.47223     C
C      0.54216  0.72777  0.97223     C
C        0.545   0.3423  0.06839     C
C        0.545   0.6577  0.56839     C
C      0.54652   0.2003  0.03882     C
C      0.54652   0.7997  0.53882     C
H       0.5636   0.3906    0.084     H
H       0.5636   0.6094    0.584     H
H       0.5662   0.1517   0.0338     H
H       0.5662   0.8483   0.5338     H
H       0.5692   0.2227   0.6024     H
H       0.5692   0.7773   0.1024     H
C      0.57512  0.27032  0.06243     C
C      0.57512  0.72968  0.56243     C
H       0.6005   0.2064   0.7072     H
H       0.6005   0.7936   0.2072     H
C      0.60673   0.2321  0.61854     C
C      0.60673   0.7679  0.11854     C
H       0.6102   0.2235    0.365     H
H       0.6102   0.7765    0.865     H
H       0.6188   0.4362   0.5431     H
H       0.6188   0.5638   0.0431     H
Si     0.61992  0.27093  0.49401    Si
Si     0.61992  0.72907  0.99401    Si
C      0.62539   0.2228   0.6818     C
C      0.62539   0.7772   0.1818     C
C      0.63281    0.182  0.38587     C
C      0.63281    0.818  0.88587     C
C      0.63695  0.27131  0.07935     C
C      0.63695  0.72869  0.57935     C
C      0.63914  0.44327  0.51134     C
C      0.63914  0.55673  0.01134     C
C      0.64288  0.25526  0.57893     C
C      0.64288  0.74474  0.07893     C
H       0.6443   0.1202   0.3093     H
H       0.6443   0.8798   0.8093     H
C      0.64598  0.18495  0.45021     C
C      0.64598  0.81505  0.95021     C
C      0.64813  0.37494   0.4756     C
C      0.64813  0.62506   0.9756     C
C       0.6525   0.1188  0.35216     C
C       0.6525   0.8812  0.85216     C
H       0.6528   0.4349   0.0261     H
H       0.6528   0.5651   0.5261     H
C      0.65939  0.47924  0.00109     C
C      0.65939  0.52076  0.50109     C
O      0.66113  0.33432  0.10627     O
O      0.66113  0.66568  0.60627     O
O      0.66542  0.21016  0.06499     O
O      0.66542  0.78984  0.56499     O
O      0.66551  0.21663  0.81084     O
O      0.66551  0.78337  0.31084     O
C      0.67808   0.1201  0.47829     C
C      0.67808   0.8799  0.97829     C
C      0.67897  0.38939  0.42879     C
C      0.67897  0.61061  0.92879     C
C      0.68048  0.23781  0.70683     C
C      0.68048  0.76219  0.20683     C
C      0.68395   0.0544  0.38126     C
C      0.68395   0.9456  0.88126     C
H       0.6865    0.345   0.4043     H
H       0.6865    0.655   0.9043     H
H       0.6875   0.1191   0.5211     H
H       0.6875   0.8809   0.0211     H
C      0.68942  0.46571  0.95408     C
C      0.68942  0.53429  0.45408     C
C      0.69689   0.0558  0.44408     C
C      0.69689   0.9442  0.94408     C
C       0.6981   0.2694  0.60568     C
C       0.6981   0.7306  0.10568     C
C      0.69848  0.46747  0.41804     C
C      0.69848  0.53253  0.91804     C
O      0.69983   0.0067  0.78967     O
O      0.69983   0.9933  0.28967     O
C       0.6999  0.22966  0.77554     C
C       0.6999  0.77034  0.27554     C
C      0.70677   0.0129   0.8468     C
C      0.70677   0.9871   0.3468     C
C      0.71084  0.38092  0.94206     C
C      0.71084  0.61908  0.44206     C
O      0.71587  0.36187  0.88832     O
O      0.71587  0.63813  0.38832     O
C      0.71721    0.261  0.66861     C
C      0.71721    0.739  0.16861     C
H       0.7181   0.4752   0.3858     H
H       0.7181   0.5248   0.8858     H
H       0.7186   0.0132   0.4646     H
H       0.7186   0.9868   0.9646     H
O      0.72229  0.32874   0.9861     O
O      0.72229  0.67126   0.4861     O
H       0.7233   0.2851   0.5805     H
H       0.7233   0.7149   0.0805     H
O       0.7344  0.07008  0.87539     O
O       0.7344  0.92992  0.37539     O
Nd     0.74181  0.21157  0.90455    Nd
Nd     0.74181  0.78843  0.40455    Nd
H       0.7454   0.2291    0.315     H
H       0.7454   0.7709    0.815     H
O      0.74801   0.2633  0.20389     O
O      0.74801   0.7367  0.70389     O
O      0.75199   0.2367  0.79611     O
O      0.75199   0.7633  0.29611     O
H       0.7546   0.2709    0.685     H
H       0.7546   0.7291    0.185     H
Nd     0.75819  0.28843  0.09545    Nd
Nd     0.75819  0.71157  0.59545    Nd
O       0.7656  0.42992  0.12461     O
O       0.7656  0.57008  0.62461     O
H       0.7767   0.2149   0.4195     H
H       0.7767   0.7851   0.9195     H
O      0.77771  0.17126   0.0139     O
O      0.77771  0.82874   0.5139     O
H       0.7814   0.4868   0.5354     H
H       0.7814   0.5132   0.0354     H
H       0.7819   0.0248   0.6142     H
H       0.7819   0.9752   0.1142     H
C      0.78279    0.239  0.33139     C
C      0.78279    0.761  0.83139     C
O      0.78413  0.13813  0.11168     O
O      0.78413  0.86187  0.61168     O
C      0.78916  0.11908  0.05794     C
C      0.78916  0.88092  0.55794     C
C      0.79323   0.4871   0.1532     C
C      0.79323   0.5129   0.6532     C
C       0.8001  0.27034  0.22446     C
C       0.8001  0.72966  0.72446     C
O      0.80017   0.4933  0.21033     O
O      0.80017   0.5067  0.71033     O
C      0.80152  0.03253  0.58196     C
C      0.80152  0.96747  0.08196     C
C       0.8019   0.2306  0.39432     C
C       0.8019   0.7694  0.89432     C
C      0.80311   0.4442  0.55592     C
C      0.80311   0.5558  0.05592     C
C      0.81058  0.03429  0.04592     C
C      0.81058  0.96571  0.54592     C
H       0.8125   0.3809   0.4789     H
H       0.8125   0.6191   0.9789     H
H       0.8135    0.155   0.5957     H
H       0.8135    0.845   0.0957     H
C      0.81605   0.4456  0.61874     C
C      0.81605   0.5544  0.11874     C
C      0.81952  0.26219  0.29317     C
C      0.81952  0.73781  0.79317     C
C      0.82103  0.11061  0.57121     C
C      0.82103  0.88939  0.07121     C
C      0.82192   0.3799  0.52171     C
C      0.82192   0.6201  0.02171     C
O      0.83449  0.28337  0.18916     O
O      0.83449  0.71663  0.68916     O
O      0.83458  0.28984  0.93501     O
O      0.83458  0.71016  0.43501     O
O      0.83887  0.16568  0.89373     O
O      0.83887  0.83432  0.39373     O
C      0.84061  0.02076  0.99891     C
C      0.84061  0.97924  0.49891     C
H       0.8472   0.0651   0.9739     H
H       0.8472   0.9349   0.4739     H
C       0.8475   0.3812  0.64784     C
C       0.8475   0.6188  0.14784     C
C      0.85187  0.12506   0.5244     C
C      0.85187  0.87494   0.0244     C
C      0.85402  0.31505  0.54979     C
C      0.85402  0.68495  0.04979     C
H       0.8557   0.3798   0.6907     H
H       0.8557   0.6202   0.1907     H
C      0.85712  0.24474  0.42107     C
C      0.85712  0.75526  0.92107     C
C      0.86086  0.05673  0.48866     C
C      0.86086  0.94327  0.98866     C
C      0.86305  0.22869  0.92065     C
C      0.86305  0.77131  0.42065     C
C      0.86719    0.318  0.61413     C
C      0.86719    0.682  0.11413     C
C      0.87461   0.2772   0.3182     C
C      0.87461   0.7228   0.8182     C
Si     0.88008  0.22907  0.50599    Si
Si     0.88008  0.77093  0.00599    Si
H       0.8812   0.0638   0.4569     H
H       0.8812   0.9362   0.9569     H
H       0.8898   0.2765    0.635     H
H       0.8898   0.7235    0.135     H
C      0.89327   0.2679  0.38146     C
C      0.89327   0.7321  0.88146     C
H       0.8995   0.2936   0.2928     H
H       0.8995   0.7064   0.7928     H
C      0.92488  0.22968  0.93757     C
C      0.92488  0.77032  0.43757     C
H       0.9308   0.2773   0.3976     H
H       0.9308   0.7227   0.8976     H
H       0.9338   0.3483   0.9662     H
H       0.9338   0.6517   0.4662     H
H       0.9364   0.1094    0.916     H
H       0.9364   0.8906    0.416     H
C      0.95348   0.2997  0.96118     C
C      0.95348   0.7003  0.46118     C
C        0.955   0.1577  0.93161     C
C        0.955   0.8423  0.43161     C
C      0.95784  0.22777  0.52777     C
C      0.95784  0.77223  0.02777     C
H       0.9681    0.108   0.5555     H
H       0.9681    0.892   0.0555     H
H       0.9708    0.348   0.5073     H
H       0.9708    0.652   0.0073     H
C      0.98753  0.15711  0.55125     C
C      0.98753  0.84289  0.05125     C
C      0.98913  0.29927  0.52236     C
C      0.98913  0.70073  0.02236     C
