data_I
_chemical_name_common  '/home/zhangsd/repos/MofS-CGCNN/ML/data/TSD/clean_cifs/HIHGEM_manual'
_cell_length_a 18.77400
_cell_length_b 29.70400
_cell_length_c 24.89000
_cell_angle_alpha 90.00000
_cell_angle_beta  90.00000
_cell_angle_gamma 90.00000
_space_group_name_H-M_alt      'P 1'


loop_
_space_group_symop_operation_xyz
  'x, y, z' 

loop_
_atom_site_label
_atom_site_fract_x
_atom_site_fract_y
_atom_site_fract_z
_atom_site_type_symbol
H      -0.0186   0.0849   0.1943     H
Si         0.0      0.0     0.25    Si
H          0.0   0.2935  -0.1987     H
Si         0.0  0.38344    -0.25    Si
C       0.0255  0.07473   0.1822     C
H       0.0394   0.1243   0.1273     H
C       0.0395  0.30825  -0.1846     C
C       0.0543   0.4194  -0.2962     C
C       0.0545  0.03609  0.20501     C
C       0.0546   0.4013  -0.3507     C
C       0.0582  0.34975 -0.20437     C
C       0.0604  0.09867   0.1419     C
H       0.0656   0.2596  -0.1314     H
C       0.0787  0.28799  -0.1436     C
C       0.0899   0.4266   -0.389     C
C       0.0926   0.4526  -0.2835     C
C       0.1151  0.37062  -0.1809     C
C       0.1209  0.02351   0.1864     C
C       0.1254  0.08466  0.12372     C
H       0.1278   0.3992   -0.193     H
C       0.1289   0.4696  -0.3742     C
C        0.129   0.4763  -0.3219     C
O       0.1348  0.14508  0.06341     O
C       0.1362  0.30928 -0.12098     C
O       0.1362   0.5302  -0.4414     O
H       0.1425   -0.002   0.2008     H
C       0.1548  0.35125    -0.14     C
C       0.1567  0.04788   0.1466     C
O       0.1574  0.25073 -0.05975     O
C        0.161    0.108   0.0778     C
O       0.1664   0.4798  -0.4623     O
C       0.1694   0.4952  -0.4166     C
Er     0.17687  0.19461      0.0    Er
C       0.1779  0.28859   -0.075     C
H       0.1936   0.3665  -0.1255     H
H       0.2019    0.039   0.1356     H
O       0.2131  0.08885  0.05702     O
O       0.2278  0.31093 -0.05499     O
Er     0.26829   0.0417      0.0    Er
