data_I
_chemical_name_common  '/home/zhangsd/repos/MofS-CGCNN/ML/data/TSD/clean_cifs/HIQNAY_clean'
_cell_length_a 20.50400
_cell_length_b  9.57760
_cell_length_c 19.44400
_cell_angle_alpha 90.00000
_cell_angle_beta  103.73500
_cell_angle_gamma 90.00000
_space_group_name_H-M_alt      'P 1'


loop_
_space_group_symop_operation_xyz
  'x, y, z' 

loop_
_atom_site_label
_atom_site_fract_x
_atom_site_fract_y
_atom_site_fract_z
_atom_site_type_symbol
C       0.0023   0.7306   0.3143     C
C       0.0023   0.7694   0.8143     C
H       0.0046   0.1309   0.1823     H
H       0.0046   0.3691   0.6823     H
H       0.0104   0.1826   0.7779     H
H       0.0104   0.3174   0.2779     H
H       0.0136   0.2234   0.6484     H
H       0.0136   0.2766   0.1484     H
N        0.032   0.2215   0.7502     N
N        0.032   0.2785   0.2502     N
H       0.0662    0.531   0.8322     H
H       0.0662    0.969   0.3322     H
C       0.0788   0.7378   0.8227     C
C       0.0788   0.7622   0.3227     C
C       0.0979   0.6016   0.8353     C
C       0.0979   0.8984   0.3353     C
C       0.1006   0.2343   0.7716     C
C       0.1006   0.2657   0.2716     C
H       0.1059   0.1772   0.8728     H
H       0.1059   0.3228   0.3728     H
H       0.1143   0.5694   0.3177     H
H       0.1143   0.9306   0.8177     H
H        0.121   0.2049   0.1789     H
H        0.121   0.2951   0.6789     H
C       0.1273   0.6623   0.3247     C
C       0.1273   0.8377   0.8247     C
C       0.1319   0.1997   0.8411     C
C       0.1319   0.3003   0.3411     C
C       0.1408   0.2262   0.2259     C
C       0.1408   0.2738   0.7259     C
C       0.1666   0.5716   0.8531     C
C       0.1666   0.9284   0.3531     C
H       0.1798   0.0198   0.3653     H
H       0.1798   0.4802   0.8653     H
C       0.1947   0.6951   0.3368     C
C       0.1947   0.8049   0.8368     C
O       0.1986   0.1397   0.9798     O
O       0.1986   0.3603   0.4798     O
C       0.2012   0.1983   0.8638     C
C       0.2012   0.3017   0.3638     C
C       0.2089   0.2189   0.2499     C
C       0.2089   0.2811   0.7499     C
C       0.2157     0.67   0.8537     C
C       0.2157     0.83   0.3537     C
H       0.2258   0.6262   0.3335     H
H       0.2258   0.8738   0.8335     H
O        0.228   0.1753   0.1379     O
O        0.228   0.3247   0.6379     O
C       0.2361   0.1568   0.9367     C
C       0.2361   0.3432   0.4367     C
C       0.2392   0.2382   0.8186     C
C       0.2392   0.2618   0.3186     C
Zn     0.24304  0.01916   0.0613    Zn
Zn     0.24304  0.48084   0.5613    Zn
C       0.2523   0.1675   0.2042     C
C       0.2523   0.3325   0.7042     C
Zn     0.28137  0.13701  0.07246    Zn
Zn     0.28137  0.36299  0.57246    Zn
H       0.2857   0.2369   0.8337     H
H       0.2857   0.2631   0.3337     H
C       0.2881   0.6323   0.8667     C
C       0.2881   0.8677   0.3667     C
O       0.2961   0.1542   0.9555     O
O       0.2961   0.3458   0.4555     O
H       0.2968   0.5987   0.8226     H
H       0.2968   0.9013   0.3226     H
O       0.3076   0.1208   0.2339     O
O       0.3076   0.3792   0.7339     O
N       0.3105   0.5313    0.919     N
N       0.3105   0.9687    0.419     N
H       0.3136   0.0532   0.4052     H
H       0.3136   0.4468   0.9052     H
H       0.3138   0.7342   0.4905     H
H       0.3138   0.7658   0.9905     H
H       0.3145   0.7163   0.8798     H
H       0.3145   0.7837   0.3798     H
O       0.3161   0.5524   0.5773     O
O       0.3161   0.9476   0.0773     O
C       0.3279   0.5566   0.9908     C
C       0.3279   0.9434   0.4908     C
C       0.3285   0.6903   0.0202     C
C       0.3285   0.8097   0.5202     C
C       0.3477   0.0529   0.5378     C
C       0.3477   0.4471   0.0378     C
H       0.3482   0.1432   0.5203     H
H       0.3482   0.3568   0.0203     H
C       0.3503   0.7126   0.0919     C
C       0.3503   0.7874   0.5919     C
C       0.3515   0.6416   0.6178     C
C       0.3515   0.8584   0.1178     C
C       0.3673   0.0304   0.6114     C
C       0.3673   0.4696   0.1114     C
C       0.3711   0.6026   0.1378     C
C       0.3711   0.8974   0.6378     C
O       0.3779   0.2255   0.1316     O
O       0.3779   0.2745   0.6316     O
O       0.3852   0.6137   0.6776     O
O       0.3852   0.8863   0.1776     O
H       0.3874   0.6187    0.186     H
H       0.3874   0.8813    0.686     H
C        0.388   0.1516   0.6587     C
C        0.388   0.3484   0.1587     C
Zn     0.40089  0.08427  0.21041    Zn
Zn     0.40089  0.41573  0.71041    Zn
O       0.4125   0.1359   0.7212     O
O       0.4125   0.3641   0.2212     O
H         0.44    0.649   0.8124     H
H         0.44    0.851   0.3124     H
N       0.4421   0.0562   0.3157     N
N       0.4421   0.4438   0.8157     N
H       0.4463   0.2484   0.8442     H
H       0.4463   0.2516   0.3442     H
C       0.4506   0.5732   0.8429     C
C       0.4506   0.9268   0.3429     C
C       0.4549   0.1613   0.3616     C
C       0.4549   0.3387   0.8616     C
C       0.4742    0.598   0.9139     C
C       0.4742    0.902   0.4139     C
C       0.4795   0.1448   0.4322     C
C       0.4795   0.3552   0.9322     C
H       0.4817   0.6893   0.9302     H
H       0.4817   0.8107   0.4302     H
C       0.4871   0.0106   0.4613     C
C       0.4871   0.4894   0.9613     C
H       0.4914   0.2225   0.4612     H
H       0.4914   0.2775   0.9612     H
H       0.5086   0.7225   0.0388     H
H       0.5086   0.7775   0.5388     H
C       0.5129   0.5106   0.0387     C
C       0.5129   0.9894   0.5387     C
H       0.5183   0.1893   0.5698     H
H       0.5183   0.3107   0.0698     H
C       0.5205   0.6448   0.0678     C
C       0.5205   0.8552   0.5678     C
C       0.5258    0.098   0.5861     C
C       0.5258    0.402   0.0861     C
C       0.5451   0.6613   0.1384     C
C       0.5451   0.8387   0.6384     C
C       0.5494   0.0732   0.6571     C
C       0.5494   0.4268   0.1571     C
H       0.5537   0.7484   0.6558     H
H       0.5537   0.7516   0.1558     H
N       0.5579   0.5562   0.1843     N
N       0.5579   0.9438   0.6843     N
H         0.56    0.149   0.6876     H
H         0.56    0.351   0.1876     H
O       0.5875   0.6359   0.7788     O
O       0.5875   0.8641   0.2788     O
Zn     0.59911  0.58427  0.28959    Zn
Zn     0.59911  0.91573  0.78959    Zn
C        0.612   0.6516   0.8413     C
C        0.612   0.8484   0.3413     C
H       0.6126   0.1187    0.314     H
H       0.6126   0.3813    0.814     H
O       0.6148   0.1137   0.8224     O
O       0.6148   0.3863   0.3224     O
O       0.6221   0.7255   0.3684     O
O       0.6221   0.7745   0.8684     O
C       0.6289   0.1026   0.3622     C
C       0.6289   0.3974   0.8622     C
C       0.6327   0.5304   0.8886     C
C       0.6327   0.9696   0.3886     C
C       0.6485   0.1416   0.8822     C
C       0.6485   0.3584   0.3822     C
C       0.6497   0.2126   0.4081     C
C       0.6497   0.2874   0.9081     C
H       0.6518   0.6432   0.9797     H
H       0.6518   0.8568   0.4797     H
C       0.6523   0.5529   0.9622     C
C       0.6523   0.9471   0.4622     C
C       0.6715   0.1903   0.4798     C
C       0.6715   0.3097   0.9798     C
C       0.6721   0.0566   0.5092     C
C       0.6721   0.4434   0.0092     C
O       0.6839   0.0524   0.9227     O
O       0.6839   0.4476   0.4227     O
H       0.6855   0.2163   0.6202     H
H       0.6855   0.2837   0.1202     H
H       0.6862   0.2342   0.0095     H
H       0.6862   0.2658   0.5095     H
H       0.6864   0.5532   0.0948     H
H       0.6864   0.9468   0.5948     H
N       0.6895   0.0313    0.581     N
N       0.6895   0.4687    0.081     N
O       0.6924   0.6208   0.2661     O
O       0.6924   0.8792   0.7661     O
H       0.7032   0.0987   0.6774     H
H       0.7032   0.4013   0.1774     H
O       0.7039   0.6542   0.5445     O
O       0.7039   0.8458   0.0445     O
C       0.7119   0.1323   0.6333     C
C       0.7119   0.3677   0.1333     C
H       0.7143   0.7369   0.6663     H
H       0.7143   0.7631   0.1663     H
Zn     0.71863  0.63701  0.42754    Zn
Zn     0.71863  0.86299  0.92754    Zn
C       0.7477   0.6675   0.2958     C
C       0.7477   0.8325   0.7958     C
Zn     0.75696  0.51916   0.4387    Zn
Zn     0.75696  0.98084   0.9387    Zn
C       0.7608   0.7382   0.6814     C
C       0.7608   0.7618   0.1814     C
C       0.7639   0.6568   0.5633     C
C       0.7639   0.8432   0.0633     C
O        0.772   0.6753   0.3621     O
O        0.772   0.8247   0.8621     O
H       0.7742   0.1262   0.1665     H
H       0.7742   0.3738   0.6665     H
C       0.7843     0.17   0.6463     C
C       0.7843     0.33   0.1463     C
C       0.7911   0.7189   0.2501     C
C       0.7911   0.7811   0.7501     C
C       0.7988   0.6983   0.6362     C
C       0.7988   0.8017   0.1362     C
O       0.8014   0.6397   0.5202     O
O       0.8014   0.8603   0.0202     O
C       0.8053   0.1951   0.1632     C
C       0.8053   0.3049   0.6632     C
H       0.8202   0.5198   0.1347     H
H       0.8202   0.9802   0.6347     H
C       0.8334   0.0716   0.6469     C
C       0.8334   0.4284   0.1469     C
C       0.8592   0.7262   0.2741     C
C       0.8592   0.7738   0.7741     C
C       0.8681   0.6997   0.6589     C
C       0.8681   0.8003   0.1589     C
C       0.8727   0.1623   0.1753     C
C       0.8727   0.3377   0.6753     C
H        0.879   0.7049   0.3211     H
H        0.879   0.7951   0.8211     H
H       0.8857   0.0694   0.1823     H
H       0.8857   0.4306   0.6823     H
H       0.8941   0.6772   0.6272     H
H       0.8941   0.8228   0.1272     H
C       0.8994   0.7343   0.7284     C
C       0.8994   0.7657   0.2284     C
C       0.9021   0.1016   0.6647     C
C       0.9021   0.3984   0.1647     C
C       0.9212   0.2378   0.6773     C
C       0.9212   0.2622   0.1773     C
H       0.9338    0.031   0.6678     H
H       0.9338    0.469   0.1678     H
N        0.968   0.7215   0.7498     N
N        0.968   0.7785   0.2498     N
H       0.9864   0.7234   0.8516     H
H       0.9864   0.7766   0.3516     H
H       0.9896   0.6826   0.7221     H
H       0.9896   0.8174   0.2221     H
H       0.9954   0.6309   0.3177     H
H       0.9954   0.8691   0.8177     H
C       0.9977   0.2306   0.1857     C
C       0.9977   0.2694   0.6857     C
