data_I
_chemical_name_common  '/home/zhangsd/repos/MofS-CGCNN/ML/data/TSD/clean_cifs/HIVQAG_clean'
_cell_length_a  9.91650
_cell_length_b 10.96930
_cell_length_c 13.05280
_cell_angle_alpha 90.00000
_cell_angle_beta  90.00000
_cell_angle_gamma 101.63300
_space_group_name_H-M_alt      'P 1'


loop_
_space_group_symop_operation_xyz
  'x, y, z' 

loop_
_atom_site_label
_atom_site_fract_x
_atom_site_fract_y
_atom_site_fract_z
_atom_site_type_symbol
C       0.0082   0.6071    0.716     C
O        0.017   0.3669   0.4739     O
C       0.0188   0.5329   0.6343     C
C       0.0316     0.11   0.5956     C
C       0.0354    0.033   0.6796     C
H       0.0424   0.9911   0.2203     H
H       0.0486    0.861   0.0825     H
O       0.0595   0.8816   0.8478     O
H       0.0865   0.6372   0.7547     H
C       0.0912   0.5962   0.9859     C
C       0.0985   0.5132   0.0764     C
H       0.1029   0.5132   0.6172     H
N       0.1086   0.3618   0.2427     N
Mn     0.12446  0.25318  0.38847    Mn
N       0.1401   0.1441   0.5323     N
C       0.1539   0.9926   0.7024     C
C       0.1583   0.9028   0.7898     C
O       0.1942   0.6194   0.9278     O
C       0.2181   0.4003   0.1867     C
C       0.2196   0.4752   0.1034     C
O        0.238   0.1448   0.2949     O
C       0.2548   0.1058   0.5578     C
C       0.2648   0.0295   0.6413     C
O       0.2676   0.8615   0.7933     O
H       0.2991   0.3753   0.2046     H
H       0.2996   0.5004   0.0654     H
O       0.3148   0.3866   0.4211     O
H       0.3225   0.1447   0.0911     H
H       0.3326   0.1316   0.5175     H
C       0.3366   0.0643   0.1008     C
H       0.3405   0.0206   0.9525     H
C       0.3441   0.1015   0.2909     C
C        0.345    0.988   0.0179     C
H       0.3469    0.004   0.6551     H
C       0.3496    0.019   0.1991     C
N       0.3593   0.8698   0.0267     N
C       0.3691    0.828   0.1225     C
C       0.3691   0.9002   0.2087     C
Mn     0.37357  0.75178  0.88756    Mn
H       0.3764   0.7454   0.1311     H
H       0.3823   0.8681    0.273     H
H       0.3847   0.7604   0.6424     H
C       0.3878   0.6769   0.6513     C
N       0.3884   0.6325    0.745     N
H       0.3894   0.6384   0.5016     H
C       0.3918   0.6042   0.5667     C
H       0.3922   0.4813   0.8219     H
C       0.3937   0.5136   0.7559     C
C       0.3992    0.481    0.577     C
C       0.4012   0.4359   0.6755     C
H       0.4075   0.3536   0.6869     H
C       0.4097   0.4009   0.4857     C
O       0.4419   0.1148   0.3501     O
O        0.486   0.6459   0.9806     O
O        0.514   0.3541   0.4806     O
O       0.5581   0.8852   0.8501     O
C       0.5903   0.5991   0.9857     C
H       0.5925   0.6464   0.1869     H
C       0.5988   0.5641   0.1755     C
C       0.6008    0.519    0.077     C
C       0.6063   0.4864   0.2559     C
H       0.6078   0.5187   0.3219     H
C       0.6082   0.3958   0.0667     C
H       0.6106   0.3616   0.0016     H
N       0.6116   0.3675    0.245     N
C       0.6122   0.3231   0.1513     C
H       0.6153   0.2396   0.1424     H
H       0.6177   0.1319    0.773     H
H       0.6236   0.2546   0.6311     H
Mn     0.62643  0.24822  0.38756    Mn
C       0.6309   0.0998   0.7087     C
C       0.6309    0.172   0.6225     C
N       0.6407   0.1302   0.5267     N
C       0.6504    0.981   0.6991     C
H       0.6531    0.996   0.1551     H
C        0.655    0.012   0.5179     C
C       0.6559   0.8985   0.7909     C
H       0.6595   0.9794   0.4525     H
C       0.6634   0.9357   0.6008     C
H       0.6674   0.8684   0.0175     H
H       0.6775   0.8553   0.5911     H
O       0.6852   0.6134   0.9211     O
H       0.7004   0.4996   0.5654     H
H       0.7009   0.6247   0.7046     H
O       0.7324   0.1385   0.2933     O
C       0.7352   0.9705   0.1413     C
C       0.7452   0.8942   0.0578     C
O        0.762   0.8552   0.7949     O
C       0.7804   0.5248   0.6034     C
C       0.7819   0.5997   0.6867     C
O       0.8058   0.3806   0.4278     O
C       0.8417   0.0972   0.2898     C
C       0.8461   0.0074   0.2024     C
N       0.8599   0.8559   0.0323     N
Mn     0.87554  0.74682  0.88847    Mn
N       0.8914   0.6382   0.7427     N
H       0.8971   0.4868   0.1172     H
C       0.9015   0.4868   0.5764     C
C       0.9088   0.4038   0.4859     C
H       0.9135   0.3628   0.2547     H
O       0.9405   0.1184   0.3478     O
H       0.9514    0.139   0.5825     H
H       0.9576   0.0089   0.7203     H
C       0.9646    0.967   0.1796     C
C       0.9684     0.89   0.0956     C
C       0.9812   0.4671   0.1343     C
O        0.983   0.6331   0.9739     O
C       0.9918   0.3929    0.216     C
