data_I
_chemical_name_common  '/home/zhangsd/repos/MofS-CGCNN/ML/data/TSD/clean_cifs/HIWXER_clean'
_cell_length_a  8.44110
_cell_length_b  9.10660
_cell_length_c 14.23270
_cell_angle_alpha 71.70900
_cell_angle_beta  72.75010
_cell_angle_gamma 62.38930
_space_group_name_H-M_alt      'P 1'


loop_
_space_group_symop_operation_xyz
  'x, y, z' 

loop_
_atom_site_label
_atom_site_fract_x
_atom_site_fract_y
_atom_site_fract_z
_atom_site_type_symbol
N      0.01562  0.05832  0.80504     N
O      0.01755  0.32021  0.88769     O
C      0.02769  0.81145  0.81957     C
H        0.046     0.73    0.078     H
N      0.05837  0.65711  0.80715     N
N      0.08321  0.12663  0.09895     N
N      0.08825  0.97206  0.11084     N
N      0.09204  0.92571  0.75861     N
N      0.12102  0.55832  0.30504     N
Zn      0.1222     0.25     0.75    Zn
H        0.146     0.23    0.578     H
Zn     0.15545  0.42134  0.13332    Zn
N      0.17115  0.52794  0.38916     N
C      0.18157  0.59955  0.72531     C
H        0.185    0.494     0.95     H
N      0.21754  0.45309  0.70223     N
Zn     0.22003   0.2199  0.97074    Zn
N      0.22364  0.42571  0.25861     N
O      0.22545  0.17979  0.61231     O
O      0.23822  0.41091  0.98885     O
N      0.28274  0.67686  0.65566     N
Zn     0.28989  0.92134  0.63332    Zn
N      0.30879  0.37337  0.40105     N
N      0.34009  0.44708  0.61534     N
C      0.34129  0.31145  0.31957     C
O      0.36202  0.91091  0.48885     O
H        0.371    0.994     0.45     H
N      0.37286  0.04691  0.79777     N
N      0.37872  0.57864  0.58772     N
N      0.38474  0.17686  0.15566     N
N      0.40251  0.05292  0.88466     N
Zn     0.41067   0.2801  0.52926    Zn
N      0.45492  0.07864  0.08772     N
N      0.47737  0.15711  0.30715     N
C      0.49357  0.09955  0.22531     C
C      0.50643  0.90045  0.77469     C
N      0.52263  0.84289  0.69285     N
N      0.54508  0.92136  0.91228     N
Zn     0.58933   0.7199  0.47074    Zn
N      0.59749  0.94708  0.11534     N
N      0.61526  0.82314  0.84434     N
N      0.62128  0.42136  0.41228     N
N      0.62714  0.95309  0.20223     N
H        0.629    0.006     0.55     H
O      0.63798  0.08909  0.51115     O
C      0.65871  0.68855  0.68043     C
N      0.65991  0.55292  0.38466     N
N      0.69121  0.62663  0.59895     N
Zn     0.71011  0.07866  0.36668    Zn
N      0.71726  0.32314  0.34434     N
O      0.76178  0.58909  0.01115     O
O      0.77455  0.82021  0.38769     O
N      0.77636  0.57429  0.74139     N
Zn     0.77997   0.7801  0.02926    Zn
N      0.78246  0.54691  0.29777     N
H        0.815    0.506     0.05     H
C      0.81843  0.40045  0.27469     C
N      0.82885  0.47206  0.61084     N
Zn     0.84455  0.57866  0.86668    Zn
H        0.854     0.77    0.422     H
Zn      0.8778     0.75     0.25    Zn
N      0.87898  0.44168  0.69496     N
N      0.90796  0.07429  0.24139     N
N      0.91175  0.02794  0.88916     N
N      0.91679  0.87337  0.90105     N
N      0.94163  0.34289  0.19285     N
H        0.954     0.27    0.922     H
C      0.97231  0.18855  0.18043     C
O      0.98245  0.67979  0.11231     O
N      0.98438  0.94168  0.19496     N
