data_I
_chemical_name_common  '/home/zhangsd/repos/MofS-CGCNN/ML/data/TSD/clean_cifs/HIWXER01_SL'
_cell_length_a 16.08710
_cell_length_b  8.55050
_cell_length_c 17.18860
_cell_angle_alpha 90.00000
_cell_angle_beta  129.56870
_cell_angle_gamma 90.00000
_space_group_name_H-M_alt      'P 1'


loop_
_space_group_symop_operation_xyz
  'x, y, z' 

loop_
_atom_site_label
_atom_site_fract_x
_atom_site_fract_y
_atom_site_fract_z
_atom_site_type_symbol
Zn         0.0  0.37327     0.25    Zn
Zn        -0.0  0.62673     0.75    Zn
O       0.0349   0.3726   0.3884     O
O       0.0349   0.6274   0.8884     O
O       0.0386   0.3163   0.9888     O
O       0.0386   0.6837   0.4888     O
H      0.04204  0.29291  0.55928     H
H      0.04204  0.70709  0.05928     H
H      0.09135  0.29073  0.42205     H
H      0.09135  0.70927  0.92205     H
Zn     0.10716  0.31985  0.13437    Zn
Zn     0.10716  0.68015  0.63437    Zn
N       0.1232   0.1988   0.3051     N
N       0.1232   0.8012   0.8051     N
Zn     0.12614  0.43548  0.97128    Zn
Zn     0.12614  0.56452  0.47128    Zn
N       0.1266   0.4564   0.7986     N
N       0.1266   0.5436   0.2986     N
N       0.1656   0.1864   0.2585     N
N       0.1656   0.8136   0.7585     N
N       0.1662   0.3793   0.8845     N
N       0.1662   0.6207   0.3845     N
N       0.1774   0.4613   0.6941     N
N       0.1774   0.5387   0.1941     N
N       0.1793   0.1201   0.3885     N
N       0.1793   0.8799   0.8885     N
C       0.1864   0.4058   0.7751     C
C       0.1864   0.5942   0.2751     C
N       0.2385   0.4476   0.6001     N
N       0.2385   0.5524   0.1001     N
N       0.2391   0.1997   0.1561     N
N       0.2391   0.8003   0.6561     N
N       0.2461   0.2873   0.9123     N
C       0.2461   0.4076    0.681     C
C       0.2461   0.5924    0.181     C
N       0.2461   0.7127   0.4123     N
C       0.2539   0.0924    0.319     C
N       0.2539   0.2127   0.0877     N
N       0.2539   0.7873   0.5877     N
C       0.2539   0.9076    0.819     C
N       0.2609   0.3003   0.8439     N
N       0.2609   0.6997   0.3439     N
N       0.2615   0.0524   0.3999     N
N       0.2615   0.9476   0.8999     N
C       0.3136   0.0942   0.2249     C
C       0.3136   0.9058   0.7249     C
N       0.3207   0.3799   0.6115     N
N       0.3207   0.6201   0.1115     N
N       0.3226   0.0387   0.3059     N
N       0.3226   0.9613   0.8059     N
N       0.3338   0.1207   0.1155     N
N       0.3338   0.8793   0.6155     N
N       0.3344   0.3136   0.7415     N
N       0.3344   0.6864   0.2415     N
N       0.3734   0.0436   0.2014     N
N       0.3734   0.9564   0.7014     N
Zn     0.37386  0.06452  0.02872    Zn
Zn     0.37386  0.93548  0.52872    Zn
N       0.3768   0.3012   0.6949     N
N       0.3768   0.6988   0.1949     N
Zn     0.39284  0.18015  0.86563    Zn
Zn     0.39284  0.81985  0.36563    Zn
H      0.40865  0.20927  0.57795     H
H      0.40865  0.79073  0.07795     H
H      0.45796  0.20709  0.44072     H
H      0.45796  0.79291  0.94072     H
O       0.4614   0.1837   0.0112     O
O       0.4614   0.8163   0.5112     O
O       0.4651   0.1274   0.6116     O
O       0.4651   0.8726   0.1116     O
Zn         0.5  0.12673     0.75    Zn
Zn         0.5  0.87327     0.25    Zn
O       0.5349   0.1274   0.8884     O
O       0.5349   0.8726   0.3884     O
O       0.5386   0.1837   0.4888     O
O       0.5386   0.8163   0.9888     O
H      0.54204  0.20709  0.05928     H
H      0.54204  0.79291  0.55928     H
H      0.59135  0.20927  0.92205     H
H      0.59135  0.79073  0.42205     H
Zn     0.60716  0.18015  0.63437    Zn
Zn     0.60716  0.81985  0.13437    Zn
N       0.6232   0.3012   0.8051     N
N       0.6232   0.6988   0.3051     N
Zn     0.62614  0.06452  0.47128    Zn
Zn     0.62614  0.93548  0.97128    Zn
N       0.6266   0.0436   0.2986     N
N       0.6266   0.9564   0.7986     N
N       0.6656   0.3136   0.7585     N
N       0.6656   0.6864   0.2585     N
N       0.6662   0.1207   0.3845     N
N       0.6662   0.8793   0.8845     N
N       0.6774   0.0387   0.1941     N
N       0.6774   0.9613   0.6941     N
N       0.6793   0.3799   0.8885     N
N       0.6793   0.6201   0.3885     N
C       0.6864   0.0942   0.2751     C
C       0.6864   0.9058   0.7751     C
N       0.7385   0.0524   0.1001     N
N       0.7385   0.9476   0.6001     N
N       0.7391   0.3003   0.6561     N
N       0.7391   0.6997   0.1561     N
C       0.7461   0.0924    0.181     C
N       0.7461   0.2127   0.4123     N
N       0.7461   0.7873   0.9123     N
C       0.7461   0.9076    0.681     C
N       0.7539   0.2873   0.5877     N
C       0.7539   0.4076    0.819     C
C       0.7539   0.5924    0.319     C
N       0.7539   0.7127   0.0877     N
N       0.7609   0.1997   0.3439     N
N       0.7609   0.8003   0.8439     N
N       0.7615   0.4476   0.8999     N
N       0.7615   0.5524   0.3999     N
C       0.8136   0.4058   0.7249     C
C       0.8136   0.5942   0.2249     C
N       0.8207   0.1201   0.1115     N
N       0.8207   0.8799   0.6115     N
N       0.8226   0.4613   0.8059     N
N       0.8226   0.5387   0.3059     N
N       0.8338   0.3793   0.6155     N
N       0.8338   0.6207   0.1155     N
N       0.8344   0.1864   0.2415     N
N       0.8344   0.8136   0.7415     N
N       0.8734   0.4564   0.7014     N
N       0.8734   0.5436   0.2014     N
Zn     0.87386  0.43548  0.52872    Zn
Zn     0.87386  0.56452  0.02872    Zn
N       0.8768   0.1988   0.1949     N
N       0.8768   0.8012   0.6949     N
Zn     0.89284  0.31985  0.36563    Zn
Zn     0.89284  0.68015  0.86563    Zn
H      0.90865  0.29073  0.07795     H
H      0.90865  0.70927  0.57795     H
H      0.95796  0.29291  0.94072     H
H      0.95796  0.70709  0.44072     H
O       0.9614   0.3163   0.5112     O
O       0.9614   0.6837   0.0112     O
O       0.9651   0.3726   0.1116     O
O       0.9651   0.6274   0.6116     O
