data_I
_chemical_name_common  '/home/zhangsd/repos/MofS-CGCNN/ML/data/TSD/clean_cifs/HIYMAF_clean'
_cell_length_a 14.35290
_cell_length_b 15.23390
_cell_length_c 33.40830
_cell_angle_alpha 90.00000
_cell_angle_beta  90.00000
_cell_angle_gamma 90.00000
_space_group_name_H-M_alt      'P 1'


loop_
_space_group_symop_operation_xyz
  'x, y, z' 

loop_
_atom_site_label
_atom_site_fract_x
_atom_site_fract_y
_atom_site_fract_z
_atom_site_type_symbol
C       0.0024   0.4107   0.0499     C
C       0.0024   0.4107   0.4501     C
C       0.0061   0.4979     0.25     C
C       0.0077   0.5077  0.64984     C
C       0.0077   0.5077  0.85016     C
C       0.0099   0.5827  0.14898     C
C       0.0099   0.5827  0.35102     C
C       0.0112   0.5015   0.0491     C
C       0.0112   0.5015   0.4509     C
C       0.0181   0.5895     0.75     C
O       0.0219   0.3494     0.75     O
O       0.0296   0.3424  0.15062     O
O       0.0296   0.3424  0.34938     O
O       0.0427   0.3523  0.54786     O
O       0.0427   0.3523  0.95214     O
N       0.0477    0.347     0.25     N
N       0.0582   0.3594  0.64782     N
N       0.0582   0.3594  0.85218     N
C       0.0608   0.4251     0.75     C
C       0.0638   0.4192   0.1494     C
C       0.0638   0.4192   0.3506     C
C       0.0679   0.4332   0.5477     C
C       0.0679   0.4332   0.9523     C
N        0.078   0.3587  0.05026     N
N        0.078   0.3587  0.44974     N
C       0.0897   0.6384   0.5496     C
C       0.0897   0.6384   0.9504     C
N       0.0956   0.5382  0.05026     N
N       0.0956   0.5382  0.44974     N
N       0.0958   0.5213     0.25     N
N       0.0963    0.536  0.64847     N
N       0.0963    0.536  0.85153     N
C       0.1068   0.6222   0.1498     C
C       0.1068   0.6222   0.3502     C
Dy     0.11248  0.70211  0.05101    Dy
Dy     0.11248  0.70211  0.44899    Dy
C       0.1179   0.6256     0.75     C
O       0.1229   0.6585   0.5162     O
O       0.1229   0.6585   0.9838     O
O       0.1236   0.6585  0.58242     O
O       0.1236   0.6585  0.91758     O
Dy     0.12942  0.69612   0.6508    Dy
Dy     0.12942  0.69612   0.8492    Dy
C       0.1368   0.3721     0.25     C
O       0.1369   0.6515  0.11751     O
O       0.1369   0.6515  0.38249     O
Dy     0.14015  0.67962     0.25    Dy
O       0.1444   0.4406     0.75     O
O       0.1465    0.438  0.14696     O
O       0.1465    0.438  0.35304     O
C       0.1468   0.3886  0.64751     C
C       0.1468   0.3886  0.85249     C
O        0.148   0.4614  0.54694     O
O        0.148   0.4614  0.95306     O
O        0.148   0.6264  0.18265     O
O        0.148   0.6264  0.31735     O
O       0.1537   0.6403   0.7167     O
O       0.1537   0.6403   0.7833     O
C       0.1613   0.4606     0.25     C
C       0.1626   0.3965   0.0509     C
C       0.1626   0.3965   0.4491     C
O       0.1645   0.9947   0.0488     O
O       0.1645   0.9947   0.4512     O
C       0.1655   0.4777  0.64725     C
C       0.1655   0.4777  0.85275     C
O       0.1704   0.9704   0.6425     O
O       0.1704   0.9704   0.8575     O
C       0.1719   0.4877   0.0508     C
C       0.1719   0.4877   0.4492     C
O        0.176   0.9447     0.25     O
K      0.18571    0.243     0.75     K
K      0.18635  0.21677  0.54603     K
K      0.18635  0.21677  0.95397     K
K      0.19134  0.23375  0.14316     K
K      0.19134  0.23375  0.35684     K
C       0.2063   0.2971     0.25     C
O       0.2162   0.8133  0.08194     O
O       0.2162   0.8133  0.41806     O
C       0.2201   0.3176   0.6472     C
C       0.2201   0.3176   0.8528     C
O       0.2325   0.0785     0.25     O
O       0.2331   0.2676  0.21755     O
O       0.2331   0.2676  0.28245     O
C       0.2374   0.0373   0.0499     C
C       0.2374   0.0373   0.4501     C
O       0.2383   0.1024  0.64465     O
O       0.2383   0.1024  0.85535     O
C       0.2395   0.0194   0.6446     C
C       0.2395   0.0194   0.8554     C
C       0.2397   0.9952     0.25     C
O       0.2416   0.2833  0.61486     O
O       0.2416   0.2833  0.88514     O
O       0.2417   0.7938  0.01817     O
O       0.2417   0.7938  0.48183     O
C       0.2426   0.3316     0.05     C
C       0.2426   0.3316     0.45     C
O       0.2452   0.1196  0.04986     O
O       0.2452   0.1196  0.45014     O
O       0.2459   0.7947  0.67962     O
O       0.2459   0.7947  0.82038     O
O       0.2541   0.2947  0.67962     O
O       0.2541   0.2947  0.82038     O
O       0.2548   0.6196  0.04986     O
O       0.2548   0.6196  0.45014     O
C       0.2574   0.8316     0.05     C
C       0.2574   0.8316     0.45     C
O       0.2583   0.2938  0.01817     O
O       0.2583   0.2938  0.48183     O
O       0.2584   0.7833  0.61486     O
O       0.2584   0.7833  0.88514     O
C       0.2603   0.4952     0.25     C
C       0.2605   0.5194   0.6446     C
C       0.2605   0.5194   0.8554     C
O       0.2617   0.6024  0.64465     O
O       0.2617   0.6024  0.85535     O
C       0.2626   0.5373   0.0499     C
C       0.2626   0.5373   0.4501     C
O       0.2669   0.7676  0.21755     O
O       0.2669   0.7676  0.28245     O
O       0.2675   0.5785     0.25     O
C       0.2799   0.8176   0.6472     C
C       0.2799   0.8176   0.8528     C
O       0.2838   0.3133  0.08194     O
O       0.2838   0.3133  0.41806     O
C       0.2937   0.7971     0.25     C
K      0.30866  0.73375  0.14316     K
K      0.30866  0.73375  0.35684     K
K      0.31365  0.71677  0.54603     K
K      0.31365  0.71677  0.95397     K
K      0.31429    0.743     0.75     K
O        0.324   0.4447     0.25     O
C       0.3281   0.9877   0.0508     C
C       0.3281   0.9877   0.4492     C
O       0.3296   0.4704   0.6425     O
O       0.3296   0.4704   0.8575     O
C       0.3345   0.9777  0.64725     C
C       0.3345   0.9777  0.85275     C
O       0.3355   0.4947   0.0488     O
O       0.3355   0.4947   0.4512     O
C       0.3374   0.8965   0.0509     C
C       0.3374   0.8965   0.4491     C
C       0.3387   0.9606     0.25     C
O       0.3463   0.1403   0.7167     O
O       0.3463   0.1403   0.7833     O
O        0.352   0.1264  0.18265     O
O        0.352   0.1264  0.31735     O
O        0.352   0.9614  0.54694     O
O        0.352   0.9614  0.95306     O
C       0.3532   0.8886  0.64751     C
C       0.3532   0.8886  0.85249     C
O       0.3535    0.938  0.14696     O
O       0.3535    0.938  0.35304     O
O       0.3556   0.9406     0.75     O
Dy     0.35985  0.17962     0.25    Dy
O       0.3631   0.1515  0.11751     O
O       0.3631   0.1515  0.38249     O
C       0.3632   0.8721     0.25     C
Dy     0.37058  0.19612   0.6508    Dy
Dy     0.37058  0.19612   0.8492    Dy
O       0.3764   0.1585  0.58242     O
O       0.3764   0.1585  0.91758     O
O       0.3771   0.1585   0.5162     O
O       0.3771   0.1585   0.9838     O
C       0.3821   0.1256     0.75     C
Dy     0.38752  0.20211  0.05101    Dy
Dy     0.38752  0.20211  0.44899    Dy
C       0.3932   0.1222   0.1498     C
C       0.3932   0.1222   0.3502     C
N       0.4037    0.036  0.64847     N
N       0.4037    0.036  0.85153     N
N       0.4042   0.0213     0.25     N
N       0.4044   0.0382  0.05026     N
N       0.4044   0.0382  0.44974     N
C       0.4103   0.1384   0.5496     C
C       0.4103   0.1384   0.9504     C
N        0.422   0.8587  0.05026     N
N        0.422   0.8587  0.44974     N
C       0.4321   0.9332   0.5477     C
C       0.4321   0.9332   0.9523     C
C       0.4362   0.9192   0.1494     C
C       0.4362   0.9192   0.3506     C
C       0.4392   0.9251     0.75     C
N       0.4418   0.8594  0.64782     N
N       0.4418   0.8594  0.85218     N
N       0.4523    0.847     0.25     N
O       0.4573   0.8523  0.54786     O
O       0.4573   0.8523  0.95214     O
O       0.4704   0.8424  0.15062     O
O       0.4704   0.8424  0.34938     O
O       0.4781   0.8494     0.75     O
C       0.4819   0.0895     0.75     C
C       0.4888   0.0015   0.0491     C
C       0.4888   0.0015   0.4509     C
C       0.4901   0.0827  0.14898     C
C       0.4901   0.0827  0.35102     C
C       0.4923   0.0077  0.64984     C
C       0.4923   0.0077  0.85016     C
C       0.4939   0.9979     0.25     C
C       0.4976   0.9107   0.0499     C
C       0.4976   0.9107   0.4501     C
C       0.5024   0.0893   0.5499     C
C       0.5024   0.0893   0.9501     C
C       0.5061   0.0021     0.75     C
C       0.5077   0.9923  0.14984     C
C       0.5077   0.9923  0.35016     C
C       0.5099   0.9173  0.64898     C
C       0.5099   0.9173  0.85102     C
C       0.5112   0.9985   0.5491     C
C       0.5112   0.9985   0.9509     C
C       0.5181   0.9105     0.25     C
O       0.5219   0.1506     0.25     O
O       0.5296   0.1576  0.65062     O
O       0.5296   0.1576  0.84938     O
O       0.5427   0.1477  0.04786     O
O       0.5427   0.1477  0.45214     O
N       0.5477    0.153     0.75     N
N       0.5582   0.1406  0.14782     N
N       0.5582   0.1406  0.35218     N
C       0.5608   0.0749     0.25     C
C       0.5638   0.0808   0.6494     C
C       0.5638   0.0808   0.8506     C
C       0.5679   0.0668   0.0477     C
C       0.5679   0.0668   0.4523     C
N        0.578   0.1413  0.55026     N
N        0.578   0.1413  0.94974     N
C       0.5897   0.8616   0.0496     C
C       0.5897   0.8616   0.4504     C
N       0.5956   0.9618  0.55026     N
N       0.5956   0.9618  0.94974     N
N       0.5958   0.9787     0.75     N
N       0.5963    0.964  0.14847     N
N       0.5963    0.964  0.35153     N
C       0.6068   0.8778   0.6498     C
C       0.6068   0.8778   0.8502     C
Dy     0.61248  0.79789  0.55101    Dy
Dy     0.61248  0.79789  0.94899    Dy
C       0.6179   0.8744     0.25     C
O       0.6229   0.8415   0.0162     O
O       0.6229   0.8415   0.4838     O
O       0.6236   0.8415  0.08242     O
O       0.6236   0.8415  0.41758     O
Dy     0.62942  0.80388   0.1508    Dy
Dy     0.62942  0.80388   0.3492    Dy
C       0.6368   0.1279     0.75     C
O       0.6369   0.8485  0.61751     O
O       0.6369   0.8485  0.88249     O
Dy     0.64015  0.82038     0.75    Dy
O       0.6444   0.0594     0.25     O
O       0.6465    0.062  0.64696     O
O       0.6465    0.062  0.85304     O
C       0.6468   0.1114  0.14751     C
C       0.6468   0.1114  0.35249     C
O        0.648   0.0386  0.04694     O
O        0.648   0.0386  0.45306     O
O        0.648   0.8736  0.68265     O
O        0.648   0.8736  0.81735     O
O       0.6537   0.8597   0.2167     O
O       0.6537   0.8597   0.2833     O
C       0.6613   0.0394     0.75     C
C       0.6626   0.1035   0.5509     C
C       0.6626   0.1035   0.9491     C
O       0.6645   0.5053   0.5488     O
O       0.6645   0.5053   0.9512     O
C       0.6655   0.0223  0.14725     C
C       0.6655   0.0223  0.35275     C
O       0.6704   0.5296   0.1425     O
O       0.6704   0.5296   0.3575     O
C       0.6719   0.0123   0.5508     C
C       0.6719   0.0123   0.9492     C
O        0.676   0.5553     0.75     O
K      0.68571    0.257     0.25     K
K      0.68635  0.28323  0.04603     K
K      0.68635  0.28323  0.45397     K
K      0.69134  0.26625  0.64316     K
K      0.69134  0.26625  0.85684     K
C       0.7063   0.2029     0.75     C
O       0.7162   0.6867  0.58194     O
O       0.7162   0.6867  0.91806     O
C       0.7201   0.1824   0.1472     C
C       0.7201   0.1824   0.3528     C
O       0.7325   0.4215     0.75     O
O       0.7331   0.2324  0.71755     O
O       0.7331   0.2324  0.78245     O
C       0.7374   0.4627   0.5499     C
C       0.7374   0.4627   0.9501     C
O       0.7383   0.3976  0.14465     O
O       0.7383   0.3976  0.35535     O
C       0.7395   0.4806   0.1446     C
C       0.7395   0.4806   0.3554     C
C       0.7397   0.5048     0.75     C
O       0.7416   0.2167  0.11486     O
O       0.7416   0.2167  0.38514     O
O       0.7417   0.7062  0.51817     O
O       0.7417   0.7062  0.98183     O
C       0.7426   0.1684     0.55     C
C       0.7426   0.1684     0.95     C
O       0.7452   0.3804  0.54986     O
O       0.7452   0.3804  0.95014     O
O       0.7459   0.7053  0.17962     O
O       0.7459   0.7053  0.32038     O
O       0.7541   0.2053  0.17962     O
O       0.7541   0.2053  0.32038     O
O       0.7548   0.8804  0.54986     O
O       0.7548   0.8804  0.95014     O
C       0.7574   0.6684     0.55     C
C       0.7574   0.6684     0.95     C
O       0.7583   0.2062  0.51817     O
O       0.7583   0.2062  0.98183     O
O       0.7584   0.7167  0.11486     O
O       0.7584   0.7167  0.38514     O
C       0.7603   0.0048     0.75     C
C       0.7605   0.9806   0.1446     C
C       0.7605   0.9806   0.3554     C
O       0.7617   0.8976  0.14465     O
O       0.7617   0.8976  0.35535     O
C       0.7626   0.9627   0.5499     C
C       0.7626   0.9627   0.9501     C
O       0.7669   0.7324  0.71755     O
O       0.7669   0.7324  0.78245     O
O       0.7675   0.9215     0.75     O
C       0.7799   0.6824   0.1472     C
C       0.7799   0.6824   0.3528     C
O       0.7838   0.1867  0.58194     O
O       0.7838   0.1867  0.91806     O
C       0.7937   0.7029     0.75     C
K      0.80866  0.76625  0.64316     K
K      0.80866  0.76625  0.85684     K
K      0.81365  0.78323  0.04603     K
K      0.81365  0.78323  0.45397     K
K      0.81429    0.757     0.25     K
O        0.824   0.0553     0.75     O
C       0.8281   0.5123   0.5508     C
C       0.8281   0.5123   0.9492     C
O       0.8296   0.0296   0.1425     O
O       0.8296   0.0296   0.3575     O
C       0.8345   0.5223  0.14725     C
C       0.8345   0.5223  0.35275     C
O       0.8355   0.0053   0.5488     O
O       0.8355   0.0053   0.9512     O
C       0.8374   0.6035   0.5509     C
C       0.8374   0.6035   0.9491     C
C       0.8387   0.5394     0.75     C
O       0.8463   0.3597   0.2167     O
O       0.8463   0.3597   0.2833     O
O        0.852   0.3736  0.68265     O
O        0.852   0.3736  0.81735     O
O        0.852   0.5386  0.04694     O
O        0.852   0.5386  0.45306     O
C       0.8532   0.6114  0.14751     C
C       0.8532   0.6114  0.35249     C
O       0.8535    0.562  0.64696     O
O       0.8535    0.562  0.85304     O
O       0.8556   0.5594     0.25     O
Dy     0.85985  0.32038     0.75    Dy
O       0.8631   0.3485  0.61751     O
O       0.8631   0.3485  0.88249     O
C       0.8632   0.6279     0.75     C
Dy     0.87058  0.30388   0.1508    Dy
Dy     0.87058  0.30388   0.3492    Dy
O       0.8764   0.3415  0.08242     O
O       0.8764   0.3415  0.41758     O
O       0.8771   0.3415   0.0162     O
O       0.8771   0.3415   0.4838     O
C       0.8821   0.3744     0.25     C
Dy     0.88752  0.29789  0.55101    Dy
Dy     0.88752  0.29789  0.94899    Dy
C       0.8932   0.3778   0.6498     C
C       0.8932   0.3778   0.8502     C
N       0.9037    0.464  0.14847     N
N       0.9037    0.464  0.35153     N
N       0.9042   0.4787     0.75     N
N       0.9044   0.4618  0.55026     N
N       0.9044   0.4618  0.94974     N
C       0.9103   0.3616   0.0496     C
C       0.9103   0.3616   0.4504     C
N        0.922   0.6413  0.55026     N
N        0.922   0.6413  0.94974     N
C       0.9321   0.5668   0.0477     C
C       0.9321   0.5668   0.4523     C
C       0.9362   0.5808   0.6494     C
C       0.9362   0.5808   0.8506     C
C       0.9392   0.5749     0.25     C
N       0.9418   0.6406  0.14782     N
N       0.9418   0.6406  0.35218     N
N       0.9523    0.653     0.75     N
O       0.9573   0.6477  0.04786     O
O       0.9573   0.6477  0.45214     O
O       0.9704   0.6576  0.65062     O
O       0.9704   0.6576  0.84938     O
O       0.9781   0.6506     0.25     O
C       0.9819   0.4105     0.25     C
C       0.9888   0.4985   0.5491     C
C       0.9888   0.4985   0.9509     C
C       0.9901   0.4173  0.64898     C
C       0.9901   0.4173  0.85102     C
C       0.9923   0.4923  0.14984     C
C       0.9923   0.4923  0.35016     C
C       0.9939   0.5021     0.75     C
C       0.9976   0.5893   0.5499     C
C       0.9976   0.5893   0.9501     C
