data_I
_chemical_name_common  '/home/zhangsd/repos/MofS-CGCNN/ML/data/TSD/clean_cifs/HOBGOV_clean'
_cell_length_a  6.42900
_cell_length_b 25.18000
_cell_length_c  7.87400
_cell_angle_alpha 90.00000
_cell_angle_beta  90.10100
_cell_angle_gamma 90.00000
_space_group_name_H-M_alt      'P 1'


loop_
_space_group_symop_operation_xyz
  'x, y, z' 

loop_
_atom_site_label
_atom_site_fract_x
_atom_site_fract_y
_atom_site_fract_z
_atom_site_type_symbol
N       0.0042   0.3089   0.8493     N
C       0.0134   0.3758   0.3349     C
H       0.0376   0.8462   0.6029     H
C       0.0398   0.9656   0.7677     C
H       0.0556   0.3217   0.7484     H
O       0.0646   0.1964   0.0134     O
H       0.0777    0.624   0.3309     H
O       0.0828   0.2079   0.6405     O
H       0.0841    0.164   0.3635     H
H       0.1069   0.8734   0.0239     H
H       0.1106   0.3078   0.9275     H
C       0.1131     0.92   0.6836     C
Ni      0.1191   0.7353    0.184    Ni
H       0.1202    0.037   0.8726     H
C        0.161   0.2208   0.1227     C
C       0.1628   0.4623   0.1693     C
C       0.1674   0.8429   0.0888     C
C        0.169   0.0122    0.791     C
C        0.176   0.2282   0.5177     C
O        0.181   0.2786   0.4995     O
O        0.193   0.2704   0.1253     O
N       0.2043   0.3732   0.2686     N
H       0.2142   0.8933   0.2854     H
C        0.219   0.1803   0.3958     C
C       0.2201   0.6238    0.299     C
H       0.2259   0.4924   0.1179     H
H       0.2503   0.9195   0.6392     H
H       0.2524   0.1165   0.8735     H
C       0.2704   0.4152   0.1822     C
H       0.2887   0.5542   0.4171     H
C       0.2935   0.8641   0.2316     C
N       0.2965   0.6655   0.2145     N
H        0.301   0.1532   0.4572     H
O       0.3016   0.7618   0.9932     O
C        0.307   0.8099   0.9682     C
O       0.3189   0.7753   0.3551     O
C       0.3357   0.1964   0.2337     C
C       0.3415   0.5803   0.3415     C
C        0.344    0.025    0.715     C
C        0.358   0.8241    0.373     C
H       0.3684   0.7279   0.7323     H
Ni      0.3808   0.3055   0.3119    Ni
C       0.3847   0.1179   0.8202     C
H       0.3977   0.1646    0.177     H
H       0.4004   0.4126   0.1256     H
H       0.4035   0.9985   0.6439     H
O       0.4185   0.8349   0.8673     O
H       0.4219   0.8797   0.1838     H
H       0.4451   0.1936   0.8826     H
O        0.455   0.8436   0.4947     O
C       0.4574   0.0746   0.7266     C
H       0.4746   0.7191    0.565     H
N        0.493   0.7298    0.676     N
C       0.4938   0.6627   0.1655     C
C       0.5062   0.1627   0.8345     C
N        0.507   0.2298    0.324     N
H       0.5254   0.2191    0.435     H
C       0.5426   0.5746   0.2734     C
O        0.545   0.3436   0.5053     O
H       0.5549   0.6936   0.1174     H
H       0.5781   0.3797   0.8162     H
O       0.5815   0.3349   0.1327     O
H       0.5965   0.4985   0.3561     H
H       0.5996   0.9126   0.8744     H
H       0.6023   0.6646    0.823     H
C       0.6153   0.6179   0.1798     C
Ni      0.6192   0.8055   0.6881    Ni
H       0.6316   0.2279   0.2677     H
C        0.642   0.3241    0.627     C
C        0.656    0.525    0.285     C
C       0.6585   0.0803   0.6585     C
C       0.6643   0.6964   0.7663     C
O       0.6811   0.2753   0.6449     O
C        0.693   0.3099   0.0318     C
O       0.6984   0.2618   0.0068     O
H        0.699   0.6532   0.5428     H
N       0.7035   0.1655   0.7855     N
C       0.7065   0.3641   0.7684     C
H       0.7113   0.0542   0.5829     H
C       0.7296   0.9152   0.8178     C
H       0.7476   0.6165   0.1265     H
H       0.7497   0.4195   0.3608     H
H       0.7741   0.9924   0.8821     H
C       0.7799   0.1238    0.701     C
C        0.781   0.6803   0.6042     C
H       0.7858   0.3933   0.7146     H
N       0.7957   0.8732   0.7314     N
O        0.807   0.7704   0.8747     O
O        0.819   0.7786   0.5005     O
C        0.824   0.7282   0.4823     C
C        0.831   0.5122    0.209     C
C       0.8326   0.3429   0.9112     C
C       0.8372   0.9623   0.8307     C
C        0.839   0.7208   0.8773     C
H       0.8798    0.537   0.1274     H
Ni      0.8809   0.2353    0.816    Ni
C       0.8869     0.42   0.3164     C
H       0.8894   0.8078   0.0725     H
H       0.8931   0.3734   0.9761     H
H       0.9159    0.664   0.6365     H
O       0.9172   0.7079   0.3595     O
H       0.9223    0.124   0.6691     H
O       0.9354   0.6964   0.9866     O
H       0.9444   0.8217   0.2516     H
C       0.9602   0.4656   0.2323     C
H       0.9624   0.3462   0.3971     H
C       0.9866   0.8758   0.6651     C
N       0.9958   0.8089   0.1507     N
