data_I
_chemical_name_common  '/home/zhangsd/repos/MofS-CGCNN/ML/data/TSD/clean_cifs/HOFJIX_clean'
_cell_length_a 11.76100
_cell_length_b 27.13000
_cell_length_c 34.66700
_cell_angle_alpha 89.94140
_cell_angle_beta  90.00000
_cell_angle_gamma 90.00000
_space_group_name_H-M_alt      'P 1'


loop_
_space_group_symop_operation_xyz
  'x, y, z' 

loop_
_atom_site_label
_atom_site_fract_x
_atom_site_fract_y
_atom_site_fract_z
_atom_site_type_symbol
C        0.001   0.0634   0.3217     C
O       0.0013   0.8342   0.6861     O
O       0.0021   0.7264   0.6344     O
C       0.0025   0.1001   0.1899     C
C       0.0031    0.347   0.1817     C
C       0.0032    0.012   0.3249     C
C       0.0035   0.2408   0.5508     C
C       0.0038   0.5077   0.1672     C
C       0.0058   0.9938   0.2112     C
C       0.0072   0.8484    0.813     C
C       0.0082   0.6019   0.3132     C
C       0.0083   0.3977   0.1803     C
C       0.0084   0.5053   0.7101     C
C       0.0084   0.6523   0.3133     C
C       0.0095   0.5562   0.7133     C
C       0.0098   0.5588   0.1707     C
C       0.0112   0.9425   0.2146     C
O        0.015   0.8378   0.2176     O
C       0.0156   0.8523   0.3104     C
C       0.0164   0.9033   0.3098     C
C        0.017   0.7599   0.9918     C
O       0.0173   0.6598   0.7174     O
C       0.0184   0.2435   0.9275     C
O       0.0185   0.6621   0.1781     O
O       0.0187   0.2462    0.234     O
C       0.0187   0.7574   0.4915     C
C       0.0319   0.2711   0.4453     C
O       0.0331   0.7786    0.136     O
C        0.034   0.2474   0.1153     C
C       0.0369   0.7596   0.9489     C
C       0.0388   0.2413   0.8846     C
N       0.0438  0.24474  0.62966     N
H       0.0473   0.4277    0.273     H
C       0.0477   0.2703   0.4842     C
H       0.0478   0.5123    0.277     H
O       0.0486  0.74775  0.26755     O
C       0.0501    0.245   0.0751     C
H       0.0548   0.4914   0.1512     H
C       0.0556   0.3598   0.8035     C
C        0.058   0.7518   0.5724     C
H       0.0589   0.1702   0.1845     H
La     0.05894  0.25042  0.80051    La
H       0.0604   0.0816   0.3321     H
C       0.0628   0.7585   0.3831     C
H       0.0641   0.9961   0.3367     H
H       0.0655    0.013   0.2203     H
C       0.0668   0.4152   0.8074     C
H       0.0673   0.5758   0.1579     H
H       0.0702    0.329    0.181     H
C       0.0703   0.2688   0.9924     C
C       0.0704   0.7855   0.0566     C
N       0.0717   0.7548   0.8703     N
C       0.0722   0.1415   0.7976     C
H       0.0737   0.9278   0.2264     H
H       0.0739   0.0854   0.1906     H
C       0.0755   0.0863   0.7993     C
C       0.0756   0.7501   0.6146     C
C       0.0769   0.5185   0.8129     C
H       0.0773   0.6689   0.3115     H
H       0.0774   0.5854   0.3129     H
H       0.0779    0.413   0.1757     H
Cu     0.07892  0.24755  0.68649    Cu
N       0.0799   0.1732   0.6871     N
C        0.084   0.0702   0.6889     C
C        0.084    0.761   0.4235     C
H       0.0842   0.2879   0.4301     H
H       0.0843   0.8354   0.3091     H
H       0.0854     0.92   0.3085     H
C       0.0855     0.27   0.9522     C
C       0.0863   0.8573   0.6984     C
C       0.0863   0.9127   0.6962     C
C       0.0866     0.48   0.6887     C
C       0.0866    0.786   0.0168     C
C       0.0869   0.5736   0.8145     C
N       0.0877    0.322    0.684     N
C       0.0884   0.0151   0.6901     C
C       0.0888   0.4248   0.6864     C
La     0.08925  0.74811  0.69946    La
C       0.0898   0.9832   0.8059     C
C        0.094   0.9281   0.8085     C
C       0.0949   0.5827   0.6961     C
H       0.0961   0.2503   0.1318     H
N       0.0961   0.6766   0.8161     N
C       0.0966   0.6393   0.7004     C
Cu     0.10241  0.75091  0.81313    Cu
H       0.1058   0.2892   0.4947     H
N       0.1064    0.825   0.8122     N
C        0.111   0.2444   0.5656     C
C       0.1128   0.7805   0.5081     C
H       0.1174    0.804   0.0726     H
H       0.1179   0.2868   0.0085     H
O       0.1214  0.25273  0.29987     O
H       0.1231   0.7589   0.3658     H
O       0.1232   0.3381   0.7824     O
H       0.1235   0.2467   0.0652     H
O       0.1251   0.2634   0.8715     O
C       0.1288   0.2455   0.6046     C
C       0.1299   0.2495   0.2296     C
C       0.1317   0.7781   0.5485     C
H       0.1432   0.2895    0.942     H
H       0.1461   0.8045   0.0066     H
C       0.1463   0.7621   0.9334     C
C       0.1515   0.4403    0.788     C
O       0.1546   0.1663   0.8085     O
C       0.1564  0.74969  0.27191     C
H       0.1582   0.7641   0.4324     H
O       0.1584   0.7698   0.6297     O
C       0.1594   0.4916   0.7904     C
H       0.1636   0.7976   0.4926     H
C        0.164   0.7612   0.8939     C
O       0.1669   0.8349    0.714     O
O       0.1675  0.74685  0.20155     O
C       0.1708   0.0633   0.8153     C
O       0.1726   0.2474   0.7351     O
H       0.1728   0.2461   0.5489     H
C       0.1746    0.013   0.8182     C
C       0.1749   0.5077   0.6713     C
C       0.1766   0.9389   0.7096     C
C       0.1768   0.5586   0.6745     C
C       0.1768   0.9899   0.7068     C
O       0.1775   0.6618   0.6845     O
C       0.1792   0.1485   0.6851     C
C       0.1813   0.0978    0.686     C
O       0.1814  0.24869  0.19941     O
C       0.1844   0.3471   0.6817     C
C       0.1887   0.5994   0.8123     C
C       0.1908   0.6486   0.8136     C
C       0.1909   0.3982   0.6825     C
C       0.1938     0.25   0.2682     C
H       0.1939   0.7943   0.5591     H
C        0.197   0.9038   0.8077     C
O        0.199  0.74515  0.76585     O
C       0.2004   0.8526   0.8094     C
H        0.203   0.2468   0.6138     H
H       0.2038   0.4229   0.7732     H
O       0.2073  0.75543  0.30137     O
H       0.2084   0.7644   0.9499     H
H       0.2172   0.5083   0.7776     H
C       0.2223  0.74683  0.23277     C
H       0.2294   0.3369   0.3086     H
H       0.2316   0.0822   0.8239     H
H        0.232   0.4915   0.6577     H
H       0.2332   0.5766    0.662     H
H       0.2357   0.4217   0.3059     H
H       0.2366   0.7648   0.8837     H
H       0.2382   0.9226   0.7206     H
H       0.2384   0.0076   0.7164     H
H       0.2386   0.9985   0.8293     H
H        0.239   0.1644   0.3128     H
H       0.2395   0.9144   0.1804     H
H       0.2434   0.0821   0.3099     H
H       0.2469    0.166    0.683     H
H       0.2482   0.8294   0.1794     H
H        0.249   0.5816   0.1848     H
H        0.251   0.0816   0.6848     H
H       0.2518   0.3294   0.6794     H
H       0.2531    0.666    0.183     H
H       0.2566   0.5821   0.8099     H
H       0.2605   0.4144   0.6804     H
H        0.261   0.6644   0.8128     H
H       0.2614   0.4985   0.3293     H
H       0.2616   0.5076   0.2164     H
H       0.2618   0.4226   0.2206     H
H       0.2634   0.2648   0.3837     H
H       0.2643   0.9217   0.8059     H
H       0.2668   0.0766    0.162     H
H        0.268   0.9915   0.1577     H
H       0.2684   0.5822   0.3239     H
H       0.2706   0.8369   0.8086     H
C       0.2777  0.24683  0.73277     C
H       0.2828   0.0083   0.2776     H
H       0.2916   0.2644   0.4499     H
O       0.2927  0.25543  0.80137     O
H       0.2962   0.9229   0.2732     H
H        0.297   0.7468   0.1138     H
C       0.2996   0.3526   0.3094     C
O        0.301  0.24515  0.26585     O
C        0.303   0.4038   0.3077     C
H       0.3061   0.2943   0.0591     H
C       0.3062     0.75   0.7682     C
C       0.3091   0.8982   0.1825     C
C       0.3092   0.1486   0.3136     C
C       0.3113   0.0994   0.3123     C
C       0.3156   0.8471   0.1817     C
O       0.3186  0.74869  0.69941     O
C       0.3187   0.5978    0.186     C
C       0.3208   0.6485   0.1851     C
O       0.3225   0.1618   0.1845     O
C       0.3232   0.0586   0.1745     C
C       0.3232   0.4899   0.2068     C
C       0.3234   0.4389   0.2096     C
C       0.3251   0.0077   0.1713     C
C       0.3254    0.513   0.3182     C
H       0.3272   0.7461   0.0489     H
O       0.3274   0.7474   0.2351     O
C       0.3292   0.5633   0.3153     C
O       0.3325  0.24685  0.70155     O
O       0.3331   0.3349    0.214     O
C        0.336   0.2612   0.3939     C
H       0.3364   0.2976   0.9926     H
C       0.3406   0.9916   0.2904     C
O       0.3416   0.2698   0.1297     O
H       0.3418   0.2641   0.9324     H
C       0.3436  0.24969  0.77191     C
O       0.3454   0.6663   0.3085     O
C       0.3485   0.9403    0.288     C
C       0.3537   0.2621   0.4334     C
H       0.3539   0.3045   0.5066     H
H       0.3568   0.7895    0.442     H
C       0.3683   0.2781   0.0485     C
C       0.3701   0.7495   0.7296     C
C       0.3712   0.7455   0.1046     C
O       0.3749   0.7634   0.3715     O
H       0.3765   0.7467   0.5652     H
O       0.3768   0.8381   0.2824     O
H       0.3769   0.2589   0.8658     H
O       0.3786  0.75273  0.79987     O
H       0.3821   0.7868   0.5085     H
H       0.3826    0.304   0.5726     H
C       0.3872   0.2805   0.0081     C
C        0.389   0.7444   0.0656     C
N       0.3936    0.325   0.3122     N
H       0.3942   0.7892   0.9947     H
Cu     0.39759  0.25091  0.31313    Cu
C       0.4034   0.1393   0.2004     C
N       0.4039   0.1766   0.3161     N
H       0.4039   0.7503   0.6318     H
C       0.4051   0.0827   0.1961     C
C        0.406   0.4281   0.3085     C
C       0.4102   0.4832   0.3059     C
La     0.41075  0.24811  0.19946    La
C       0.4112   0.9248   0.1864     C
C       0.4116   0.5151   0.1901     C
N       0.4123    0.822    0.184     N
C       0.4131   0.0736   0.3145     C
C       0.4134    0.286   0.5168     C
C       0.4134     0.98   0.1887     C
C       0.4137   0.3573   0.1984     C
C       0.4137   0.4127   0.1962     C
C       0.4145     0.77   0.4522     C
H       0.4146     0.42   0.8085     H
H       0.4157   0.3354   0.8091     H
H       0.4158   0.7879   0.9301     H
C        0.416    0.261   0.9235     C
C        0.416   0.5702   0.1889     C
N       0.4201   0.6732   0.1871     N
Cu     0.42108  0.74755  0.18649    Cu
H       0.4221    0.913   0.6757     H
H       0.4226   0.0854   0.8129     H
H       0.4227   0.1689   0.8115     H
C       0.4231   0.0185   0.3129     C
C       0.4244   0.2501   0.1146     C
C       0.4245   0.5863   0.2993     C
H       0.4261   0.5854   0.6906     H
H       0.4263   0.4278   0.7264     H
C       0.4278   0.6415   0.2976     C
N       0.4283   0.2548   0.3703     N
C       0.4296   0.2855   0.5566     C
C       0.4297   0.7688   0.4924     C
H       0.4298    0.829    0.681     H
H       0.4327   0.0758   0.6579     H
C       0.4332   0.9152   0.3074     C
H       0.4345    0.513   0.7203     H
H       0.4359   0.4961   0.8367     H
C       0.4372   0.2585   0.8831     C
H       0.4396   0.5816   0.8321     H
La     0.44106  0.75042  0.30051    La
H       0.4411   0.6702   0.6845     H
C        0.442   0.2518   0.0724     C
C       0.4444   0.8598   0.3035     C
H       0.4452   0.9914   0.6512     H
C       0.4499    0.745   0.5751     C
O       0.4514  0.24775  0.76755     O
H       0.4522   0.0123    0.777     H
C       0.4523   0.7703   0.9842     C
H       0.4527   0.9277    0.773     H
N       0.4562  0.74474  0.12966     N
C       0.4612   0.7413   0.3846     C
C       0.4631   0.2596   0.4489     C
C        0.466   0.7474   0.6153     C
O       0.4669   0.2786    0.636     O
C       0.4681   0.7711   0.9453     C
C       0.4813   0.2574   0.9915     C
O       0.4813   0.7462    0.734     O
O       0.4815   0.1621   0.6781     O
C       0.4816   0.7435   0.4275     C
O       0.4827   0.1598   0.2174     O
C        0.483   0.2599   0.4918     C
C       0.4836   0.4033   0.8098     C
C       0.4844   0.3523   0.8104     C
O        0.485   0.3378   0.7176     O
C       0.4888   0.4425   0.7146     C
C       0.4902   0.0588   0.6707     C
C       0.4905   0.0562   0.2133     C
C       0.4916   0.0053   0.2101     C
C       0.4916   0.1523   0.8133     C
C       0.4917   0.8977   0.6803     C
C       0.4918   0.1019   0.8132     C
C       0.4928   0.3484    0.313     C
C       0.4942   0.4938   0.7112     C
C       0.4962   0.0077   0.6672     C
C       0.4965   0.7408   0.0508     C
C       0.4968    0.512   0.8249     C
C       0.4969    0.847   0.6817     C
C       0.4975   0.6001   0.6899     C
O       0.4979   0.2264   0.1344     O
O       0.4987   0.3342   0.1861     O
C        0.499   0.5634   0.8217     C
C        0.501   0.4366   0.1783     C
O       0.5013   0.6658   0.8139     O
O       0.5021   0.7736   0.8656     O
C       0.5025   0.3999   0.3101     C
C       0.5031    0.153   0.3183     C
C       0.5032    0.488   0.1751     C
C       0.5035   0.2592   0.9492     C
C       0.5038   0.9923   0.3328     C
C       0.5058   0.5062   0.2888     C
C       0.5072   0.6516    0.687     C
C       0.5082   0.8981   0.1868     C
C       0.5083   0.1023   0.3197     C
C       0.5084   0.8477   0.1867     C
C       0.5084   0.9947   0.7899     C
C       0.5095   0.9438   0.7867     C
C       0.5098   0.9412   0.3293     C
C       0.5112   0.5575   0.2854     C
O        0.515   0.6622   0.2824     O
C       0.5156   0.6477   0.1896     C
C       0.5164   0.5967   0.1902     C
C        0.517   0.7401   0.5082     C
O       0.5173   0.8402   0.7826     O
C       0.5184   0.2565   0.5725     C
O       0.5185   0.8379   0.3219     O
O       0.5187   0.2538    0.266     O
C       0.5187   0.7426   0.0085     C
C       0.5319   0.2289   0.0547     C
O       0.5331   0.7214    0.364     O
C        0.534   0.2526   0.3847     C
C       0.5369   0.7404   0.5511     C
C       0.5388   0.2587   0.6154     C
N       0.5438  0.25526  0.87034     N
H       0.5473   0.0723    0.227     H
C       0.5477   0.2297   0.0158     C
H       0.5478   0.9877    0.223     H
O       0.5486  0.75225  0.23245     O
C       0.5501    0.255   0.4249     C
H       0.5548   0.0086   0.3488     H
C       0.5556   0.1402   0.6965     C
C        0.558   0.7482   0.9276     C
H       0.5589   0.3298   0.3155     H
La     0.55894  0.24958  0.69949    La
H       0.5604   0.4184   0.1679     H
C       0.5628   0.7415   0.1169     C
H       0.5641   0.5039   0.1633     H
H       0.5655    0.487   0.2797     H
C       0.5668   0.0848   0.6926     C
H       0.5673   0.9242   0.3421     H
H       0.5702    0.171    0.319     H
C       0.5703   0.2312   0.5076     C
C       0.5704   0.7145   0.4434     C
N       0.5717   0.7452   0.6297     N
C       0.5722   0.3585   0.7024     C
H       0.5737   0.5722   0.2736     H
H       0.5739   0.4146   0.3094     H
C       0.5755   0.4137   0.7007     C
C       0.5756   0.7499   0.8854     C
C       0.5769   0.9815   0.6871     C
H       0.5773   0.8311   0.1885     H
H       0.5774   0.9146   0.1871     H
H       0.5779    0.087   0.3243     H
Cu     0.57892  0.25245  0.81351    Cu
N       0.5799   0.3268   0.8129     N
C        0.584   0.4298   0.8111     C
C        0.584    0.739   0.0765     C
H       0.5842   0.2121   0.0699     H
H       0.5843   0.6646   0.1909     H
H       0.5854     0.58   0.1915     H
C       0.5855     0.23   0.5478     C
C       0.5863   0.5873   0.8038     C
C       0.5863   0.6427   0.8016     C
C       0.5866     0.02   0.8113     C
C       0.5866    0.714   0.4832     C
C       0.5869   0.9264   0.6855     C
N       0.5877    0.178    0.816     N
C       0.5884   0.4849   0.8099     C
C       0.5888   0.0752   0.8136     C
La     0.58925  0.75189  0.80054    La
C       0.5898   0.5168   0.6941     C
C        0.594   0.5719   0.6915     C
C       0.5949   0.9173   0.8039     C
H       0.5961   0.2497   0.3682     H
N       0.5961   0.8234   0.6839     N
C       0.5966   0.8607   0.7996     C
Cu     0.60241  0.74909  0.68687    Cu
H       0.6058   0.2108   0.0053     H
N       0.6064    0.675   0.6878     N
C        0.611   0.2556   0.9344     C
C       0.6128   0.7195   0.9919     C
H       0.6174    0.696   0.4274     H
H       0.6179   0.2132   0.4915     H
O       0.6214  0.24727  0.20013     O
H       0.6231   0.7411   0.1342     H
O       0.6232   0.1619   0.7176     O
H       0.6235   0.2533   0.4348     H
O       0.6251   0.2366   0.6285     O
C       0.6288   0.2545   0.8954     C
C       0.6299   0.2505   0.2704     C
C       0.6317   0.7219   0.9515     C
H       0.6432   0.2105    0.558     H
H       0.6461   0.6955   0.4934     H
C       0.6463   0.7379   0.5666     C
C       0.6515   0.0597    0.712     C
O       0.6546   0.3337   0.6915     O
C       0.6564  0.75031  0.22809     C
H       0.6582   0.7359   0.0676     H
O       0.6584   0.7302   0.8703     O
C       0.6594   0.0084   0.7096     C
H       0.6636   0.7024   0.0074     H
C        0.664   0.7388   0.6061     C
O       0.6669   0.6651    0.786     O
O       0.6675  0.75315  0.29845     O
C       0.6708   0.4367   0.6847     C
O       0.6726   0.2526   0.7649     O
H       0.6728   0.2539   0.9511     H
C       0.6746    0.487   0.6818     C
C       0.6749   0.9923   0.8287     C
C       0.6766   0.5611   0.7904     C
C       0.6768   0.5101   0.7932     C
C       0.6768   0.9414   0.8255     C
O       0.6775   0.8382   0.8155     O
C       0.6792   0.3515   0.8149     C
C       0.6813   0.4022    0.814     C
O       0.6814  0.25131  0.30059     O
C       0.6844   0.1529   0.8183     C
C       0.6887   0.9006   0.6877     C
C       0.6908   0.8514   0.6864     C
C       0.6909   0.1018   0.8175     C
C       0.6938     0.25   0.2318     C
H       0.6939   0.7057   0.9409     H
C        0.697   0.5962   0.6923     C
O        0.699  0.75485  0.73415     O
C       0.7004   0.6474   0.6906     C
H        0.703   0.2532   0.8862     H
H       0.7038   0.0771   0.7268     H
O       0.7073  0.74457  0.19863     O
H       0.7084   0.7356   0.5501     H
H       0.7172   0.9917   0.7224     H
C       0.7223  0.75317  0.26723     C
H       0.7294   0.1631   0.1914     H
H       0.7316   0.4178   0.6761     H
H        0.732   0.0085   0.8423     H
H       0.7332   0.9234    0.838     H
H       0.7357   0.0783   0.1941     H
H       0.7366   0.7352   0.6163     H
H       0.7382   0.5774   0.7794     H
H       0.7384   0.4924   0.7836     H
H       0.7386   0.5015   0.6707     H
H        0.739   0.3356   0.1872     H
H       0.7395   0.5856   0.3196     H
H       0.7434   0.4179   0.1901     H
H       0.7469    0.334    0.817     H
H       0.7482   0.6706   0.3206     H
H        0.749   0.9184   0.3152     H
H        0.751   0.4184   0.8152     H
H       0.7518   0.1706   0.8206     H
H       0.7531    0.834    0.317     H
H       0.7566   0.9179   0.6901     H
H       0.7605   0.0856   0.8196     H
H        0.761   0.8356   0.6872     H
H       0.7614   0.0015   0.1707     H
H       0.7616   0.9924   0.2836     H
H       0.7618   0.0774   0.2794     H
H       0.7634   0.2352   0.1163     H
H       0.7643   0.5783   0.6941     H
H       0.7668   0.4234    0.338     H
H        0.768   0.5085   0.3423     H
H       0.7684   0.9178   0.1761     H
H       0.7706   0.6631   0.6914     H
C       0.7777  0.25317  0.76723     C
H       0.7828   0.4917   0.2224     H
H       0.7916   0.2356   0.0501     H
O       0.7927  0.24457  0.69863     O
H       0.7962   0.5771   0.2268     H
H        0.797   0.7532   0.3862     H
C       0.7996   0.1474   0.1906     C
O        0.801  0.25485  0.23415     O
C        0.803   0.0962   0.1923     C
H       0.8061   0.2057   0.4409     H
C       0.8062     0.75   0.7318     C
C       0.8091   0.6018   0.3175     C
C       0.8092   0.3514   0.1864     C
C       0.8113   0.4006   0.1877     C
C       0.8156   0.6529   0.3183     C
O       0.8186  0.75131  0.80059     O
C       0.8187   0.9022    0.314     C
C       0.8208   0.8515   0.3149     C
O       0.8225   0.3382   0.3155     O
C       0.8232   0.0101   0.2932     C
C       0.8232   0.4414   0.3255     C
C       0.8234   0.0611   0.2904     C
C       0.8251   0.4923   0.3287     C
C       0.8254    0.987   0.1818     C
H       0.8272   0.7539   0.4511     H
O       0.8274   0.7526   0.2649     O
C       0.8292   0.9367   0.1847     C
O       0.8325  0.25315  0.79845     O
O       0.8331   0.1651    0.286     O
C        0.836   0.2388   0.1061     C
H       0.8364   0.2024   0.5074     H
C       0.8406   0.5084   0.2096     C
O       0.8416   0.2302   0.3703     O
H       0.8418   0.2359   0.5676     H
C       0.8436  0.25031  0.72809     C
O       0.8454   0.8337   0.1915     O
C       0.8485   0.5597    0.212     C
C       0.8537   0.2379   0.0666     C
H       0.8539   0.1955   0.9934     H
H       0.8568   0.7105    0.058     H
C       0.8683   0.2219   0.4515     C
C       0.8701   0.7505   0.7704     C
C       0.8712   0.7545   0.3954     C
O       0.8749   0.7366   0.1285     O
H       0.8765   0.7533   0.9348     H
O       0.8768   0.6619   0.2176     O
H       0.8769   0.2411   0.6342     H
O       0.8786  0.74727  0.70013     O
H       0.8821   0.7132   0.9915     H
H       0.8826    0.196   0.9274     H
C       0.8872   0.2195   0.4919     C
C        0.889   0.7556   0.4344     C
N       0.8936    0.175   0.1878     N
H       0.8942   0.7108   0.5053     H
Cu     0.89759  0.24909  0.18687    Cu
C       0.9034   0.3607   0.2996     C
N       0.9039   0.3234   0.1839     N
H       0.9039   0.7497   0.8682     H
C       0.9051   0.4173   0.3039     C
C        0.906   0.0719   0.1915     C
C       0.9102   0.0168   0.1941     C
La     0.91075  0.25189  0.30054    La
C       0.9112   0.5752   0.3136     C
C       0.9116   0.9849   0.3099     C
N       0.9123    0.678    0.316     N
C       0.9131   0.4264   0.1855     C
C       0.9134    0.214   0.9832     C
C       0.9134     0.52   0.3113     C
C       0.9137   0.0873   0.3038     C
C       0.9137   0.1427   0.3016     C
C       0.9145     0.73   0.0478     C
H       0.9146     0.08   0.6915     H
H       0.9157   0.1646   0.6909     H
H       0.9158   0.7121   0.5699     H
C        0.916    0.239   0.5765     C
C        0.916   0.9298   0.3111     C
N       0.9201   0.8268   0.3129     N
Cu     0.92108  0.75245  0.31351    Cu
H       0.9221    0.587   0.8243     H
H       0.9226   0.4146   0.6871     H
H       0.9227   0.3311   0.6885     H
C       0.9231   0.4815   0.1871     C
C       0.9244   0.2499   0.3854     C
C       0.9245   0.9137   0.2007     C
H       0.9261   0.9146   0.8094     H
H       0.9263   0.0722   0.7736     H
C       0.9278   0.8585   0.2024     C
N       0.9283   0.2452   0.1297     N
C       0.9296   0.2145   0.9434     C
C       0.9297   0.7312   0.0076     C
H       0.9298    0.671    0.819     H
H       0.9327   0.4242   0.8421     H
C       0.9332   0.5848   0.1926     C
H       0.9345    0.987   0.7797     H
H       0.9359   0.0039   0.6633     H
C       0.9372   0.2415   0.6169     C
H       0.9396   0.9184   0.6679     H
La     0.94106  0.74958  0.19949    La
H       0.9411   0.8298   0.8155     H
C        0.942   0.2482   0.4276     C
C       0.9444   0.6402   0.1965     C
H       0.9452   0.5086   0.8488     H
C       0.9499    0.755   0.9249     C
O       0.9514  0.25225  0.73245     O
H       0.9522   0.4877    0.723     H
C       0.9523   0.7297   0.5158     C
H       0.9527   0.5723    0.727     H
N       0.9562  0.75526  0.37034     N
C       0.9612   0.7587   0.1154     C
C       0.9631   0.2404   0.0511     C
C        0.966   0.7526   0.8847     C
O       0.9669   0.2214    0.864     O
C       0.9681   0.7289   0.5547     C
C       0.9813   0.2426   0.5085     C
O       0.9813   0.7538    0.766     O
O       0.9815   0.3379   0.8219     O
C       0.9816   0.7565   0.0725     C
O       0.9827   0.3402   0.2826     O
C        0.983   0.2401   0.0082     C
C       0.9836   0.0967   0.6902     C
C       0.9844   0.1477   0.6896     C
O        0.985   0.1622   0.7824     O
C       0.9888   0.0575   0.7854     C
C       0.9902   0.4412   0.8293     C
C       0.9905   0.4438   0.2867     C
C       0.9916   0.3477   0.6867     C
C       0.9916   0.4947   0.2899     C
C       0.9917   0.6023   0.8197     C
C       0.9918   0.3981   0.6868     C
C       0.9928   0.1516    0.187     C
C       0.9942   0.0062   0.7888     C
C       0.9962   0.4923   0.8328     C
C       0.9965   0.7592   0.4492     C
C       0.9968    0.988   0.6751     C
C       0.9969    0.653   0.8183     C
C       0.9975   0.8999   0.8101     C
O       0.9979   0.2736   0.3656     O
O       0.9987   0.1658   0.3139     O
C        0.999   0.9366   0.6783     C
