data_I
_chemical_name_common  '/home/zhangsd/repos/MofS-CGCNN/ML/data/TSD/clean_cifs/HOFSUS_clean'
_cell_length_a  8.90200
_cell_length_b 11.88700
_cell_length_c 14.75700
_cell_angle_alpha 90.00000
_cell_angle_beta  90.00000
_cell_angle_gamma 90.00000
_space_group_name_H-M_alt      'P 1'


loop_
_space_group_symop_operation_xyz
  'x, y, z' 

loop_
_atom_site_label
_atom_site_fract_x
_atom_site_fract_y
_atom_site_fract_z
_atom_site_type_symbol
N       0.0005   0.6798  0.55729     N
O       0.0078  0.46908  0.38229     O
H       0.0242    0.015   0.1544     H
C       0.0272    0.129  0.02307     C
C       0.0421   0.5199  0.45697     C
H        0.073   0.2397   0.7699     H
C        0.077   0.2763  0.94655     C
C       0.0859   0.3161   0.7814     C
C       0.0869   0.3547  0.86916     C
H       0.0981   0.5008   0.9399     H
C       0.1013   0.4706   0.8818     C
H       0.1036   0.3622   0.6513     H
C       0.1041   0.3905   0.7101     C
C       0.1202   0.5393   0.8087     C
N       0.1226   0.5021  0.72209     N
C       0.1227   0.1966  0.07313     C
H       0.1321   0.6159   0.8189     H
O       0.1336  0.48051  0.51193     O
N       0.1565    0.291  0.02375     N
O       0.1617   0.0905  0.20582     O
C       0.1849   0.1835  0.16598     C
Zn     0.20358  0.60087  0.61256    Zn
O       0.2465  0.73624  0.69934     O
O       0.2535  0.26376  0.19934     O
Zn     0.29642  0.39913  0.11256    Zn
C       0.3151   0.8165  0.66598     C
O       0.3383   0.9095  0.70582     O
N       0.3435    0.709  0.52375     N
O       0.3664  0.51949  0.01193     O
H       0.3679   0.3841   0.3189     H
C       0.3773   0.8034  0.57313     C
N       0.3774   0.4979  0.22209     N
C       0.3798   0.4607   0.3087     C
C       0.3959   0.6095   0.2101     C
H       0.3964   0.6378   0.1513     H
C       0.3987   0.5294   0.3818     C
H       0.4019   0.4992   0.4399     H
C       0.4131   0.6453  0.36916     C
C       0.4141   0.6839   0.2814     C
C        0.423   0.7237  0.44655     C
H        0.427   0.7603   0.2699     H
C       0.4579   0.4801  0.95697     C
C       0.4728    0.871  0.52307     C
H       0.4758    0.985   0.6544     H
O       0.4922  0.53092  0.88229     O
N       0.4995   0.3202  0.05729     N
N       0.5005   0.8202  0.44271     N
O       0.5078  0.03092  0.61771     O
H       0.5242    0.485   0.8456     H
C       0.5272    0.371  0.97693     C
C       0.5421   0.9801  0.54303     C
H        0.573   0.2603   0.2301     H
C        0.577   0.2237  0.05345     C
C       0.5859   0.1839   0.2186     C
C       0.5869   0.1453  0.13084     C
H       0.5981   0.9992   0.0601     H
C       0.6013   0.0294   0.1182     C
H       0.6036   0.1378   0.3487     H
C       0.6041   0.1095   0.2899     C
C       0.6202   0.9607   0.1913     C
N       0.6226   0.9979  0.27791     N
C       0.6227   0.3034  0.92687     C
H       0.6321   0.8841   0.1811     H
O       0.6336  0.01949  0.48807     O
N       0.6565    0.209  0.97625     N
O       0.6617   0.4095  0.79418     O
C       0.6849   0.3165  0.83402     C
Zn     0.70358  0.89913  0.38744    Zn
O       0.7465  0.76376  0.30066     O
O       0.7535  0.23624  0.80066     O
Zn     0.79642  0.10087  0.88744    Zn
C       0.8151   0.6835  0.33402     C
O       0.8383   0.5905  0.29418     O
N       0.8435    0.791  0.47625     N
O       0.8664  0.98051  0.98807     O
H       0.8679   0.1159   0.6811     H
C       0.8773   0.6966  0.42687     C
N       0.8774   0.0021  0.77791     N
C       0.8798   0.0393   0.6913     C
C       0.8959   0.8905   0.7899     C
H       0.8964   0.8622   0.8487     H
C       0.8987   0.9706   0.6182     C
H       0.9019   0.0008   0.5601     H
C       0.9131   0.8547  0.63084     C
C       0.9141   0.8161   0.7186     C
C        0.923   0.7763  0.55345     C
H        0.927   0.7397   0.7301     H
C       0.9579   0.0199  0.04303     C
C       0.9728    0.629  0.47693     C
H       0.9758    0.515   0.3456     H
O       0.9922  0.96908  0.11771     O
N       0.9995   0.1798  0.94271     N
