data_I
_chemical_name_common  '/home/zhangsd/repos/MofS-CGCNN/ML/data/TSD/clean_cifs/HOGPUQ_clean'
_cell_length_a 18.89910
_cell_length_b 15.52290
_cell_length_c  9.07020
_cell_angle_alpha 90.00000
_cell_angle_beta  90.00000
_cell_angle_gamma 90.00000
_space_group_name_H-M_alt      'P 1'


loop_
_space_group_symop_operation_xyz
  'x, y, z' 

loop_
_atom_site_label
_atom_site_fract_x
_atom_site_fract_y
_atom_site_fract_z
_atom_site_type_symbol
C          0.0   0.1537   0.1871     C
C          0.0   0.8463   0.6871     C
C        0.007   0.5067   0.4997     C
C       0.0138   0.1556   0.3566     C
H       0.0168    0.618   0.6127     H
H       0.0256   0.3965   0.3865     H
O       0.0404   0.8376   0.9346     O
C       0.0428   0.5747   0.5669     C
C       0.0483   0.4426   0.4318     C
O         0.05   0.1778   0.1069     O
O       0.0595   0.8728   0.6502     O
C       0.0712   0.4999   0.0035     C
O        0.077   0.1497   0.3953     O
H       0.0779   0.6291   0.9759     H
H       0.0925   0.3738   0.0305     H
C       0.1049   0.5796   0.9885     C
C       0.1136   0.4276   0.0222     C
C       0.1159   0.5796   0.5673     C
O       0.1183   0.7141   0.6949     O
C        0.122   0.4458   0.4304     C
O       0.1283   0.3092   0.3161     O
O        0.145   0.9993   0.8177     O
Er     0.15307  0.84744  0.81714    Er
C       0.1541    0.652    0.645     C
C       0.1547   0.0414   0.9336     C
C        0.155   0.5143   0.5006     C
O      0.15642   0.0278   0.1987     O
C       0.1567   0.9869   0.0777     C
O       0.1593   0.9074   0.0628     O
O       0.1612   0.1201   0.9472     O
C       0.1634   0.3735   0.3635     C
Er      0.1655  0.17774  0.20479    Er
O       0.1768   0.7365   0.9721     O
C       0.1789   0.5858   0.9921     C
C       0.1874   0.4339   0.0287     C
O       0.1982    0.284   0.0518     O
H       0.2042   0.5167   0.5031     H
O       0.2057   0.8642   0.5882     O
C       0.2141   0.6694    0.962     C
C       0.2193   0.5117   0.0101     C
O       0.2199   0.6436   0.6574     O
O        0.221   0.1697   0.4311     O
O       0.2288   0.3795   0.3596     O
C       0.2307    0.354    0.057     C
H       0.2316   0.0153   0.5094     H
H       0.2684   0.5153   0.0094     H
C       0.2693    0.854    0.557     C
O       0.2712   0.8795   0.8596     O
O        0.279   0.6697   0.9311     O
O       0.2801   0.1436   0.1574     O
C       0.2807   0.0117   0.5101     C
C       0.2859   0.1694    0.462     C
O       0.2943   0.3642   0.0882     O
H       0.2958   0.0167   0.0031     H
O       0.3018    0.784   0.5518     O
C       0.3126   0.9339   0.5287     C
C       0.3211   0.0858   0.4921     C
O       0.3232   0.2365   0.4721     O
Er      0.3345  0.67774  0.70479    Er
C       0.3366   0.8735   0.8635     C
O       0.3388   0.6201   0.4472     O
O       0.3407   0.4074   0.5628     O
C       0.3433   0.4869   0.5777     C
O      0.34358   0.5278   0.6987     O
C        0.345   0.0143   0.0006     C
C       0.3453   0.5414   0.4336     C
C       0.3459    0.152    0.145     C
Er     0.34693  0.34744  0.31714    Er
O        0.355   0.4993   0.3177     O
O       0.3717   0.8092   0.8161     O
C        0.378   0.9458   0.9304     C
O       0.3817   0.2141   0.1949     O
C       0.3841   0.0796   0.0673     C
C       0.3864   0.9276   0.5222     C
C       0.3951   0.0796   0.4885     C
H       0.4075   0.8738   0.5305     H
H       0.4221   0.1291   0.4759     H
O        0.423   0.6497   0.8953     O
C       0.4288   0.9999   0.5035     C
O       0.4405   0.3728   0.1502     O
O         0.45   0.6778   0.6069     O
C       0.4517   0.9426   0.9318     C
C       0.4572   0.0747   0.0669     C
O       0.4596   0.3376   0.4346     O
H       0.4744   0.8965   0.8865     H
H       0.4832    0.118   0.1127     H
C       0.4862   0.6556   0.8566     C
C        0.493   0.0067   0.9997     C
C          0.5   0.3463   0.1871     C
C          0.5   0.6537   0.6871     C
C        0.507   0.9933   0.4997     C
C       0.5138   0.3444   0.3566     C
H       0.5168    0.882   0.6127     H
H       0.5256   0.1035   0.3865     H
O       0.5404   0.6624   0.9346     O
C       0.5428   0.9253   0.5669     C
C       0.5483   0.0574   0.4318     C
O         0.55   0.3222   0.1069     O
O       0.5595   0.6272   0.6502     O
C       0.5712   0.0001   0.0035     C
O        0.577   0.3503   0.3953     O
H       0.5779   0.8709   0.9759     H
H       0.5925   0.1262   0.0305     H
C       0.6049   0.9204   0.9885     C
C       0.6136   0.0724   0.0222     C
C       0.6159   0.9204   0.5673     C
O       0.6183   0.7859   0.6949     O
C        0.622   0.0542   0.4304     C
O       0.6283   0.1908   0.3161     O
O        0.645   0.5007   0.8177     O
Er     0.65307  0.65256  0.81714    Er
C       0.6541    0.848    0.645     C
C       0.6547   0.4586   0.9336     C
C        0.655   0.9857   0.5006     C
O      0.65642   0.4722   0.1987     O
C       0.6567   0.5131   0.0777     C
O       0.6593   0.5926   0.0628     O
O       0.6612   0.3799   0.9472     O
C       0.6634   0.1265   0.3635     C
Er      0.6655  0.32226  0.20479    Er
O       0.6768   0.7635   0.9721     O
C       0.6789   0.9142   0.9921     C
C       0.6874   0.0661   0.0287     C
O       0.6982    0.216   0.0518     O
H       0.7042   0.9833   0.5031     H
O       0.7057   0.6358   0.5882     O
C       0.7141   0.8306    0.962     C
C       0.7193   0.9883   0.0101     C
O       0.7199   0.8564   0.6574     O
O        0.721   0.3303   0.4311     O
O       0.7288   0.1205   0.3596     O
C       0.7307    0.146    0.057     C
H       0.7316   0.4847   0.5094     H
H       0.7684   0.9847   0.0094     H
C       0.7693    0.646    0.557     C
O       0.7712   0.6205   0.8596     O
O        0.779   0.8303   0.9311     O
O       0.7801   0.3564   0.1574     O
C       0.7807   0.4883   0.5101     C
C       0.7859   0.3306    0.462     C
O       0.7943   0.1358   0.0882     O
H       0.7958   0.4833   0.0031     H
O       0.8018    0.716   0.5518     O
C       0.8126   0.5661   0.5287     C
C       0.8211   0.4142   0.4921     C
O       0.8232   0.2635   0.4721     O
Er      0.8345  0.82226  0.70479    Er
C       0.8366   0.6265   0.8635     C
O       0.8388   0.8799   0.4472     O
O       0.8407   0.0926   0.5628     O
C       0.8433   0.0131   0.5777     C
O      0.84358   0.9722   0.6987     O
C        0.845   0.4857   0.0006     C
C       0.8453   0.9586   0.4336     C
C       0.8459    0.348    0.145     C
Er     0.84693  0.15256  0.31714    Er
O        0.855   0.0007   0.3177     O
O       0.8717   0.6908   0.8161     O
C        0.878   0.5542   0.9304     C
O       0.8817   0.2859   0.1949     O
C       0.8841   0.4204   0.0673     C
C       0.8864   0.5724   0.5222     C
C       0.8951   0.4204   0.4885     C
H       0.9075   0.6262   0.5305     H
H       0.9221   0.3709   0.4759     H
O        0.923   0.8503   0.8953     O
C       0.9288   0.5001   0.5035     C
O       0.9405   0.1272   0.1502     O
O         0.95   0.8222   0.6069     O
C       0.9517   0.5574   0.9318     C
C       0.9572   0.4253   0.0669     C
O       0.9596   0.1624   0.4346     O
H       0.9744   0.6035   0.8865     H
H       0.9832    0.382   0.1127     H
C       0.9862   0.8444   0.8566     C
C        0.993   0.4933   0.9997     C
