data_I
_chemical_name_common  '/home/zhangsd/repos/MofS-CGCNN/ML/data/TSD/clean_cifs/HOGQEB_clean'
_cell_length_a 19.11600
_cell_length_b 15.71400
_cell_length_c  9.06900
_cell_angle_alpha 90.00000
_cell_angle_beta  90.00000
_cell_angle_gamma 90.00000
_space_group_name_H-M_alt      'P 1'


loop_
_space_group_symop_operation_xyz
  'x, y, z' 

loop_
_atom_site_label
_atom_site_fract_x
_atom_site_fract_y
_atom_site_fract_z
_atom_site_type_symbol
C          0.0   0.1522   0.1859     C
C          0.0   0.8478   0.6859     C
C       0.0062   0.5062   0.5018     C
C       0.0141   0.1542   0.3562     C
H        0.016   0.6175    0.611     H
H       0.0256   0.3981   0.3887     H
O       0.0389     0.84   0.9361     O
C       0.0418   0.5741   0.5673     C
C       0.0475   0.4438   0.4346     C
O       0.0491   0.1767   0.1056     O
O       0.0584   0.8746   0.6489     O
C       0.0707   0.5002   0.0048     C
O       0.0768   0.1499   0.3951     O
H       0.0771   0.6276   0.9815     H
H        0.092   0.3758   0.0294     H
C       0.1041   0.5787   0.9912     C
C       0.1129   0.4291   0.0212     C
C       0.1133   0.5789    0.569     C
O       0.1144   0.7135   0.6903     O
C       0.1204   0.4476   0.4341     C
O       0.1273    0.312   0.3203     O
O       0.1462   0.0016    0.819     O
C       0.1505   0.6526   0.6447     C
C       0.1526   0.5161   0.5026     C
Sm      0.1538  0.84714  0.81565    Sm
C        0.156   0.0414   0.9341     C
C       0.1581   0.9881   0.0774     C
O       0.1583   0.0272   0.1982     O
O       0.1593   0.9094   0.0636     O
C       0.1617    0.376   0.3649     C
O       0.1638   0.1191   0.9484     O
Sm     0.16706   0.1794  0.20644    Sm
O       0.1752   0.7345    0.978     O
C       0.1766   0.5856   0.9918     C
C       0.1849   0.4349   0.0259     C
O       0.1977   0.2875   0.0468     O
H       0.2011   0.5197   0.5037     H
O       0.2073   0.8664   0.5798     O
C       0.2119   0.6689   0.9677     C
O       0.2156   0.6473   0.6573     O
C       0.2175   0.5135   0.0101     C
O       0.2236   0.1691   0.4383     O
O       0.2265   0.3825   0.3605     O
C       0.2285   0.3576   0.0526     C
H        0.234   0.0176   0.5118     H
H        0.266   0.5176   0.0118     H
C       0.2715   0.8576   0.5526     C
O       0.2735   0.8825   0.8605     O
O       0.2764   0.6691   0.9383     O
C       0.2825   0.0135   0.5101     C
O       0.2844   0.1473   0.1573     O
C       0.2881   0.1689   0.4677     C
O       0.2927   0.3664   0.0798     O
H       0.2989   0.0197   0.0037     H
O       0.3023   0.7875   0.5468     O
C       0.3151   0.9349   0.5259     C
C       0.3234   0.0856   0.4918     C
O       0.3248   0.2345    0.478     O
Sm     0.33294   0.6794  0.70644    Sm
O       0.3362   0.6191   0.4484     O
C       0.3383    0.876   0.8649     C
O       0.3407   0.4094   0.5636     O
O       0.3417   0.5272   0.6982     O
C       0.3419   0.4881   0.5774     C
C        0.344   0.5414   0.4341     C
Sm      0.3462  0.34714  0.31565    Sm
C       0.3474   0.0161   0.0026     C
C       0.3495   0.1526   0.1447     C
O       0.3538   0.5016    0.319     O
O       0.3727    0.812   0.8203     O
C       0.3796   0.9476   0.9341     C
O       0.3856   0.2135   0.1903     O
C       0.3867   0.0789    0.069     C
C       0.3871   0.9291   0.5212     C
C       0.3959   0.0787   0.4912     C
H        0.408   0.8758   0.5294     H
H       0.4229   0.1276   0.4815     H
O       0.4232   0.6499   0.8951     O
C       0.4293   0.0002   0.5048     C
O       0.4416   0.3746   0.1489     O
O       0.4509   0.6767   0.6056     O
C       0.4525   0.9438   0.9346     C
C       0.4582   0.0741   0.0673     C
O       0.4611     0.34   0.4361     O
H       0.4744   0.8981   0.8887     H
H        0.484   0.1175    0.111     H
C       0.4859   0.6542   0.8562     C
C       0.4938   0.0062   0.0018     C
C          0.5   0.3478   0.1859     C
C          0.5   0.6522   0.6859     C
C       0.5062   0.9938   0.5018     C
C       0.5141   0.3458   0.3562     C
H        0.516   0.8825    0.611     H
H       0.5256   0.1019   0.3887     H
O       0.5389     0.66   0.9361     O
C       0.5418   0.9259   0.5673     C
C       0.5475   0.0562   0.4346     C
O       0.5491   0.3233   0.1056     O
O       0.5584   0.6254   0.6489     O
C       0.5707   0.9998   0.0048     C
O       0.5768   0.3501   0.3951     O
H       0.5771   0.8724   0.9815     H
H        0.592   0.1242   0.0294     H
C       0.6041   0.9213   0.9912     C
C       0.6129   0.0709   0.0212     C
C       0.6133   0.9211    0.569     C
O       0.6144   0.7865   0.6903     O
C       0.6204   0.0524   0.4341     C
O       0.6273    0.188   0.3203     O
O       0.6462   0.4984    0.819     O
C       0.6505   0.8474   0.6447     C
C       0.6526   0.9839   0.5026     C
Sm      0.6538  0.65286  0.81565    Sm
C        0.656   0.4586   0.9341     C
C       0.6581   0.5119   0.0774     C
O       0.6583   0.4728   0.1982     O
O       0.6593   0.5906   0.0636     O
C       0.6617    0.124   0.3649     C
O       0.6638   0.3809   0.9484     O
Sm     0.66706   0.3206  0.20644    Sm
O       0.6752   0.7655    0.978     O
C       0.6766   0.9144   0.9918     C
C       0.6849   0.0651   0.0259     C
O       0.6977   0.2125   0.0468     O
H       0.7011   0.9803   0.5037     H
O       0.7073   0.6336   0.5798     O
C       0.7119   0.8311   0.9677     C
O       0.7156   0.8527   0.6573     O
C       0.7175   0.9865   0.0101     C
O       0.7236   0.3309   0.4383     O
O       0.7265   0.1175   0.3605     O
C       0.7285   0.1424   0.0526     C
H        0.734   0.4824   0.5118     H
H        0.766   0.9824   0.0118     H
C       0.7715   0.6424   0.5526     C
O       0.7735   0.6175   0.8605     O
O       0.7764   0.8309   0.9383     O
C       0.7825   0.4865   0.5101     C
O       0.7844   0.3527   0.1573     O
C       0.7881   0.3311   0.4677     C
O       0.7927   0.1336   0.0798     O
H       0.7989   0.4803   0.0037     H
O       0.8023   0.7125   0.5468     O
C       0.8151   0.5651   0.5259     C
C       0.8234   0.4144   0.4918     C
O       0.8248   0.2655    0.478     O
Sm     0.83294   0.8206  0.70644    Sm
O       0.8362   0.8809   0.4484     O
C       0.8383    0.624   0.8649     C
O       0.8407   0.0906   0.5636     O
O       0.8417   0.9728   0.6982     O
C       0.8419   0.0119   0.5774     C
C        0.844   0.9586   0.4341     C
Sm      0.8462  0.15286  0.31565    Sm
C       0.8474   0.4839   0.0026     C
C       0.8495   0.3474   0.1447     C
O       0.8538   0.9984    0.319     O
O       0.8727    0.688   0.8203     O
C       0.8796   0.5524   0.9341     C
O       0.8856   0.2865   0.1903     O
C       0.8867   0.4211    0.069     C
C       0.8871   0.5709   0.5212     C
C       0.8959   0.4213   0.4912     C
H        0.908   0.6242   0.5294     H
H       0.9229   0.3724   0.4815     H
O       0.9232   0.8501   0.8951     O
C       0.9293   0.4998   0.5048     C
O       0.9416   0.1254   0.1489     O
O       0.9509   0.8233   0.6056     O
C       0.9525   0.5562   0.9346     C
C       0.9582   0.4259   0.0673     C
O       0.9611     0.16   0.4361     O
H       0.9744   0.6019   0.8887     H
H        0.984   0.3825    0.111     H
C       0.9859   0.8458   0.8562     C
C       0.9938   0.4938   0.0018     C
