data_I
_chemical_name_common  '/home/zhangsd/repos/MofS-CGCNN/ML/data/TSD/clean_cifs/HOGSIG_clean'
_cell_length_a  7.60200
_cell_length_b 14.25100
_cell_length_c 14.25100
_cell_angle_alpha 97.95230
_cell_angle_beta  101.47000
_cell_angle_gamma 101.47000
_space_group_name_H-M_alt      'P 1'


loop_
_space_group_symop_operation_xyz
  'x, y, z' 

loop_
_atom_site_label
_atom_site_fract_x
_atom_site_fract_y
_atom_site_fract_z
_atom_site_type_symbol
Ni         0.0      0.0      0.0    Ni
H       0.0428    0.217   0.0632     H
N       0.0579  0.10551  0.13149     N
C       0.0619   0.2003   0.1247     C
H       0.0874   0.0203   0.2283     H
C       0.0875   0.0845   0.2221     C
C       0.0934   0.2736    0.206     C
H       0.0958   0.3375   0.1983     H
C       0.1185   0.1536   0.3072     C
H       0.1205    0.276   0.8824     H
C       0.1215   0.2503   0.2995     C
O       0.1279  0.10969  0.93659     O
H       0.1288   0.3825   0.7743     H
H       0.1367   0.1353   0.3679     H
C       0.1583     0.33     0.39     C
O       0.1707    0.418   0.3778     O
C       0.1737   0.2646   0.8298     C
O       0.1751    0.302  0.47118     O
C       0.1781   0.3283   0.7635     C
C         0.25   0.1128   0.8872     C
C         0.25   0.1838   0.8162     C
N         0.25   0.3155   0.6845     N
Ni        0.25  0.41057  0.58943    Ni
N         0.25   0.8432   0.1568     N
N         0.25   0.8969   0.1031     N
N         0.25   0.9525   0.0475     N
C       0.3219   0.2365   0.6717     C
O       0.3249  0.52882    0.698     O
C       0.3263   0.1702   0.7354     C
O       0.3293   0.6222    0.582     O
C       0.3417     0.61     0.67     C
H       0.3633   0.6321   0.8647     H
H       0.3712   0.2257   0.6175     H
O       0.3721  0.06341  0.89031     O
C       0.3785   0.7005   0.7497     C
H       0.3795   0.1176    0.724     H
C       0.3815   0.6928   0.8464     C
H       0.4042   0.8017   0.6625     H
C       0.4066    0.794   0.7264     C
C       0.4125   0.7779   0.9155     C
H       0.4126   0.7717   0.9797     H
C       0.4381   0.8753   0.7997     C
N       0.4421  0.86851  0.89449     N
H       0.4572   0.9368    0.783     H
Ni         0.5      0.0      0.0    Ni
H       0.5428   0.0632    0.217     H
N       0.5579  0.13149  0.10551     N
C       0.5619   0.1247   0.2003     C
H       0.5874   0.2283   0.0203     H
C       0.5875   0.2221   0.0845     C
C       0.5934    0.206   0.2736     C
H       0.5958   0.1983   0.3375     H
C       0.6185   0.3072   0.1536     C
H       0.6205   0.8824    0.276     H
C       0.6215   0.2995   0.2503     C
O       0.6279  0.93659  0.10969     O
H       0.6288   0.7743   0.3825     H
H       0.6367   0.3679   0.1353     H
C       0.6583     0.39     0.33     C
O       0.6707   0.3778    0.418     O
C       0.6737   0.8298   0.2646     C
O       0.6751  0.47118    0.302     O
C       0.6781   0.7635   0.3283     C
N         0.75   0.0475   0.9525     N
N         0.75   0.1031   0.8969     N
N         0.75   0.1568   0.8432     N
Ni        0.75  0.58943  0.41057    Ni
N         0.75   0.6845   0.3155     N
C         0.75   0.8162   0.1838     C
C         0.75   0.8872   0.1128     C
C       0.8219   0.6717   0.2365     C
O       0.8249    0.698  0.52882     O
C       0.8263   0.7354   0.1702     C
O       0.8293    0.582   0.6222     O
C       0.8417     0.67     0.61     C
H       0.8633   0.8647   0.6321     H
H       0.8712   0.6175   0.2257     H
O       0.8721  0.89031  0.06341     O
C       0.8785   0.7497   0.7005     C
H       0.8795    0.724   0.1176     H
C       0.8815   0.8464   0.6928     C
H       0.9042   0.6625   0.8017     H
C       0.9066   0.7264    0.794     C
C       0.9125   0.9155   0.7779     C
H       0.9126   0.9797   0.7717     H
C       0.9381   0.7997   0.8753     C
N       0.9421  0.89449  0.86851     N
H       0.9572    0.783   0.9368     H
