data_I
_chemical_name_common  '/home/zhangsd/repos/MofS-CGCNN/ML/data/TSD/clean_cifs/HOJLID_clean'
_cell_length_a 15.18200
_cell_length_b 15.18200
_cell_length_c 48.42000
_cell_angle_alpha 94.33310
_cell_angle_beta  94.33310
_cell_angle_gamma 98.25300
_space_group_name_H-M_alt      'P 1'


loop_
_space_group_symop_operation_xyz
  'x, y, z' 

loop_
_atom_site_label
_atom_site_fract_x
_atom_site_fract_y
_atom_site_fract_z
_atom_site_type_symbol
C      0.00306  0.22774  0.14485     C
H       0.0114   0.3692   0.2907     H
C       0.0119   0.8605   0.3294     C
H       0.0153   0.2775   0.5192     H
O       0.0176   0.3638  0.62593     O
H       0.0205   0.4529   0.5011     H
H       0.0213   0.2863   0.5674     H
C       0.0265   0.8651  0.37936     C
C       0.0275   0.4645   0.4822     C
C      0.02804  0.72816  0.85379     C
H       0.0286   0.6954   0.8125     H
O       0.0314   0.3908  0.67068     O
H       0.0376   0.8586   0.3126     H
H        0.045   0.5274   0.4811     H
H       0.0502      0.3   0.2711     H
H       0.0517   0.3761   0.3346     H
H       0.0575   0.3433   0.7265     H
H       0.0577   0.7601   0.8951     H
H        0.062   0.8664    0.396     H
C       0.0624   0.3136  0.52978     C
C       0.0642   0.3552   0.2827     C
C       0.0649   0.7073  0.82913     C
C       0.0649   0.8623   0.3542     C
C       0.0661   0.3189  0.55864     C
H       0.0756    0.345   0.3903     H
C       0.0824   0.7462  0.87859     C
H       0.0829   0.4501    0.432     H
H       0.0864   0.4022   0.2717     H
H       0.0872   0.3138   0.7723     H
H       0.0962   0.3576   0.9795     H
C       0.0991   0.4143   0.4712     C
C       0.1001   0.2293  0.14372     C
C       0.1038   0.4076   0.4426     C
H       0.1089   0.2979   0.0041     H
C       0.1097   0.3663  0.33207     C
C       0.1161   0.3507  0.73435     C
N       0.1285   0.3571   0.3986     N
C       0.1292   0.3624   0.5167     C
C       0.1302   0.3508  0.48712     C
H       0.1307   0.8055   0.6064     H
H       0.1321   0.0905   0.6034     H
H       0.1336    0.938    0.604     H
C        0.134   0.0648  0.62028     C
C        0.134    0.333   0.7618     C
C       0.1341   0.3461  0.30549     C
C       0.1349   0.9735  0.62064     C
C        0.136   0.1178  0.64508     C
O        0.136   0.2358  0.12124     O
N       0.1365   0.3729  0.57442     N
C       0.1377   0.9351   0.6458     C
O       0.1381   0.2423  0.62076     O
C       0.1388   0.0794  0.67025     C
C       0.1392    0.334   0.9913     C
C       0.1395   0.9881   0.6706     C
C       0.1398   0.3374   0.4299     C
C       0.1399   0.7807  0.62315     C
H       0.1401   0.1149   0.6868     H
H       0.1413   0.6547   0.6066     H
H       0.1414   0.9624   0.6874     H
C       0.1419   0.2161  0.64287     C
H        0.142   0.3126   0.9368     H
Zn     0.14591  0.37495  0.61691    Zn
C       0.1463   0.6903  0.62328     C
O       0.1467   0.2229  0.16628     O
C       0.1473   0.8341  0.64808     C
H       0.1477   0.1451   0.0177     H
O       0.1479   0.2591  0.66591     O
H       0.1518   0.1416   0.0655     H
H       0.1533   0.1767   0.4987     H
O       0.1544    0.508  0.62629     O
C        0.156   0.7046  0.82927     C
C         0.16   0.6532  0.64835     C
C        0.161    0.797  0.67315     C
C       0.1611   0.5549  0.64847     C
Zn     0.16249  0.39197  0.67733    Zn
H       0.1656   0.1882   0.2677     H
H       0.1659   0.8327   0.6898     H
C       0.1659   0.8527  0.35192     C
C       0.1662   0.2806   0.4744     C
H       0.1673   0.8341   0.3102     H
C       0.1674   0.7066  0.67329     C
C        0.171    0.274   0.4458     C
C        0.172   0.3716  0.35491     C
O        0.173   0.5244  0.67288     O
C       0.1735   0.7433  0.87872     C
H       0.1766   0.6818   0.6901     H
H       0.1778   0.1562   0.7759     H
H       0.1793   0.4825   0.8117     H
H       0.1794   0.3822   0.0014     H
C       0.1794   0.3836   0.3871     C
H       0.1806   0.6906   0.8128     H
H       0.1854   0.2828   0.8947     H
C       0.1861   0.2843  0.94508     C
N       0.1861   0.3795  0.71866     N
H       0.1908   0.4474   0.3923     H
C       0.1915   0.2773   0.9736     C
H       0.1928   0.1544   0.2219     H
C      0.19426  0.17926  0.02903     C
H       0.1945   0.8693   0.3936     H
H       0.1951   0.2271   0.4372     H
C      0.19672  0.17712  0.05772     C
C       0.1997   0.4165  0.53249     C
C       0.2017   0.2115    0.491     C
C       0.2029   0.2287  0.25873     C
C        0.203    0.839  0.32685     C
C       0.2034   0.4218  0.56134     C
H       0.2099   0.7553   0.8953     H
C      0.21033  0.72247  0.85407     C
C      0.21919  0.20859  0.23128     C
C       0.2193   0.8601  0.37685     C
C       0.2209   0.3315  0.30175     C
C       0.2217   0.3441  0.77356     C
H       0.2302    0.173    0.479     H
N       0.2322   0.2628  0.90124     N
H       0.2325   0.3597   0.3935     H
C       0.2368     0.16    0.785     C
C       0.2395   0.4837  0.81945     C
H       0.2399   0.9423   0.1049     H
C       0.2423   0.3097  0.27281     C
H       0.2431   0.1049   0.7928     H
H       0.2443   0.2405   0.5057     H
C       0.2445   0.3235  0.80238     C
H       0.2445   0.4491   0.5237     H
H       0.2447   0.7901   0.1047     H
C       0.2468    0.249  0.92898     C
H        0.249   0.5196   0.8369     H
H       0.2505   0.4579   0.5719     H
O       0.2506   0.1006  0.12309     O
C       0.2522   0.2364  0.80809     C
C       0.2538   0.9176  0.12141     C
C       0.2553   0.3911  0.82392     C
C       0.2567   0.8265  0.12128     C
H        0.257   0.6812   0.1869     H
C       0.2575   0.2349  0.98602     C
C       0.2589   0.3569  0.35117     C
C       0.2614   0.2324  0.01734     C
H       0.2616    0.529   0.1869     H
Zn     0.26483  0.23161  0.11621    Zn
C       0.2658   0.6482  0.17065     C
N      0.26633  0.22817  0.07473     N
C       0.2682   0.0696  0.14812     C
C       0.2685   0.5571  0.17065     C
C       0.2707   0.2169  0.83533     C
C      0.27184  0.97196  0.14621     C
C       0.2738   0.3716  0.85115     C
C       0.2738   0.3906  0.73042     C
N      0.27496  0.26924  0.21791     N
H       0.2759   0.1587   0.8391     H
C      0.27605  0.69015   0.1463     C
C      0.27753  0.78967  0.14593     C
O      0.27854  0.37506  0.16873     O
O       0.2787   0.1147  0.17002     O
C       0.2794   0.4104   0.1456     C
O       0.2798   0.3918  0.62402     O
H         0.28   0.1712   0.7717     H
H       0.2802   0.5088   0.8069     H
Zn     0.28066  0.24816  0.17677    Zn
H       0.2811   0.4169   0.8656     H
C      0.28151  0.50789   0.1463     C
C       0.2816   0.2846  0.85686     C
O       0.2826    0.368   0.1223     O
C       0.2832   0.3368  0.32459     C
C       0.2891   0.6409  0.12195     C
C       0.2916   0.3728  0.75787     C
C       0.2918   0.5498  0.12195     C
C       0.2927   0.9351  0.17087     C
C       0.2934   0.8326  0.32671     C
O       0.2936   0.4006  0.67099     O
C       0.2954    0.844  0.17073     C
H        0.296    0.669   0.1057     H
C       0.2981   0.3703  0.25945     C
H       0.2997   0.1763     0.88     H
H       0.3005   0.3605   0.3665     H
H       0.3005   0.5169   0.1057     H
C        0.303   0.2404  0.88371     C
H       0.3046   0.9714   0.1875     H
H       0.3094   0.8194   0.1872     H
C       0.3097   0.8537  0.37672     C
C      0.30985  0.72395   0.8537     C
C       0.3128   0.2066   0.9414     C
C      0.31435  0.35015    0.232     C
C       0.3182   0.1996  0.96992     C
H       0.3182   0.8234   0.3099     H
H       0.3188    0.743   0.8131     H
H       0.3206   0.4098   0.7199     H
H       0.3244   0.4244   0.2689     H
C       0.3246    0.391  0.64716     C
H        0.331    0.704   0.8943     H
C      0.33106  0.28346  0.03434     C
C      0.33352  0.28132  0.06303     C
H       0.3453   0.8587   0.3934     H
C       0.3468     0.84  0.35165     C
H       0.3503   0.3803   0.7657     H
H       0.3517   0.3907   0.2231     H
C       0.3518   0.7342  0.82935     C
H       0.3535   0.1829   0.9306     H
C       0.3591   0.7109  0.87805     C
H       0.3619   0.2653   0.8924     H
H       0.3712   0.1198   0.9967     H
H        0.376    0.319   0.0265     H
C       0.3781   0.3175   0.3229     C
H       0.3801   0.3155   0.0744     H
H       0.3869   0.2677   0.3333     H
H       0.3881   0.3037   0.3038     H
C       0.3944   0.1666   0.9858     C
O       0.3996    0.236    0.126     O
O       0.4131   0.2657  0.17229     O
H       0.4195   0.3691   0.3304     H
C        0.426   0.3872  0.64773     C
H       0.4278    0.215   0.9978     H
H       0.4279   0.3713   0.6059     H
H       0.4327   0.1441    0.973     H
C       0.4396   0.2488  0.14904     C
C       0.4429   0.7315  0.82935     C
C       0.4451   0.8389  0.35153     C
C       0.4502   0.7082  0.87805     C
H       0.4541   0.4021   0.6895     H
C       0.4637   0.3763  0.62263     C
H        0.471   0.7384   0.8131     H
H       0.4726    0.955   0.5189     H
O       0.4756    0.827  0.32712     O
C       0.4793   0.3947  0.67267     C
H       0.4804    0.751   0.1631     H
H       0.4831   0.6995   0.8943     H
H       0.4912   0.7198   0.1931     H
O        0.492   0.8456  0.37371     O
C      0.49211  0.71849   0.8537     C
C       0.5163   0.7605  0.18055     C
H       0.5175   0.8207   0.1883     H
C       0.5355   0.9725   0.5178     C
H       0.5361   0.2105   0.1077     H
H       0.5421   0.7495   0.4281     H
C      0.54223  0.24311  0.14918     C
H       0.5471   0.9795   0.4989     H
H       0.5499   0.9171    0.568     H
H       0.5509   0.7555   0.4763     H
H       0.5526   0.8092   0.6077     H
C       0.5545   0.3729  0.62248     C
H        0.555    0.028   0.5289     H
C       0.5703   0.3913  0.67252     C
C      0.57472  0.22114  0.12388     C
H       0.5756   0.6756   0.7311     H
H       0.5781   0.2737   0.1902     H
C       0.5782   0.7966  0.43866     C
H       0.5798   0.3656   0.6057     H
H       0.5831   0.7189   0.1344     H
C       0.5835   0.8003  0.46751     C
C       0.5857   0.9009   0.5288     C
C       0.5896   0.7206   0.8544     C
H       0.5902   0.6794   0.2801     H
C       0.5924   0.8962   0.5574     C
H       0.5978   0.9136   0.7283     H
H       0.5979   0.5459   0.3105     H
O       0.5994   0.7064  0.32901     O
C      0.59986  0.25894  0.17332     C
H       0.6036    0.394   0.3108     H
C       0.6053   0.5207  0.32733     C
H        0.606   0.3964   0.6892     H
C        0.608   0.3804  0.64743     C
Zn     0.60803  0.83751  0.32267    Zn
O       0.6082   0.7202  0.37598     O
C       0.6087   0.4297  0.32748     C
C       0.6089   0.7447  0.17608     C
C        0.609   0.6754  0.35284     C
O       0.6092   0.9686  0.32932     O
H       0.6093   0.6483   0.7769     H
C       0.6094   0.7262  0.26958     C
C       0.6128    0.574  0.35227     C
C       0.6164   0.8206   0.6129     C
H       0.6178   0.8206   0.9986     H
C       0.6196    0.392  0.35257     C
H       0.6197   0.6497   0.2343     H
N       0.6205   0.8139  0.28134     N
H       0.6212     0.29   0.3932     H
C       0.6218   0.2946  0.35157     C
C       0.6223   0.2553  0.37658     C
H       0.6231   0.2691     0.31     H
C       0.6234   0.2428  0.32675     C
C       0.6237   0.5363  0.37737     C
H       0.6239   0.9483   0.6654     H
C       0.6248   0.1642  0.37677     C
O      0.62494  0.72146  0.83127     O
Zn     0.62505  0.85409  0.38309    Zn
H       0.6252   0.1378   0.3935     H
C       0.6259   0.1517  0.32694     C
C       0.6265   0.1123  0.35195     C
H        0.627    0.117   0.3103     H
C       0.6271   0.4455  0.37752     C
N       0.6271   0.8635  0.42558     N
C       0.6272   0.7084  0.24213     C
C       0.6284   0.7262  0.14885     C
C       0.6284    0.828  0.64509     C
H       0.6287   0.5721   0.3941     H
C       0.6296   0.0164  0.35261     C
C       0.6297   0.7019  0.74055     C
H       0.6308   0.9886   0.7093     H
H       0.6309   0.5805   0.6696     H
O        0.632   0.7174   0.8777     O
C       0.6337   0.8903  0.66793     C
H       0.6344   0.4202   0.3943     H
O       0.6362   0.9824  0.37407     O
C       0.6376   0.8708   0.4833     C
H       0.6395   0.6995   0.6335     H
H       0.6403   0.7675   0.6065     H
H       0.6424   0.9038   0.0205     H
N       0.6429   0.8715   0.6014     N
C       0.6431   0.7411  0.64883     C
C       0.6448   0.9358   0.7173     C
C       0.6492   0.8698  0.51288     C
C       0.6493   0.8839  0.26565     C
C      0.64985  0.68565    0.768     C
C       0.6539   0.8659  0.69451     C
H        0.655   0.9244   0.6097     H
C       0.6559   0.7783  0.22644     C
H       0.6567   0.9425   0.2735     H
C       0.6626   0.8602   0.5701     C
C       0.6632   0.7168  0.67541     C
C      0.66482  0.21498  0.12272     C
C        0.666   0.8608   0.0087     C
C        0.667    0.866   0.2382     C
C       0.6685   0.7791  0.69825     C
C       0.6765   0.7555  0.19762     C
H        0.681    0.624   0.9735     H
C       0.6811   0.9339  0.44136     C
C       0.6825   0.6219   0.6771     C
H       0.6845   0.6199   0.9256     H
H       0.6862   0.9128   0.2277     H
C       0.6864   0.9376  0.47022     C
H       0.6865   0.2003   0.1058     H
H       0.6874    0.858   0.0632     H
C         0.69   0.2528  0.17215     C
C       0.6903   0.7577  0.72719     C
H       0.6963   0.6119   0.6962     H
H          0.7   0.9498   0.7289     H
H       0.7021   0.8911   0.9959     H
C       0.7054   0.3782  0.64843     C
H         0.71   0.3788   0.6068     H
H       0.7137   0.9787   0.4326     H
C       0.7154   0.7184  0.14314     C
C       0.7157   0.8139  0.05492     C
C      0.71654  0.66894  0.96566     C
H       0.7172   0.8146   0.1053     H
C      0.71868  0.66648  0.93697     C
C       0.7194   0.8338   0.5256     C
H       0.7225   0.9847   0.4808     H
C      0.72253  0.23087  0.14685     C
C       0.7227   0.8085   0.0264     C
C        0.726    0.829   0.5542     C
H       0.7263   0.4219   0.8098     H
H       0.7286   0.2634   0.1883     H
N      0.73076  0.72504  0.78209     N
H       0.7309   0.3769     0.69     H
H       0.7323   0.6131   0.6667     H
O       0.7343   0.5869  0.82771     O
H       0.7347   0.6381   0.1076     H
H       0.7366   0.2714   0.8117     H
N       0.7372   0.7678  0.09876     N
H       0.7383   0.1721   0.8933     H
H       0.7386   0.0196   0.8944     H
O       0.7409   0.8521  0.33409     O
C      0.74106  0.40014  0.82668     C
C       0.7447   0.3777  0.62342     C
C       0.7472     0.31  0.82785     C
C        0.751   0.7532  0.07102     C
C       0.7512   0.5604  0.85096     C
Zn     0.75184  0.71934  0.82323    Zn
C       0.7519   0.1385  0.87771     C
C        0.752   0.0472   0.8784     C
C      0.75689  0.45777  0.85082     C
C       0.7572   0.3766  0.67325     C
O       0.7577   0.8619  0.37924     O
H       0.7595   0.7557   0.4943     H
C       0.7596    0.697  0.11629     C
C       0.7636   0.7478  0.19191     C
O        0.764   0.6004    0.874     O
O       0.7642    0.864  0.87876     O
C       0.7651   0.7425  0.01398     C
C       0.7676   0.7386  0.98266     C
Zn     0.76839  0.73517  0.88379    Zn
C      0.76913  0.27747  0.85315     C
C       0.7707   0.8999  0.85628     C
C       0.7713   0.7971  0.74127     C
C      0.77182  0.17958  0.85379     C
N      0.77183  0.73367  0.92527     N
C      0.77226  0.99694  0.85515     C
H       0.7729   0.8049   0.5628     H
O       0.7771   0.8533  0.83372     O
C      0.77886  0.42528  0.87612     C
C       0.7831   0.7293  0.16467     C
C       0.7839   0.8581  0.35713     C
H        0.785   0.5722   0.0022     H
C      0.78502  0.33518  0.87728     C
C       0.7885   0.7983    0.509     C
H       0.7895   0.4639   0.8923     H
C      0.79141  0.78081  0.76872     C
C        0.792   0.1294  0.83054     C
C       0.7922    0.038  0.83122     C
C       0.7934   0.6872   0.0586     C
H       0.7997   0.3135   0.8942     H
C       0.8004   0.6818  0.03008     C
H       0.8054   0.1568   0.8145     H
H       0.8057   0.0045   0.8157     H
H       0.8118   0.8344   0.7323     H
H       0.8171   0.6465   0.0694     H
C      0.82042  0.22818  0.14621     C
C      0.82074  0.80574  0.97097     C
C      0.82288  0.80328  0.94228     C
H       0.8233   0.8467   0.5013     H
H       0.8237   0.7003     0.12     H
H        0.827   0.7698    0.521     H
H       0.8279   0.2617   0.1067     H
H       0.8288     0.72   0.2283     H
C       0.8334   0.6056   0.0142     C
C       0.8358   0.3752  0.62323     C
C         0.84   0.7632    0.215     C
H       0.8413   0.7241   0.1609     H
H       0.8432   0.1946   0.1855     H
H       0.8438   0.8222   0.2241     H
H       0.8456   0.8072   0.7781     H
C       0.8483   0.3741  0.67306     C
H       0.8549   0.8523   0.9823     H
H       0.8559   0.5673    0.027     H
H       0.8584   0.8482   0.9345     H
C       0.8615   0.2481  0.12229     C
H       0.8622   0.3748   0.6065     H
C       0.8706    0.208  0.16946     C
H       0.8802   0.6288   0.0033     H
C       0.8822    0.864  0.35492     C
H        0.883    0.373   0.6897     H
H       0.8851   0.8599   0.3132     H
O       0.8853   0.7213  0.82998     O
C       0.8877   0.3735  0.64805     C
H       0.8951   0.7569   0.2072     H
O       0.8994   0.7494  0.87691     O
H       0.9095   0.8679   0.3966     H
C       0.9206   0.8612  0.32975     C
C       0.9304   0.7318  0.85188     C
C       0.9352    0.866  0.37972     C
C       0.9528    0.248   0.1216     C
C        0.962   0.2078  0.16878     C
H        0.972    0.445   0.4711     H
H       0.9804   0.2614   0.1056     H
C       0.9836   0.3704  0.64739     C
H       0.9955   0.1943   0.1843     H
