data_I
_chemical_name_common  '/home/zhangsd/repos/MofS-CGCNN/ML/data/TSD/clean_cifs/HOQMUX_clean'
_cell_length_a 16.55700
_cell_length_b 18.31100
_cell_length_c 11.93490
_cell_angle_alpha 90.00000
_cell_angle_beta  123.09600
_cell_angle_gamma 90.00000
_space_group_name_H-M_alt      'P 1'


loop_
_space_group_symop_operation_xyz
  'x, y, z' 

loop_
_atom_site_label
_atom_site_fract_x
_atom_site_fract_y
_atom_site_fract_z
_atom_site_type_symbol
Mg         0.0  0.30224     0.25    Mg
Mg         0.0  0.69776     0.75    Mg
H        0.005    0.219    0.023     H
H        0.005    0.781    0.523     H
C       0.0113   0.1022   0.9974     C
C       0.0113   0.8978   0.4974     C
C       0.0139   0.0345   0.4813     C
C       0.0139   0.9655   0.9813     C
C        0.016    0.165   0.4715     C
C        0.016    0.835   0.9715     C
H        0.049    0.111    0.961     H
H        0.049    0.889    0.461     H
C       0.0678   0.0331   0.4244     C
C       0.0678   0.9669   0.9244     C
H        0.068    0.493    0.904     H
H        0.068    0.507    0.404     H
N       0.0698   0.1609   0.4187     N
N       0.0698   0.8391   0.9187     N
H        0.073    0.381    0.999     H
H        0.073    0.619    0.499     H
O      0.08439   0.3799    0.382     O
O      0.08439   0.6201    0.882     O
O      0.08595  0.29772   0.1761     O
O      0.08595  0.70228   0.6761     O
H         0.09    0.009    0.912     H
H         0.09    0.991    0.412     H
C        0.096   0.0968   0.3952     C
C        0.096   0.9032   0.8952     C
O      0.09758  0.22253   0.3883     O
O      0.09758  0.77747   0.8883     O
C       0.0981   0.4824    0.984     C
C       0.0981   0.5176    0.484     C
C       0.1001   0.4158   0.0383     C
C       0.1001   0.5842   0.5383     C
H        0.144      0.1     0.37     H
H        0.144      0.9     0.87     H
C       0.1547     0.39   0.4982     C
C       0.1547     0.61   0.9982     C
C       0.1627    0.464   0.5581     C
C       0.1627    0.536   0.0581     C
C       0.1642   0.3321    0.236     C
C       0.1642   0.6679    0.736     C
C       0.1685   0.4009   0.1709     C
C       0.1685   0.5991   0.6709     C
H        0.219    0.054    0.658     H
H        0.219    0.946    0.158     H
O       0.2204  0.34318   0.5686     O
O       0.2204  0.65682   0.0686     O
H        0.229    0.057    0.255     H
H        0.229    0.943    0.755     H
C       0.2319   0.4785   0.6906     C
C       0.2319   0.5215   0.1906     C
C        0.235   0.4545    0.245     C
C        0.235   0.5455    0.745     C
O      0.23762  0.31354   0.3472     O
O      0.23762  0.68646   0.8472     O
Mg        0.25     0.25      0.5    Mg
Mg        0.25     0.75      0.0    Mg
O      0.26238  0.18646   0.6528     O
O      0.26238  0.81354   0.1528     O
C        0.265   0.0455    0.755     C
C        0.265   0.9545    0.255     C
C       0.2681   0.0215   0.3094     C
C       0.2681   0.9785   0.8094     C
H        0.271    0.443    0.745     H
H        0.271    0.557    0.245     H
O       0.2796  0.15682   0.4314     O
O       0.2796  0.84318   0.9314     O
H        0.281    0.446    0.342     H
H        0.281    0.554    0.842     H
C       0.3315   0.0991   0.8291     C
C       0.3315   0.9009   0.3291     C
C       0.3358   0.1679    0.764     C
C       0.3358   0.8321    0.264     C
C       0.3373    0.036   0.4419     C
C       0.3373    0.964   0.9419     C
C       0.3453     0.11   0.5018     C
C       0.3453     0.89   0.0018     C
H        0.356      0.4     0.63     H
H        0.356      0.6     0.13     H
C       0.3999   0.0842   0.9617     C
C       0.3999   0.9158   0.4617     C
C       0.4019   0.0176    0.016     C
C       0.4019   0.9824    0.516     C
O      0.40242  0.27747   0.6117     O
O      0.40242  0.72253   0.1117     O
C        0.404   0.4032   0.6048     C
C        0.404   0.5968   0.1048     C
H         0.41    0.491    0.088     H
H         0.41    0.509    0.588     H
O      0.41405  0.20228   0.8239     O
O      0.41405  0.79772   0.3239     O
O      0.41561   0.1201    0.618     O
O      0.41561   0.8799    0.118     O
H        0.427    0.119    0.001     H
H        0.427    0.881    0.501     H
N       0.4302   0.3391   0.5813     N
N       0.4302   0.6609   0.0813     N
H        0.432    0.007    0.096     H
H        0.432    0.993    0.596     H
C       0.4322   0.4669   0.5756     C
C       0.4322   0.5331   0.0756     C
H        0.451    0.389    0.039     H
H        0.451    0.611    0.539     H
C        0.484    0.335   0.5285     C
C        0.484    0.665   0.0285     C
C       0.4861   0.4655   0.5187     C
C       0.4861   0.5345   0.0187     C
C       0.4887   0.3978   0.0026     C
C       0.4887   0.6022   0.5026     C
H        0.495    0.281    0.977     H
H        0.495    0.719    0.477     H
Mg         0.5  0.19776     0.75    Mg
Mg         0.5  0.80224     0.25    Mg
H        0.505    0.281    0.523     H
H        0.505    0.719    0.023     H
C       0.5113   0.3978   0.4974     C
C       0.5113   0.6022   0.9974     C
C       0.5139   0.4655   0.9813     C
C       0.5139   0.5345   0.4813     C
C        0.516    0.335   0.9715     C
C        0.516    0.665   0.4715     C
H        0.549    0.389    0.461     H
H        0.549    0.611    0.961     H
C       0.5678   0.4669   0.9244     C
C       0.5678   0.5331   0.4244     C
H        0.568    0.007    0.404     H
H        0.568    0.993    0.904     H
N       0.5698   0.3391   0.9187     N
N       0.5698   0.6609   0.4187     N
H        0.573    0.119    0.499     H
H        0.573    0.881    0.999     H
O      0.58439   0.1201    0.882     O
O      0.58439   0.8799    0.382     O
O      0.58595  0.20228   0.6761     O
O      0.58595  0.79772   0.1761     O
H         0.59    0.491    0.412     H
H         0.59    0.509    0.912     H
C        0.596   0.4032   0.8952     C
C        0.596   0.5968   0.3952     C
O      0.59758  0.27747   0.8883     O
O      0.59758  0.72253   0.3883     O
C       0.5981   0.0176    0.484     C
C       0.5981   0.9824    0.984     C
C       0.6001   0.0842   0.5383     C
C       0.6001   0.9158   0.0383     C
H        0.644      0.4     0.87     H
H        0.644      0.6     0.37     H
C       0.6547     0.11   0.9982     C
C       0.6547     0.89   0.4982     C
C       0.6627    0.036   0.0581     C
C       0.6627    0.964   0.5581     C
C       0.6642   0.1679    0.736     C
C       0.6642   0.8321    0.236     C
C       0.6685   0.0991   0.6709     C
C       0.6685   0.9009   0.1709     C
H        0.719    0.446    0.158     H
H        0.719    0.554    0.658     H
O       0.7204  0.15682   0.0686     O
O       0.7204  0.84318   0.5686     O
H        0.729    0.443    0.755     H
H        0.729    0.557    0.255     H
C       0.7319   0.0215   0.1906     C
C       0.7319   0.9785   0.6906     C
C        0.735   0.0455    0.745     C
C        0.735   0.9545    0.245     C
O      0.73762  0.18646   0.8472     O
O      0.73762  0.81354   0.3472     O
Mg        0.75     0.25      0.0    Mg
Mg        0.75     0.75      0.5    Mg
O      0.76238  0.31354   0.1528     O
O      0.76238  0.68646   0.6528     O
C        0.765   0.4545    0.255     C
C        0.765   0.5455    0.755     C
C       0.7681   0.4785   0.8094     C
C       0.7681   0.5215   0.3094     C
H        0.771    0.057    0.245     H
H        0.771    0.943    0.745     H
O       0.7796  0.34318   0.9314     O
O       0.7796  0.65682   0.4314     O
H        0.781    0.054    0.842     H
H        0.781    0.946    0.342     H
C       0.8315   0.4009   0.3291     C
C       0.8315   0.5991   0.8291     C
C       0.8358   0.3321    0.264     C
C       0.8358   0.6679    0.764     C
C       0.8373    0.464   0.9419     C
C       0.8373    0.536   0.4419     C
C       0.8453     0.39   0.0018     C
C       0.8453     0.61   0.5018     C
H        0.856      0.1     0.13     H
H        0.856      0.9     0.63     H
C       0.8999   0.4158   0.4617     C
C       0.8999   0.5842   0.9617     C
C       0.9019   0.4824    0.516     C
C       0.9019   0.5176    0.016     C
O      0.90242  0.22253   0.1117     O
O      0.90242  0.77747   0.6117     O
C        0.904   0.0968   0.1048     C
C        0.904   0.9032   0.6048     C
H         0.91    0.009    0.588     H
H         0.91    0.991    0.088     H
O      0.91405  0.29772   0.3239     O
O      0.91405  0.70228   0.8239     O
O      0.91561   0.3799    0.118     O
O      0.91561   0.6201    0.618     O
H        0.927    0.381    0.501     H
H        0.927    0.619    0.001     H
N       0.9302   0.1609   0.0813     N
N       0.9302   0.8391   0.5813     N
H        0.932    0.493    0.596     H
H        0.932    0.507    0.096     H
C       0.9322   0.0331   0.0756     C
C       0.9322   0.9669   0.5756     C
H        0.951    0.111    0.539     H
H        0.951    0.889    0.039     H
C        0.984    0.165   0.0285     C
C        0.984    0.835   0.5285     C
C       0.9861   0.0345   0.0187     C
C       0.9861   0.9655   0.5187     C
C       0.9887   0.1022   0.5026     C
C       0.9887   0.8978   0.0026     C
H        0.995    0.219    0.477     H
H        0.995    0.781    0.977     H
