data_I
_chemical_name_common  '/home/zhangsd/repos/MofS-CGCNN/ML/data/TSD/clean_cifs/HOTWUJ_clean'
_cell_length_a  9.07220
_cell_length_b  9.07220
_cell_length_c 14.58200
_cell_angle_alpha 79.91720
_cell_angle_beta  79.91760
_cell_angle_gamma 115.92600
_space_group_name_H-M_alt      'P 1'


loop_
_space_group_symop_operation_xyz
  'x, y, z' 

loop_
_atom_site_label
_atom_site_fract_x
_atom_site_fract_y
_atom_site_fract_z
_atom_site_type_symbol
H       0.0219   0.1361   0.1412     H
C        0.039   0.2098    0.079     C
C       0.0615   0.7447   0.5622     C
H       0.0626    0.158   0.0296     H
O      0.08071  0.26429    0.421     O
O      0.08584  0.63412  0.53284     O
H       0.0922   0.6876   0.9704     H
C        0.118   0.7888    0.921     C
H       0.1361   0.0219   0.6412     H
H        0.158   0.0626   0.5296     H
H       0.1631   0.7773   0.8588     H
O      0.18529  0.50171    0.079     O
C       0.1931   0.3763   0.0622     C
C       0.2098    0.039    0.579     C
C       0.2112    0.882    0.579     C
H       0.2227   0.8369   0.6412     H
O      0.23797  0.66049  0.32974     O
C       0.2553   0.9385   0.9378     C
Nd     0.25941  0.50941  0.48118    Nd
O      0.26429  0.08071    0.921     O
H       0.3124   0.9078   0.5296     H
C       0.3246   0.6754     0.25     C
O      0.33304  0.38132  0.03284     O
O      0.33951  0.76203  0.17026     O
O      0.36588  0.91416  0.96716     O
C       0.3763   0.1931   0.5622     C
O      0.38132  0.33304  0.53284     O
C       0.4254   0.5746     0.25     C
O      0.43229  0.50977  0.32974     O
O      0.49023  0.56771  0.17026     O
Nd     0.49059  0.74059  0.01882    Nd
O      0.49829  0.81471    0.421     O
O      0.50171  0.18529    0.579     O
Nd     0.50941  0.25941  0.98118    Nd
O      0.50977  0.43229  0.82974     O
O      0.56771  0.49023  0.67026     O
C       0.5746   0.4254     0.75     C
O      0.61868  0.66696  0.46716     O
C       0.6237   0.8069   0.4378     C
O      0.63412  0.08584  0.03284     O
O      0.66049  0.23797  0.82974     O
O      0.66696  0.61868  0.96716     O
C       0.6754   0.3246     0.75     C
H       0.6876   0.0922   0.4704     H
O      0.73571  0.91929    0.079     O
Nd     0.74059  0.49059  0.51882    Nd
C       0.7447   0.0615   0.0622     C
O      0.76203  0.33951  0.67026     O
H       0.7773   0.1631   0.3588     H
C       0.7888    0.118    0.421     C
C       0.7902    0.961    0.421     C
C       0.8069   0.6237   0.9378     C
O      0.81471  0.49829    0.921     O
H       0.8369   0.2227   0.1412     H
H        0.842   0.9374   0.4704     H
H       0.8639   0.9781   0.3588     H
C        0.882   0.2112    0.079     C
H       0.9078   0.3124   0.0296     H
O      0.91416  0.36588  0.46716     O
O      0.91929  0.73571    0.579     O
H       0.9374    0.842   0.9704     H
C       0.9385   0.2553   0.4378     C
C        0.961   0.7902    0.921     C
H       0.9781   0.8639   0.8588     H
