data_I
_chemical_name_common  '/home/zhangsd/repos/MofS-CGCNN/ML/data/TSD/clean_cifs/HOWPUF_clean'
_cell_length_a 12.12500
_cell_length_b 13.83320
_cell_length_c 21.64360
_cell_angle_alpha 90.00000
_cell_angle_beta  90.00000
_cell_angle_gamma 90.00000
_space_group_name_H-M_alt      'P 1'


loop_
_space_group_symop_operation_xyz
  'x, y, z' 

loop_
_atom_site_label
_atom_site_fract_x
_atom_site_fract_y
_atom_site_fract_z
_atom_site_type_symbol
C       0.0008   0.2834   0.6838     C
C       0.0008   0.7166   0.3162     C
C       0.0271   0.3683   0.7138     C
C       0.0271   0.6317   0.2862     C
O       0.0391   0.0064     0.15     O
O       0.0391   0.9936     0.85     O
H       0.0412   0.1428   0.6765     H
H       0.0412   0.8572   0.3235     H
C       0.0476   0.0434   0.2016     C
C       0.0476   0.9566   0.7984     C
H        0.057   0.2182   0.1556     H
H        0.057   0.7818   0.8444     H
C       0.0614   0.1999   0.6962     C
C       0.0614   0.8001   0.3038     C
O       0.1126   0.0218   0.2442     O
O       0.1126   0.9782   0.7558     O
C       0.1137   0.3678   0.7556     C
C       0.1137   0.6322   0.2444     C
O       0.1219   0.4642    0.224     O
O       0.1219   0.5358    0.776     O
N       0.1461   0.1984   0.7345     N
N       0.1461   0.8016   0.2655     N
C       0.1503   0.4538   0.7905     C
C       0.1503   0.5462   0.2095     C
C       0.1707   0.2812   0.7626     C
C       0.1707   0.7188   0.2374     C
O       0.2121   0.4365   0.8376     O
O       0.2121   0.5635   0.1624     O
H       0.2305   0.4467   0.9878     H
H       0.2305   0.5533   0.0122     H
H        0.231   0.2811   0.7892     H
H        0.231   0.7189   0.2108     H
Zn     0.23379  0.43234  0.12579    Zn
Zn     0.23379  0.56766  0.87421    Zn
Zn     0.24846  0.07486  0.75594    Zn
Zn     0.24846  0.92514  0.24406    Zn
H       0.2515   0.1298    0.192     H
H       0.2515   0.8702    0.808     H
O       0.2544   0.2884   0.1369     O
O       0.2544   0.7116   0.8631     O
C       0.2776      0.5      0.0     C
C       0.3248   0.1265   0.2046     C
C       0.3248   0.8735   0.7954     C
C       0.3372   0.2984    0.172     C
C       0.3372   0.7016    0.828     C
N       0.3443   0.4702   0.0532     N
N       0.3443   0.5298   0.9468     N
N       0.3608   0.0441    0.228     N
N       0.3608   0.9559    0.772     N
H       0.3715   0.3957   0.9145     H
H       0.3715   0.6043   0.0855     H
O       0.3719   0.3799   0.1869     O
O       0.3719   0.6201   0.8131     O
H       0.3722   0.3321   0.0188     H
H       0.3722   0.6679   0.9812     H
O        0.383    0.172  0.75339     O
O        0.383    0.828  0.24661     O
C       0.3905   0.2092   0.1975     C
C       0.3905   0.7908   0.8025     C
H       0.3917   0.3864    0.755     H
H       0.3917   0.6136    0.245     H
H       0.3997   0.0185   0.5342     H
H       0.3997   0.9815   0.4658     H
O       0.4001   0.1907   0.6511     O
O       0.4001   0.8093   0.3489     O
C       0.4163   0.4493   0.9288     C
C       0.4163   0.5507   0.0712     C
C       0.4179   0.3859   0.0319     C
C       0.4179   0.6141   0.9681     C
C       0.4215   0.2107   0.7053     C
C       0.4215   0.7893   0.2947     C
C       0.4469      0.0      0.5     C
H       0.4633   0.4696   0.8949     H
H       0.4633   0.5304   0.1051     H
H       0.4636   0.3642    0.066     H
H       0.4636   0.6358    0.934     H
C       0.4643   0.3813   0.7414     C
C       0.4643   0.6187   0.2586     C
C       0.4667    0.042   0.2472     C
C       0.4667    0.958   0.7528     C
N       0.4866   0.4166   0.9816     N
N       0.4866   0.5834   0.0184     N
H       0.4935   0.0144   0.7348     H
H       0.4935   0.9856   0.2652     H
C       0.4991   0.2048   0.2156     C
C       0.4991   0.7952   0.7844     C
C       0.5009   0.2952   0.7156     C
C       0.5009   0.7048   0.2844     C
H       0.5065   0.4856   0.2348     H
H       0.5065   0.5144   0.7652     H
N       0.5134   0.0834   0.4816     N
N       0.5134   0.9166   0.5184     N
C       0.5333    0.458   0.7472     C
C       0.5333    0.542   0.2528     C
C       0.5357   0.1187   0.2414     C
C       0.5357   0.8813   0.7586     C
H       0.5364   0.1358    0.566     H
H       0.5364   0.8642    0.434     H
H       0.5367   0.0304   0.3949     H
H       0.5367   0.9696   0.6051     H
C       0.5531      0.5      0.0     C
C       0.5785   0.2893   0.2053     C
C       0.5785   0.7107   0.7947     C
C       0.5821   0.1141   0.5319     C
C       0.5821   0.8859   0.4681     C
C       0.5837   0.0507   0.4288     C
C       0.5837   0.9493   0.5712     C
O       0.5999   0.3093   0.1511     O
O       0.5999   0.6907   0.8489     O
H       0.6003   0.4815   0.0342     H
H       0.6003   0.5185   0.9658     H
H       0.6083   0.1136    0.255     H
H       0.6083   0.8864    0.745     H
C       0.6095   0.2908   0.6975     C
C       0.6095   0.7092   0.3025     C
O        0.617    0.328  0.25339     O
O        0.617    0.672  0.74661     O
H       0.6278   0.1679   0.5188     H
H       0.6278   0.8321   0.4812     H
O       0.6281   0.1201   0.6869     O
O       0.6281   0.8799   0.3131     O
H       0.6285   0.1043   0.4145     H
H       0.6285   0.8957   0.5855     H
N       0.6392   0.4559    0.728     N
N       0.6392   0.5441    0.272     N
N       0.6557   0.0298   0.5532     N
N       0.6557   0.9702   0.4468     N
C       0.6628   0.2016    0.672     C
C       0.6628   0.7984    0.328     C
C       0.6752   0.3735   0.7046     C
C       0.6752   0.6265   0.2954     C
C       0.7224      0.0      0.5     C
O       0.7456   0.2116   0.6369     O
O       0.7456   0.7884   0.3631     O
H       0.7485   0.3702    0.692     H
H       0.7485   0.6298    0.308     H
Zn     0.75154  0.42514  0.25594    Zn
Zn     0.75154  0.57486  0.74406    Zn
Zn     0.76621  0.06766  0.62579    Zn
Zn     0.76621  0.93234  0.37421    Zn
H        0.769   0.2189   0.2892     H
H        0.769   0.7811   0.7108     H
H       0.7695   0.0533   0.4878     H
H       0.7695   0.9467   0.5122     H
O       0.7879   0.0635   0.3376     O
O       0.7879   0.9365   0.6624     O
C       0.8293   0.2188   0.2626     C
C       0.8293   0.7812   0.7374     C
C       0.8497   0.0462   0.2905     C
C       0.8497   0.9538   0.7095     C
N       0.8539   0.3016   0.2345     N
N       0.8539   0.6984   0.7655     N
O       0.8781   0.0358    0.724     O
O       0.8781   0.9642    0.276     O
C       0.8863   0.1322   0.2556     C
C       0.8863   0.8678   0.7444     C
O       0.8874   0.4782   0.7442     O
O       0.8874   0.5218   0.2558     O
C       0.9386   0.3001   0.1962     C
C       0.9386   0.6999   0.8038     C
H        0.943   0.2818   0.6556     H
H        0.943   0.7182   0.3444     H
C       0.9524   0.4566   0.7016     C
C       0.9524   0.5434   0.2984     C
H       0.9588   0.3572   0.1765     H
H       0.9588   0.6428   0.8235     H
O       0.9609   0.4936     0.65     O
O       0.9609   0.5064     0.35     O
C       0.9729   0.1317   0.2138     C
C       0.9729   0.8683   0.7862     C
C       0.9992   0.2166   0.1838     C
C       0.9992   0.7834   0.8162     C
