data_I
_chemical_name_common  '/home/zhangsd/repos/MofS-CGCNN/ML/data/TSD/clean_cifs/HOWSAP_clean'
_cell_length_a 21.78000
_cell_length_b 10.85510
_cell_length_c 19.44050
_cell_angle_alpha 90.00000
_cell_angle_beta  92.08800
_cell_angle_gamma 90.00000
_space_group_name_H-M_alt      'P 1'


loop_
_space_group_symop_operation_xyz
  'x, y, z' 

loop_
_atom_site_label
_atom_site_fract_x
_atom_site_fract_y
_atom_site_fract_z
_atom_site_type_symbol
C      0.01178   0.6722  0.31712     C
C      0.01326   0.7438  0.74623     C
O        0.016   0.8295  0.87967     O
Cu     0.01941  0.00857  0.43772    Cu
H         0.02    0.621    0.664     H
H       0.0259    0.827   0.7332     H
H       0.0273   0.7282   0.3526     H
C       0.0339   0.7927   0.1452     C
O      0.03923   0.1413  0.58152     O
N      0.03966   0.7489  0.20966     N
H       0.0478   0.5197   0.2668     H
O      0.04839   0.8923  0.58008     O
H       0.0535   0.6239   0.5499     H
O      0.05588    0.572  0.80769     O
H       0.0606   0.6921   0.0258     H
C      0.06376   0.5931  0.28963     C
C      0.06729   0.6732  0.77965     C
O      0.07277   0.8737  0.46863     O
C      0.07898   0.8485  0.53154     C
C      0.08035   0.1631  0.53838     C
O      0.08092   0.1235  0.47748     O
H       0.0844   0.6155   0.4392     H
C      0.09119   0.7973  0.10487     C
H       0.0928   0.5692   0.3263     H
C      0.09321   0.6799  0.23882     C
C      0.09438   0.7365  0.04282     C
H       0.0956   0.2967   0.6523     H
C      0.09771   0.6212   0.5453     C
C      0.11373   0.5823    0.473     C
H       0.1138   0.6345   0.2034     H
H       0.1143   0.4933   0.4689     H
H       0.1153   0.5648   0.5793     H
O      0.11619   0.5804  0.93102     O
O      0.12006   0.7213  0.77201     O
Cu     0.12248   0.4754  0.84978    Cu
H       0.1225   0.7346    0.262     H
C      0.12607   0.7509  0.55368     C
C      0.12923   0.3071  0.62475     C
C      0.13213   0.2443  0.56251     C
H       0.1385   0.9101   0.1714     H
H       0.1406   0.7646   0.6014     H
O      0.14102   0.4072  0.75719     O
C      0.14114   0.8671  0.13019     C
C      0.14751    0.741   0.0056     C
C      0.15095   0.6727    0.939     C
C      0.17293   0.4557   0.7118     C
C      0.17706   0.3858  0.64549     C
N      0.17774   0.7477  0.50773     N
C      0.17775   0.6364   0.4636     C
H       0.1837   0.6578   0.4158     H
C      0.18464   0.2537  0.52291     C
H       0.1877   0.2071   0.4831     H
O       0.1891   0.7122  0.89634     O
C      0.19509   0.8719  0.09314     C
Cu     0.19824  0.64524  0.80397    Cu
O      0.19848   0.4045   0.8911     O
C      0.19869   0.8075   0.0313     C
O      0.20155   0.5566   0.7164     O
O      0.20399   0.9429  0.53253     O
H       0.2096    0.579   0.4788     H
C      0.21383   0.8458  0.50184     C
C      0.22736   0.4011  0.60378     C
C      0.23173   0.3324  0.54329     C
H       0.2348   0.8087   0.0072     H
O       0.2365   0.0342  0.15941     O
H       0.2419   0.9571   0.3837     H
C       0.2488   0.9419  0.12267     C
C       0.2512   0.4419  0.87733     C
H       0.2581   0.4571   0.6163     H
O       0.2635   0.5342  0.84059     O
H       0.2652   0.3087   0.9928     H
C      0.26827   0.8324  0.45671     C
C      0.27264   0.9011  0.39622     C
C      0.28617   0.3458  0.49816     C
H       0.2904    0.079   0.5212     H
O      0.29601   0.4429  0.46747     O
O      0.29845   0.0566   0.2836     O
C      0.30131   0.3075   0.9687     C
O      0.30152   0.9045   0.1089     O
Cu     0.30176  0.14524  0.19603    Cu
C      0.30491   0.3719  0.90686     C
O       0.3109   0.2122  0.10366     O
H       0.3123   0.7071   0.5169     H
C      0.31536   0.7537  0.47709     C
H       0.3163   0.1578   0.5842     H
C      0.32225   0.1364   0.5364     C
N      0.32226   0.2477  0.49227     N
C      0.32294   0.8858  0.35451     C
C      0.32707   0.9557   0.2882     C
C      0.34905   0.1727    0.061     C
C      0.35249    0.241   0.9944     C
C      0.35886   0.3671  0.86981     C
O      0.35898   0.9072  0.24281     O
H       0.3594   0.2646   0.3986     H
H       0.3615   0.4101   0.8286     H
C      0.36787   0.7443  0.43749     C
C      0.37077   0.8071  0.37525     C
C      0.37393   0.2509  0.44632     C
H       0.3775   0.2346    0.738     H
Cu     0.37752   0.9754  0.15022    Cu
O      0.37994   0.2213  0.22799     O
O      0.38381   0.0804  0.06898     O
H       0.3847   0.0648   0.4207     H
H       0.3857   0.9933   0.5311     H
H       0.3862   0.1345   0.7966     H
C      0.38627   0.0823    0.527     C
C      0.40229   0.1212   0.4547     C
H       0.4044   0.7967   0.3477     H
C      0.40562   0.2365  0.95718     C
C      0.40679   0.1799  0.76118     C
H       0.4072   0.0692   0.6737     H
C      0.40881   0.2973  0.89513     C
H       0.4156   0.1155   0.5608     H
O      0.41908   0.6235  0.52252     O
C      0.41965   0.6631  0.46162     C
C      0.42102   0.3485  0.46846     C
O      0.42723   0.3737  0.53137     O
C      0.43271   0.1732  0.22035     C
C      0.43624   0.0931  0.71037     C
H       0.4394   0.1921   0.9742     H
O      0.44412    0.072  0.19231     O
H       0.4465   0.1239   0.4501     H
O      0.45161   0.3923  0.41992     O
H       0.4522   0.0197   0.7332     H
N      0.46034   0.2489  0.79034     N
O      0.46077   0.6413  0.41848     O
C       0.4661   0.2927   0.8548     C
H       0.4727   0.2282   0.6474     H
H       0.4741    0.327   0.2668     H
H         0.48    0.121    0.336     H
Cu     0.48059  0.50857  0.56228    Cu
O        0.484   0.3295  0.12033     O
C      0.48674   0.2438  0.25377     C
C      0.48822   0.1722  0.68288     C
C      0.51178   0.1722  0.31712     C
C      0.51326   0.2438  0.74623     C
O        0.516   0.3295  0.87967     O
Cu     0.51941  0.50857  0.43772    Cu
H         0.52    0.121    0.664     H
H       0.5259    0.327   0.7332     H
H       0.5273   0.2282   0.3526     H
C       0.5339   0.2927   0.1452     C
O      0.53923   0.6413  0.58152     O
N      0.53966   0.2489  0.20966     N
H       0.5478   0.0197   0.2668     H
O      0.54839   0.3923  0.58008     O
H       0.5535   0.1239   0.5499     H
O      0.55588    0.072  0.80769     O
H       0.5606   0.1921   0.0258     H
C      0.56376   0.0931  0.28963     C
C      0.56729   0.1732  0.77965     C
O      0.57277   0.3737  0.46863     O
C      0.57898   0.3485  0.53154     C
C      0.58035   0.6631  0.53838     C
O      0.58092   0.6235  0.47748     O
H       0.5844   0.1155   0.4392     H
C      0.59119   0.2973  0.10487     C
H       0.5928   0.0692   0.3263     H
C      0.59321   0.1799  0.23882     C
C      0.59438   0.2365  0.04282     C
H       0.5956   0.7967   0.6523     H
C      0.59771   0.1212   0.5453     C
C      0.61373   0.0823    0.473     C
H       0.6138   0.1345   0.2034     H
H       0.6143   0.9933   0.4689     H
H       0.6153   0.0648   0.5793     H
O      0.61619   0.0804  0.93102     O
O      0.62006   0.2213  0.77201     O
Cu     0.62248   0.9754  0.84978    Cu
H       0.6225   0.2346    0.262     H
C      0.62607   0.2509  0.55368     C
C      0.62923   0.8071  0.62475     C
C      0.63213   0.7443  0.56251     C
H       0.6385   0.4101   0.1714     H
H       0.6406   0.2646   0.6014     H
O      0.64102   0.9072  0.75719     O
C      0.64114   0.3671  0.13019     C
C      0.64751    0.241   0.0056     C
C      0.65095   0.1727    0.939     C
C      0.67293   0.9557   0.7118     C
C      0.67706   0.8858  0.64549     C
N      0.67774   0.2477  0.50773     N
C      0.67775   0.1364   0.4636     C
H       0.6837   0.1578   0.4158     H
C      0.68464   0.7537  0.52291     C
H       0.6877   0.7071   0.4831     H
O       0.6891   0.2122  0.89634     O
C      0.69509   0.3719  0.09314     C
Cu     0.69824  0.14524  0.80397    Cu
O      0.69848   0.9045   0.8911     O
C      0.69869   0.3075   0.0313     C
O      0.70155   0.0566   0.7164     O
O      0.70399   0.4429  0.53253     O
H       0.7096    0.079   0.4788     H
C      0.71383   0.3458  0.50184     C
C      0.72736   0.9011  0.60378     C
C      0.73173   0.8324  0.54329     C
H       0.7348   0.3087   0.0072     H
O       0.7365   0.5342  0.15941     O
H       0.7419   0.4571   0.3837     H
C       0.7488   0.4419  0.12267     C
C       0.7512   0.9419  0.87733     C
H       0.7581   0.9571   0.6163     H
O       0.7635   0.0342  0.84059     O
H       0.7652   0.8087   0.9928     H
C      0.76827   0.3324  0.45671     C
C      0.77264   0.4011  0.39622     C
C      0.78617   0.8458  0.49816     C
H       0.7904    0.579   0.5212     H
O      0.79601   0.9429  0.46747     O
O      0.79845   0.5566   0.2836     O
C      0.80131   0.8075   0.9687     C
O      0.80152   0.4045   0.1089     O
Cu     0.80176  0.64524  0.19603    Cu
C      0.80491   0.8719  0.90686     C
O       0.8109   0.7122  0.10366     O
H       0.8123   0.2071   0.5169     H
C      0.81536   0.2537  0.47709     C
H       0.8163   0.6578   0.5842     H
C      0.82225   0.6364   0.5364     C
N      0.82226   0.7477  0.49227     N
C      0.82294   0.3858  0.35451     C
C      0.82707   0.4557   0.2882     C
C      0.84905   0.6727    0.061     C
C      0.85249    0.741   0.9944     C
C      0.85886   0.8671  0.86981     C
O      0.85898   0.4072  0.24281     O
H       0.8594   0.7646   0.3986     H
H       0.8615   0.9101   0.8286     H
C      0.86787   0.2443  0.43749     C
C      0.87077   0.3071  0.37525     C
C      0.87393   0.7509  0.44632     C
H       0.8775   0.7346    0.738     H
Cu     0.87752   0.4754  0.15022    Cu
O      0.87994   0.7213  0.22799     O
O      0.88381   0.5804  0.06898     O
H       0.8847   0.5648   0.4207     H
H       0.8857   0.4933   0.5311     H
H       0.8862   0.6345   0.7966     H
C      0.88627   0.5823    0.527     C
C      0.90229   0.6212   0.4547     C
H       0.9044   0.2967   0.3477     H
C      0.90562   0.7365  0.95718     C
C      0.90679   0.6799  0.76118     C
H       0.9072   0.5692   0.6737     H
C      0.90881   0.7973  0.89513     C
H       0.9156   0.6155   0.5608     H
O      0.91908   0.1235  0.52252     O
C      0.91965   0.1631  0.46162     C
C      0.92102   0.8485  0.46846     C
O      0.92723   0.8737  0.53137     O
C      0.93271   0.6732  0.22035     C
C      0.93624   0.5931  0.71037     C
H       0.9394   0.6921   0.9742     H
O      0.94412    0.572  0.19231     O
H       0.9465   0.6239   0.4501     H
O      0.95161   0.8923  0.41992     O
H       0.9522   0.5197   0.7332     H
N      0.96034   0.7489  0.79034     N
O      0.96077   0.1413  0.41848     O
C       0.9661   0.7927   0.8548     C
H       0.9727   0.7282   0.6474     H
H       0.9741    0.827   0.2668     H
H         0.98    0.621    0.336     H
Cu     0.98059  0.00857  0.56228    Cu
O        0.984   0.8295  0.12033     O
C      0.98674   0.7438  0.25377     C
C      0.98822   0.6722  0.68288     C
