data_I
_chemical_name_common  '/home/zhangsd/repos/MofS-CGCNN/ML/data/TSD/clean_cifs/HOWSIX_clean'
_cell_length_a 12.50850
_cell_length_b 12.50850
_cell_length_c 70.22840
_cell_angle_alpha 90.00000
_cell_angle_beta  90.00000
_cell_angle_gamma 90.00000
_space_group_name_H-M_alt      'P 1'


loop_
_space_group_symop_operation_xyz
  'x, y, z' 

loop_
_atom_site_label
_atom_site_fract_x
_atom_site_fract_y
_atom_site_fract_z
_atom_site_type_symbol
O       0.0086   0.4744  0.00058     O
N       0.0095   0.2133  0.10293     N
O       0.0102   0.7428  0.14224     O
H       0.0111   0.3668   0.6867     H
C       0.0142   0.3442  0.64895     C
C        0.015    0.913   0.7532     C
O       0.0171   0.9292  0.90433     O
C       0.0174   0.2777   0.2532     C
C        0.019    0.457  0.15096     C
H       0.0195   0.4558   0.1648     H
C       0.0201   0.6377  0.31485     C
O       0.0214   0.0433  0.62445     O
O       0.0232   0.3447  0.77709     O
H        0.025   0.1501   0.1287     H
C        0.025   0.9724  0.61169     C
Cu     0.02522  0.34519  0.74971    Cu
O       0.0256   0.5086  0.75058     O
O        0.026   0.8632  0.07423     O
H       0.0272   0.3952   0.8603     H
C       0.0276    0.975  0.88831     C
H       0.0311   0.1671   0.8847     H
N       0.0352   0.5656  0.14388     N
C       0.0384   0.1274  0.11554     C
C       0.0406   0.6285  0.33461     C
C       0.0416   0.3893  0.84737     C
C        0.043    0.519  0.90096     C
O       0.0433   0.0214  0.37555     O
O       0.0433    0.294   0.0047     O
H       0.0442   0.5195   0.9148     H
C       0.0465   0.6416  0.87504     C
H       0.0486   0.5716   0.6465     H
O       0.0506   0.1959  0.74914     O
C       0.0541    0.159   0.2509     C
O       0.0558   0.3544  0.72217     O
C       0.0568   0.3939  0.00373     C
H       0.0589    0.716   0.8719     H
Cu     0.05919   0.1869  0.61729    Cu
N       0.0656   0.4648  0.39388     N
H       0.0672   0.2177   0.0758     H
C       0.0685   0.3774  0.37981     C
H       0.0686   0.5975   0.8644     H
O       0.0708   0.9829  0.59567     O
H       0.0716   0.4514   0.8965     H
H       0.0757   0.6511   0.3064     H
H       0.0766   0.1625   0.9142     H
O       0.0797   0.8062   0.1031     O
C       0.0799   0.7337  0.60471     C
C       0.0808   0.6817   0.7516     C
C       0.0812   0.3624  0.68233     C
C       0.0813   0.3733  0.80841     C
C        0.087    0.985   0.7468     C
H       0.0886    0.321   0.1403     H
C       0.0943   0.2274  0.08858     C
C       0.0966   0.8376  0.08637     C
H       0.0975   0.4314   0.1144     H
O       0.0985   0.3287  0.60798     O
O       0.1006   0.2587   0.4057     O
C       0.1011   0.3565  0.66321     C
O       0.1014   0.7201  0.47697     O
H       0.1017   0.6092   0.1185     H
C       0.1018    0.645  0.59079     C
Cu      0.1036  0.72324  0.50453    Cu
H       0.1048   0.5272   0.6103     H
C       0.1061   0.5568  0.75373     C
C       0.1063   0.1513   0.8867     C
C       0.1063   0.6104  0.89316     C
H       0.1065   0.7366   0.5668     H
H       0.1083   0.6694   0.9021     H
C       0.1085   0.3664  0.78797     C
H       0.1092   0.3983   0.3685     H
C       0.1104   0.3937  0.14316     C
C       0.1107   0.5416  0.59737     C
C       0.1109   0.6667  0.57124     C
C       0.1137   0.2737  0.38863     C
O       0.1174   0.6974  0.53192     O
Cu     0.11801  0.12023  0.41687    Cu
Cu     0.12023  0.11801  0.58313    Cu
C       0.1226   0.5685  0.12981     C
C       0.1239   0.3453  0.59127     C
C       0.1267   0.5813  0.55841     C
C       0.1274   0.0384  0.88446     C
H       0.1277   0.2972   0.0896     H
C       0.1277   0.6424  0.46657     C
C       0.1285   0.4594  0.58461     C
C       0.1287   0.8713     0.75     C
H       0.1332   0.5111   0.4367     H
C       0.1336   0.6085  0.53797     C
O       0.1368    0.974  0.42577     O
C       0.1373    0.172   0.9058     C
C       0.1376   0.5812  0.43233     C
C       0.1377   0.4799  0.56485     C
C       0.1383   0.6655  0.44534     C
H       0.1384   0.8276   0.4482     H
O       0.1405     0.75  0.61838     O
C       0.1416   0.4535  0.12504     C
C       0.1424   0.3723  0.71657     C
C       0.1434   0.7718  0.43947     C
C       0.1435   0.6011  0.41321     C
C       0.1442   0.1875  0.75257     C
C        0.145   0.3982  0.84079     C
C        0.145    0.758   0.7541     C
O       0.1456   0.5558  0.47217     O
O       0.1464   0.2698  0.57905     O
H       0.1484   0.1933   0.8778     H
H       0.1501    0.025   0.8713     H
H       0.1511   0.4243   0.5564     H
C       0.1513   0.1063   0.1133     C
O       0.1542    0.209  0.37644     O
C       0.1547   0.6239  0.34127     C
Cu     0.15481  0.52522  0.49971    Cu
O       0.1553   0.5232  0.52709     O
C       0.1558   0.5142  0.39895     C
C       0.1563   0.7913  0.42015     C
C       0.1583   0.7087  0.40722     C
C        0.159   0.0541   0.7491     C
H       0.1621   0.2452    0.907     H
C       0.1624   0.9034  0.41363     C
H       0.1625   0.0766   0.0858     H
C       0.1655   0.3617  0.69534     C
C       0.1667   0.3891  0.82124     C
H       0.1671   0.0311   0.1153     H
H       0.1694   0.3917   0.1521     H
H       0.1695   0.7234   0.3944     H
O       0.1713   0.5985  0.35798     O
C        0.172   0.1373   0.0942     C
H       0.1724   0.8616   0.0518     H
H        0.179   0.5886   0.8903     H
C       0.1817   0.4192   0.0016     C
Cu      0.1869  0.05919  0.38271    Cu
C       0.1875   0.1442  0.24743     C
H       0.1933   0.1484   0.1222     H
O       0.1938   0.9203   0.3969     O
O       0.1959   0.0506  0.25086     O
O       0.1974   0.3826  0.78192     O
H       0.2028   0.6277   0.8396     H
O        0.206   0.5433   0.7547     O
C       0.2087   0.3417  0.65722     C
C       0.2087   0.8437  0.07985     C
O        0.209   0.1542  0.62356     O
N       0.2133   0.0095  0.89707     N
H        0.216   0.4411   0.1219     H
H       0.2177   0.0672   0.9242     H
O       0.2201   0.3986  0.72697     O
C       0.2223   0.5174   0.0032     C
Cu     0.22324   0.3964  0.75453    Cu
H       0.2234   0.3305   0.6444     H
O       0.2245   0.2292  0.75404     O
C       0.2263   0.6137  0.13863     C
C       0.2274   0.0943  0.91142     C
C       0.2282   0.8566  0.06053     C
O       0.2292   0.2245  0.24596     O
O       0.2302   0.6464  0.32905     O
C       0.2337   0.4201  0.85471     C
H       0.2366   0.3935   0.8168     H
O       0.2413   0.6006   0.1557     O
C        0.242    0.855   0.7459     C
O       0.2428   0.4898  0.39224     O
H       0.2452   0.1621    0.093     H
O         0.25   0.3595  0.86838     O
O         0.25   0.8595  0.88162     O
H       0.2548   0.6621    0.657     H
O       0.2572   0.9898  0.35776     O
C        0.258    0.355   0.0041     C
O       0.2587   0.1006   0.5943     O
H       0.2634   0.8935   0.9332     H
C       0.2663   0.9201  0.89529     C
O       0.2698   0.1464  0.42095     O
O       0.2708   0.7245  0.50404     O
C       0.2718   0.3566  0.68947     C
C       0.2726   0.5943  0.83858     C
C       0.2737   0.1137  0.61137     C
O       0.2755   0.7292  0.99596     O
H       0.2766   0.8305   0.1056     H
Cu     0.27676   0.8964  0.99547    Cu
C       0.2777   0.0174   0.7468     C
O       0.2799   0.8986  0.02303     O
H       0.2823   0.5672   0.8258     H
H        0.284   0.9411   0.6281     H
N       0.2867   0.5095  0.85293     N
O        0.291   0.6542  0.12644     O
C       0.2913   0.3437  0.67015     C
C       0.2913   0.8417  0.09278     C
O        0.294   0.0433   0.9953     O
H       0.2972   0.1277   0.9104     H
O       0.3026   0.8826  0.96808     O
O       0.3041   0.5506  0.49914     O
O       0.3062   0.4203   0.3531     O
H       0.3067   0.6484   0.6278     H
C       0.3125   0.6442  0.50257     C
Cu      0.3131  0.55919  0.36729    Cu
C       0.3183   0.9192   0.7484     C
H        0.321   0.0886   0.8597     H
H       0.3276   0.3616   0.6982     H
C        0.328   0.6373   0.6558     C
O       0.3287   0.0985  0.39202     O
H       0.3305   0.2234   0.3556     H
H       0.3306   0.8917   0.5979     H
H       0.3329   0.5311   0.6347     H
C       0.3333   0.8891  0.92876     C
C       0.3345   0.8617  0.05466     C
H       0.3375   0.5766   0.6642     H
C       0.3376   0.4034  0.33637     C
H       0.3379   0.7452    0.843     H
C        0.341   0.5541   0.0009     C
C       0.3417   0.2087  0.34278     C
C       0.3437   0.2913  0.32985     C
C       0.3442   0.0142  0.35105     C
O       0.3447   0.0232  0.22291     O
Cu     0.34519  0.02522  0.25029    Cu
C       0.3453   0.1239  0.40873     C
O       0.3458    0.709  0.37356     O
C       0.3487   0.6063   0.6367     C
H       0.3489   0.9243   0.1936     H
H       0.3499    0.525   0.8787     H
H       0.3516   0.6933   0.8722     H
O       0.3536   0.7698  0.17095     O
O       0.3544   0.0558  0.27783     O
C        0.355    0.258   0.9959     C
C        0.355   0.8982  0.90921     C
C       0.3558   0.6875  0.99743     C
C       0.3565   0.1011  0.33679     C
C       0.3566   0.2718  0.31053     C
C       0.3576   0.8723  0.03343     C
C       0.3584   0.9535  0.62496     C
O       0.3595     0.25  0.13162     O
H       0.3616   0.3276   0.3018     H
C       0.3617   0.1655  0.30466     C
C       0.3623   0.9799  0.18515     C
C       0.3624   0.0812  0.31767     C
C       0.3627    0.672   0.8442     C
O       0.3632    0.474  0.32423     O
C       0.3664   0.1085  0.21203     C
H       0.3668   0.0111   0.3133     H
C       0.3713   0.3713      0.0     C
C       0.3715   0.9594  0.16539     C
C       0.3723   0.1424  0.28343     C
H       0.3723   0.7972   0.6604     H
C       0.3726   0.5384  0.86554     C
C       0.3733   0.0813  0.19159     C
C       0.3761   0.8453  0.15873     C
C       0.3774   0.0685  0.62019     C
Cu     0.37977  0.61801  0.16687    Cu
Cu     0.38199  0.62023  0.33313    Cu
O       0.3826   0.1974  0.21808     O
C       0.3863   0.7737  0.36137     C
C       0.3891   0.1667  0.17876     C
C       0.3893   0.0416  0.15263     C
C       0.3896   0.8937  0.60684     C
H       0.3908   0.8983   0.3815     H
C       0.3915   0.8664  0.96203     C
H       0.3917   0.1694   0.8479     H
H       0.3935   0.2366   0.1832     H
C       0.3937   0.1104  0.85684     C
C       0.3937   0.6513   0.8633     C
C       0.3939   0.0568  0.99627     C
H       0.3952   0.0272   0.1397     H
Cu      0.3964  0.22324  0.24547    Cu
C       0.3982    0.145  0.15921     C
H       0.3983   0.1092   0.6315     H
O       0.3986   0.2201  0.27303     O
C       0.3989   0.8565  0.08679     C
O       0.3994   0.7587   0.3443     O
O       0.4015   0.8287  0.14202     O
H       0.4025   0.9314   0.6356     H
C       0.4034   0.3376  0.66363     C
C       0.4057   0.7274  0.66142     C
H       0.4114    0.821   0.6097     H
C        0.413    0.485   0.0032     C
C       0.4187   0.8733  0.94159     C
C       0.4188   0.8624  0.06767     C
C       0.4192   0.1817   0.9984     C
C       0.4201   0.2337  0.14529     C
O       0.4203   0.3062   0.6469     O
H       0.4234   0.6625   0.8358     H
H       0.4243   0.1511   0.4436     H
H       0.4284   0.9514   0.8535     H
O       0.4292   0.4829  0.15433     O
H       0.4314   0.0975   0.8856     H
C       0.4315   0.8774  0.37019     C
H       0.4328   0.7177   0.6742     H
N       0.4344   0.9648  0.35612     N
Cu     0.44081   0.6869  0.13271    Cu
H       0.4411    0.216   0.8781     H
C       0.4432   0.8939  0.74627     C
O       0.4442   0.8544  0.02783     O
C       0.4459    0.659   0.4991     C
O       0.4494   0.6959  0.00086     O
H       0.4514   0.0716   0.1035     H
C       0.4535   0.1416  0.87496     C
H       0.4558   0.0195   0.8352     H
O       0.4567   0.5214  0.37445     O
O       0.4567    0.794   0.7453     O
C        0.457    0.019  0.84904     C
C       0.4584   0.8893  0.90263     C
C       0.4594   0.1285  0.41539     C
C       0.4616   0.6274  0.63446     C
N       0.4648   0.0656  0.60612     N
H       0.4689   0.6671   0.8653     H
C       0.4724    0.475  0.86169     C
H       0.4728   0.8952   0.8897     H
O        0.474   0.3632  0.67577     O
O       0.4744   0.0086  0.99942     O
Cu     0.47478  0.84519  0.00029    Cu
C        0.475   0.4724  0.13831     C
H        0.475   0.6501   0.6213     H
O       0.4768   0.8447  0.97291     O
O       0.4786   0.5433  0.12555     O
C       0.4799   0.1377  0.43515     C
H       0.4805   0.9558   0.5852     H
C        0.481    0.957  0.59904     C
C       0.4826   0.7777   0.4968     C
O       0.4829   0.4292  0.84567     O
C        0.485    0.413   0.9968     C
C       0.4858   0.8442  0.10105     C
H       0.4889   0.8668   0.0633     H
O       0.4898   0.2428  0.60776     O
N       0.4905   0.7133  0.64707     N
O       0.4914   0.9744  0.74942     O
O       0.5086   0.0256  0.24942     O
N       0.5095   0.2867  0.14707     N
O       0.5102   0.7572  0.10776     O
H       0.5111   0.1332   0.5633     H
C       0.5142   0.1558  0.60105     C
C        0.515    0.587   0.4968     C
O       0.5171   0.5708  0.34567     O
C       0.5174   0.2223   0.9968     C
C        0.519    0.043  0.09904     C
H       0.5195   0.0442   0.0852     H
C       0.5201   0.8623  0.93515     C
O       0.5214   0.4567  0.62555     O
O       0.5232   0.1553  0.47291     O
H        0.525   0.3499   0.1213     H
C        0.525   0.5276  0.63831     C
Cu     0.52522  0.15481  0.50029    Cu
O       0.5256   0.9914  0.49942     O
O        0.526   0.6368  0.17577     O
H       0.5272   0.1048   0.3897     H
C       0.5276    0.525  0.36169     C
H       0.5311   0.3329   0.3653     H
N       0.5352   0.9344  0.10612     N
C       0.5384   0.3726  0.13446     C
C       0.5406   0.8715  0.91539     C
C       0.5416   0.1107  0.40263     C
C        0.543    0.981  0.34904     C
O       0.5433    0.206   0.2453     O
O       0.5433   0.4786  0.87445     O
H       0.5442   0.9805   0.3352     H
C       0.5465   0.8584  0.37496     C
H       0.5486   0.9284   0.6035     H
O       0.5506   0.3041  0.50086     O
C       0.5541    0.341   0.9991     C
O       0.5558   0.1456  0.52783     O
C       0.5568   0.1061  0.24627     C
H       0.5589    0.784   0.3781     H
Cu     0.55919   0.3131  0.63271    Cu
N       0.5656   0.0352  0.85612     N
H       0.5672   0.2823   0.1742     H
C       0.5685   0.1226  0.87019     C
H       0.5686   0.9025   0.3856     H
O       0.5708   0.5171  0.65433     O
H       0.5716   0.0486   0.3535     H
H       0.5757   0.8489   0.9436     H
H       0.5766   0.3375   0.3358     H
O       0.5797   0.6938   0.1469     O
C       0.5799   0.7663  0.64529     C
C       0.5808   0.8183   0.4984     C
C       0.5812   0.1376  0.56767     C
C       0.5813   0.1267  0.44159     C
C        0.587    0.515   0.5032     C
H       0.5886    0.179   0.1097     H
C       0.5943   0.2726  0.16142     C
C       0.5966   0.6624  0.16363     C
H       0.5975   0.0686   0.1356     H
O       0.5985   0.1713  0.64202     O
O       0.6006   0.2413   0.8443     O
C       0.6011   0.1435  0.58679     C
O       0.6014   0.7799  0.77303     O
H       0.6017   0.8908   0.1315     H
C       0.6018    0.855  0.65921     C
Cu      0.6036  0.77676  0.74547    Cu
H       0.6048   0.9728   0.6397     H
C       0.6061   0.9432  0.49627     C
C       0.6063   0.3487   0.3633     C
C       0.6063   0.8896  0.35684     C
H       0.6065   0.7634   0.6832     H
H       0.6083   0.8306   0.3479     H
C       0.6085   0.1336  0.46203     C
H       0.6092   0.1017   0.8815     H
C       0.6104   0.1063  0.10684     C
C       0.6107   0.9584  0.65263     C
C       0.6109   0.8333  0.67876     C
C       0.6137   0.2263  0.86137     C
O       0.6174   0.8026  0.71808     O
Cu     0.61801  0.37977  0.83313    Cu
Cu     0.62023  0.38199  0.66687    Cu
C       0.6226   0.9315  0.12019     C
C       0.6239   0.1547  0.65873     C
C       0.6267   0.9187  0.69159     C
C       0.6274   0.4616  0.36554     C
H       0.6277   0.2028   0.1604     H
C       0.6277   0.8576  0.78343     C
C       0.6285   0.0406  0.66539     C
C       0.6287   0.6287      0.5     C
H       0.6332   0.9889   0.8133     H
C       0.6336   0.8915  0.71203     C
O       0.6368    0.526  0.82423     O
C       0.6373    0.328   0.3442     C
C       0.6376   0.9188  0.81767     C
C       0.6377   0.0201  0.68515     C
C       0.6383   0.8345  0.80466     C
H       0.6384   0.6724   0.8018     H
O       0.6405     0.75  0.63162     O
C       0.6416   0.0465  0.12496     C
C       0.6424   0.1277  0.53343     C
C       0.6434   0.7282  0.81053     C
C       0.6435   0.8989  0.83679     C
C       0.6442   0.3125  0.49743     C
C        0.645   0.1018  0.40921     C
C        0.645    0.742   0.4959     C
O       0.6456   0.9442  0.77783     O
O       0.6464   0.2302  0.67095     O
H       0.6484   0.3067   0.3722     H
H       0.6501    0.475   0.3787     H
H       0.6511   0.0757   0.6936     H
C       0.6513   0.3937   0.1367     C
O       0.6542    0.291  0.87356     O
C       0.6547   0.8761  0.90873     C
Cu     0.65481  0.97478  0.75029    Cu
O       0.6553   0.9768  0.72291     O
C       0.6558   0.9858  0.85105     C
C       0.6563   0.7087  0.82985     C
C       0.6583   0.7913  0.84278     C
C        0.659   0.4459   0.5009     C
H       0.6621   0.2548    0.343     H
C       0.6624   0.5966  0.83637     C
H       0.6625   0.4234   0.1642     H
C       0.6655   0.1383  0.55466     C
C       0.6667   0.1109  0.42876     C
H       0.6671   0.4689   0.1347     H
H       0.6694   0.1083   0.0979     H
H       0.6695   0.7766   0.8556     H
O       0.6713   0.9015  0.89202     O
C        0.672   0.3627   0.1558     C
H       0.6724   0.6384   0.1982     H
H        0.679   0.9114   0.3597     H
C       0.6817   0.0808   0.2484     C
Cu      0.6869  0.44081  0.86729    Cu
C       0.6875   0.3558  0.00257     C
H       0.6933   0.3516   0.1278     H
O       0.6938   0.5797   0.8531     O
O       0.6959   0.4494  0.99914     O
O       0.6974   0.1174  0.46808     O
H       0.7028   0.8723   0.4104     H
O        0.706   0.9567   0.4953     O
C       0.7087   0.1583  0.59278     C
C       0.7087   0.6563  0.17015     C
O        0.709   0.3458  0.62644     O
N       0.7133   0.4905  0.35293     N
H        0.716   0.0589   0.1281     H
H       0.7177   0.4328   0.3258     H
O       0.7201   0.1014  0.52303     O
C       0.7223   0.9826   0.2468     C
Cu     0.72324   0.1036  0.49547    Cu
H       0.7234   0.1695   0.6056     H
O       0.7245   0.2708  0.49596     O
C       0.7263   0.8863  0.11137     C
C       0.7274   0.4057  0.33858     C
C       0.7282   0.6434  0.18947     C
O       0.7292   0.2755  0.00404     O
O       0.7302   0.8536  0.92095     O
C       0.7337   0.0799  0.39529     C
H       0.7366   0.1065   0.4332     H
O       0.7413   0.8994   0.0943     O
C        0.742    0.645   0.5041     C
O       0.7428   0.0102  0.85776     O
H       0.7452   0.3379    0.157     H
O         0.75   0.1405  0.38162     O
O         0.75   0.6405  0.36838     O
H       0.7548   0.8379    0.593     H
O       0.7572   0.5102  0.89224     O
C        0.758    0.145   0.2459     C
O       0.7587   0.3994   0.6557     O
H       0.7634   0.6065   0.3168     H
C       0.7663   0.5799  0.35471     C
O       0.7698   0.3536  0.82905     O
O       0.7708   0.7755  0.74596     O
C       0.7718   0.1434  0.56053     C
C       0.7726   0.9057  0.41142     C
C       0.7737   0.3863  0.63863     C
O       0.7755   0.7708  0.25404     O
H       0.7766   0.6695   0.1444     H
Cu     0.77676   0.6036  0.25453    Cu
C       0.7777   0.4826   0.5032     C
O       0.7799   0.6014  0.22697     O
H       0.7823   0.9328   0.4242     H
H        0.784   0.5589   0.6219     H
N       0.7867   0.9905  0.39707     N
O        0.791   0.8458  0.12356     O
C       0.7913   0.1563  0.57985     C
C       0.7913   0.6583  0.15722     C
O        0.794   0.4567   0.2547     O
H       0.7972   0.3723   0.3396     H
O       0.8026   0.6174  0.28192     O
O       0.8041   0.9494  0.75086     O
O       0.8062   0.0797   0.8969     O
H       0.8067   0.8516   0.6222     H
C       0.8125   0.8558  0.74743     C
Cu      0.8131  0.94081  0.88271    Cu
C       0.8183   0.5808   0.5016     C
H        0.821   0.4114   0.3903     H
H       0.8276   0.1384   0.5518     H
C        0.828   0.8627   0.5942     C
O       0.8287   0.4015  0.85798     O
H       0.8305   0.2766   0.8944     H
H       0.8306   0.6083   0.6521     H
H       0.8329   0.9689   0.6153     H
C       0.8333   0.6109  0.32124     C
C       0.8345   0.6383  0.19534     C
H       0.8375   0.9234   0.5858     H
C       0.8376   0.0966  0.91363     C
H       0.8379   0.7548    0.407     H
C        0.841   0.9459   0.2491     C
C       0.8417   0.2913  0.90722     C
C       0.8437   0.2087  0.92015     C
C       0.8442   0.4858  0.89895     C
O       0.8447   0.4768  0.02709     O
Cu     0.84519  0.47478  0.99971    Cu
C       0.8453   0.3761  0.84127     C
O       0.8458    0.791  0.87644     O
C       0.8487   0.8937   0.6133     C
H       0.8489   0.5757   0.0564     H
H       0.8499    0.975   0.3713     H
H       0.8516   0.8067   0.3778     H
O       0.8536   0.7302  0.07905     O
O       0.8544   0.4442  0.97217     O
C        0.855    0.242   0.2541     C
C        0.855   0.6018  0.34079     C
C       0.8558   0.8125  0.25257     C
C       0.8565   0.3989  0.91321     C
C       0.8566   0.2282  0.93947     C
C       0.8576   0.6277  0.21657     C
C       0.8584   0.5465  0.62504     C
O       0.8595     0.25  0.11838     O
H       0.8616   0.1724   0.9482     H
C       0.8617   0.3345  0.94534     C
C       0.8623   0.5201  0.06485     C
C       0.8624   0.4188  0.93233     C
C       0.8627    0.828   0.4058     C
O       0.8632    0.026  0.92577     O
C       0.8664   0.3915  0.03797     C
H       0.8668   0.4889   0.9367     H
C       0.8713   0.1287     0.25     C
C       0.8715   0.5406  0.08461     C
C       0.8723   0.3576  0.96657     C
H       0.8723   0.7028   0.5896     H
C       0.8726   0.9616  0.38446     C
C       0.8733   0.4187  0.05841     C
C       0.8761   0.6547  0.09127     C
C       0.8774   0.4315  0.62981     C
Cu     0.87977  0.88199  0.08313    Cu
Cu     0.88199  0.87977  0.91687    Cu
O       0.8826   0.3026  0.03192     O
C       0.8863   0.7263  0.88863     C
C       0.8891   0.3333  0.07124     C
C       0.8893   0.4584  0.09737     C
C       0.8896   0.6063  0.64316     C
H       0.8908   0.6017   0.8685     H
C       0.8915   0.6336  0.28797     C
H       0.8917   0.3306   0.4021     H
H       0.8935   0.2634   0.0668     H
C       0.8937   0.3896  0.39316     C
C       0.8937   0.8487   0.3867     C
C       0.8939   0.4432  0.25373     C
H       0.8952   0.4728   0.1103     H
Cu      0.8964  0.27676  0.00453    Cu
C       0.8982    0.355  0.09079     C
H       0.8983   0.3908   0.6185     H
O       0.8986   0.2799  0.97697     O
C       0.8989   0.6435  0.16321     C
O       0.8994   0.7413   0.9057     O
O       0.9015   0.6713  0.10798     O
H       0.9025   0.5686   0.6144     H
C       0.9034   0.1624  0.58637     C
C       0.9057   0.7726  0.58858     C
H       0.9114    0.679   0.6403     H
C        0.913    0.015   0.2468     C
C       0.9187   0.6267  0.30841     C
C       0.9188   0.6376  0.18233     C
C       0.9192   0.3183   0.2516     C
C       0.9201   0.2663  0.10471     C
O       0.9203   0.1938   0.6031     O
H       0.9234   0.8375   0.4142     H
H       0.9243   0.3489   0.8064     H
H       0.9284   0.5486   0.3965     H
O       0.9292   0.0171  0.09567     O
H       0.9314   0.4025   0.3644     H
C       0.9315   0.6226  0.87981     C
H       0.9328   0.7823   0.5758     H
N       0.9344   0.5352  0.89388     N
Cu     0.94081   0.8131  0.11729    Cu
H       0.9411    0.284   0.3719     H
C       0.9432   0.6061  0.50373     C
O       0.9442   0.6456  0.22217     O
C       0.9459    0.841   0.7509     C
O       0.9494   0.8041  0.24914     O
H       0.9514   0.4284   0.1465     H
C       0.9535   0.3584  0.37504     C
H       0.9558   0.4805   0.4148     H
O       0.9567    0.706   0.5047     O
O       0.9567   0.9786  0.87555     O
C        0.957    0.481  0.40096     C
C       0.9584   0.6107  0.34737     C
C       0.9594   0.3715  0.83461     C
C       0.9616   0.8726  0.61554     C
N       0.9648   0.4344  0.64388     N
H       0.9689   0.8329   0.3847     H
C       0.9724    0.025  0.38831     C
H       0.9728   0.6048   0.3603     H
O        0.974   0.1368  0.57423     O
O       0.9744   0.4914  0.25058     O
Cu     0.97478  0.65481  0.24971    Cu
C        0.975   0.0276  0.11169     C
H        0.975   0.8499   0.6287     H
O       0.9768   0.6553  0.27709     O
O       0.9786   0.9567  0.12445     O
C       0.9799   0.3623  0.81485     C
H       0.9805   0.5442   0.6648     H
C        0.981    0.543  0.65096     C
C       0.9826   0.7223   0.7532     C
O       0.9829   0.0708  0.40433     O
C        0.985    0.087   0.2532     C
C       0.9858   0.6558  0.14895     C
H       0.9889   0.6332   0.1867     H
O       0.9898   0.2572  0.64224     O
N       0.9905   0.7867  0.60293     N
O       0.9914   0.5256  0.50058     O
