data_I
_chemical_name_common  '/home/zhangsd/repos/MofS-CGCNN/ML/data/TSD/clean_cifs/HOXKUB_clean'
_cell_length_a 11.49200
_cell_length_b 17.32600
_cell_length_c 17.32600
_cell_angle_alpha 106.05000
_cell_angle_beta  90.00000
_cell_angle_gamma 90.00000
_space_group_name_H-M_alt      'P 1'


loop_
_space_group_symop_operation_xyz
  'x, y, z' 

loop_
_atom_site_label
_atom_site_fract_x
_atom_site_fract_y
_atom_site_fract_z
_atom_site_type_symbol
H       0.0374   0.4191   0.7124     H
O       0.0461   0.4917   0.5834     O
Yb     0.05522  0.89109  0.51501    Yb
O       0.0607   0.3636   0.4434     O
O       0.0729   0.0851   0.5705     O
O       0.0782   0.6549   0.4028     O
O       0.0803   0.0409   0.3957     O
Yb     0.10633  0.58427  0.49054    Yb
C       0.1072   0.4443   0.7318     C
H       0.1215   0.2267   0.3253     H
O       0.1242   0.7826   0.4195     O
O       0.1279   0.8323   0.6034     O
C       0.1282   0.7111   0.3807     C
H       0.1306   0.4086   0.8371     H
C       0.1385   0.3901   0.4047     C
C       0.1416   0.0602    0.613     C
C       0.1433   0.5121   0.6178     C
O       0.1548   0.7039   0.5731     O
H       0.1583   0.2264   0.6633     H
C       0.1587   0.9885   0.3907     C
C       0.1607   0.4385   0.8046     C
C       0.1621   0.7715   0.6203     C
C       0.1648   0.2576   0.2995     C
O       0.1655   0.9882   0.6059     O
C       0.1686   0.4903   0.6937     C
O       0.1723   0.9436   0.4351     O
O       0.1748   0.4613   0.4235     O
C       0.1837   0.3357   0.3292     C
C       0.1934   0.6893    0.305     C
C       0.1977   0.2004   0.6957     C
C       0.2013   0.1203   0.6816     C
S       0.2106   0.0289  0.24885     S
H       0.2128   0.1735   0.1937     H
O        0.214    0.552   0.5929     O
S       0.2183  0.59252  0.25164     S
C       0.2189    0.227   0.2234     C
C       0.2203   0.7814   0.6979     C
H       0.2292    0.797   0.2839     H
S         0.23  0.87356  0.76656     S
C       0.2386   0.7416   0.2664     C
C       0.2396   0.9815   0.3205     C
C       0.2604   0.4815   0.8205     C
C       0.2614   0.2416   0.7664     C
S         0.27  0.37356  0.26656     S
H       0.2708    0.297   0.7839     H
C       0.2797   0.2814   0.1979     C
C       0.2811    0.727   0.7234     C
S       0.2817  0.09252  0.75164     S
O        0.286    0.052   0.0929     O
H       0.2872   0.6735   0.6937     H
S       0.2894   0.5289  0.74885     S
C       0.2987   0.6203   0.1816     C
C       0.3023   0.7004   0.1957     C
C       0.3066   0.1893    0.805     C
C       0.3163   0.8357   0.8292     C
O       0.3252   0.9613   0.9235     O
O       0.3277   0.4436   0.9351     O
C       0.3314   0.9903   0.1937     C
O       0.3345   0.4882   0.1059     O
C       0.3352   0.7576   0.7995     C
C       0.3379   0.2715   0.1203     C
C       0.3393   0.9385   0.3046     C
C       0.3413   0.4885   0.8907     C
H       0.3417   0.7264   0.1633     H
O       0.3452   0.2039   0.0731     O
C       0.3567   0.0121   0.1178     C
C       0.3584   0.5602    0.113     C
C       0.3615   0.8901   0.9047     C
H       0.3694   0.9086   0.3371     H
C       0.3718   0.2111   0.8807     C
O       0.3721   0.3323   0.1034     O
O       0.3758   0.2826   0.9195     O
H       0.3785   0.7267   0.8253     H
C       0.3928   0.9443   0.2318     C
Yb     0.39367  0.08427  0.99054    Yb
O       0.4197   0.5409   0.8957     O
O       0.4218   0.1549   0.9028     O
O       0.4271   0.5851   0.0705     O
O       0.4393   0.8636   0.9434     O
Yb     0.44478  0.39109  0.01501    Yb
O       0.4539   0.9917   0.0834     O
H       0.4626   0.9191   0.2124     H
H       0.5374   0.0809   0.7876     H
O       0.5461   0.0083   0.9166     O
Yb     0.55522  0.60891  0.98499    Yb
O       0.5607   0.1364   0.0566     O
O       0.5729   0.4149   0.9295     O
O       0.5782   0.8451   0.0972     O
O       0.5803   0.4591   0.1043     O
Yb     0.60633  0.91573  0.00946    Yb
C       0.6072   0.0557   0.7682     C
H       0.6215   0.2733   0.1747     H
O       0.6242   0.7174   0.0805     O
O       0.6279   0.6677   0.8966     O
C       0.6282   0.7889   0.1193     C
H       0.6306   0.0914   0.6629     H
C       0.6385   0.1099   0.0953     C
C       0.6416   0.4398    0.887     C
C       0.6433   0.9879   0.8822     C
O       0.6548   0.7961   0.9269     O
H       0.6583   0.2736   0.8367     H
C       0.6587   0.5115   0.1093     C
C       0.6607   0.0615   0.6954     C
C       0.6621   0.7285   0.8797     C
C       0.6648   0.2424   0.2005     C
O       0.6655   0.5118   0.8941     O
C       0.6686   0.0097   0.8063     C
O       0.6723   0.5564   0.0649     O
O       0.6748   0.0387   0.0765     O
C       0.6837   0.1643   0.1708     C
C       0.6934   0.8107    0.195     C
C       0.6977   0.2996   0.8043     C
C       0.7013   0.3797   0.8184     C
S       0.7106   0.4711  0.25115     S
H       0.7128   0.3265   0.3063     H
O        0.714    0.948   0.9071     O
S       0.7183  0.90748  0.24836     S
C       0.7189    0.273   0.2766     C
C       0.7203   0.7186   0.8021     C
H       0.7292    0.703   0.2161     H
S         0.73  0.62644  0.73344     S
C       0.7386   0.7584   0.2336     C
C       0.7396   0.5185   0.1795     C
C       0.7604   0.0185   0.6795     C
C       0.7614   0.2584   0.7336     C
S         0.77  0.12644  0.23344     S
H       0.7708    0.203   0.7161     H
C       0.7797   0.2186   0.3021     C
C       0.7811    0.773   0.7766     C
S       0.7817  0.40748  0.74836     S
O        0.786    0.448   0.4071     O
H       0.7872   0.8265   0.8063     H
S       0.7894   0.9711  0.75115     S
C       0.7987   0.8797   0.3184     C
C       0.8023   0.7996   0.3043     C
C       0.8066   0.3107    0.695     C
C       0.8163   0.6643   0.6708     C
O       0.8252   0.5387   0.5765     O
O       0.8277   0.0564   0.5649     O
C       0.8314   0.5097   0.3063     C
O       0.8345   0.0118   0.3941     O
C       0.8352   0.7424   0.7005     C
C       0.8379   0.2285   0.3797     C
C       0.8393   0.5615   0.1954     C
C       0.8413   0.0115   0.6093     C
H       0.8417   0.7736   0.3367     H
O       0.8452   0.2961   0.4269     O
C       0.8567   0.4879   0.3822     C
C       0.8584   0.9398    0.387     C
C       0.8615   0.6099   0.5953     C
H       0.8694   0.5914   0.1629     H
C       0.8718   0.2889   0.6193     C
O       0.8721   0.1677   0.3966     O
O       0.8758   0.2174   0.5805     O
H       0.8785   0.7733   0.6747     H
C       0.8928   0.5557   0.2682     C
Yb     0.89367  0.41573  0.50946    Yb
O       0.9197   0.9591   0.6043     O
O       0.9218   0.3451   0.5972     O
O       0.9271   0.9149   0.4295     O
O       0.9393   0.6364   0.5566     O
Yb     0.94478  0.10891  0.48499    Yb
O       0.9539   0.5083   0.4166     O
H       0.9626   0.5809   0.2876     H
