data_I
_chemical_name_common  '/home/zhangsd/repos/MofS-CGCNN/ML/data/TSD/clean_cifs/HOXKIP_clean'
_cell_length_a 10.69200
_cell_length_b 17.21900
_cell_length_c 17.85500
_cell_angle_alpha 104.85200
_cell_angle_beta  90.00000
_cell_angle_gamma 90.00000
_space_group_name_H-M_alt      'P 1'


loop_
_space_group_symop_operation_xyz
  'x, y, z' 

loop_
_atom_site_label
_atom_site_fract_x
_atom_site_fract_y
_atom_site_fract_z
_atom_site_type_symbol
O       0.0237   0.8555   0.4246     O
H       0.0291   0.9234   0.7014     H
H       0.0448   0.7217   0.3042     H
O       0.0665   0.9801    0.573     O
Eu     0.07293  0.38939  0.51434    Eu
O       0.0765    0.546   0.3929     O
O       0.0786   0.5813   0.5655     O
O       0.0958    0.154    0.399     O
C       0.0959   0.7504   0.2788     C
H       0.1015   0.9264   0.8294     H
C       0.1038   0.9473   0.7221     C
C       0.1082    0.882   0.3862     C
O       0.1204   0.2831     0.41     O
H       0.1257   0.6706   0.1728     H
Eu     0.13013  0.07571  0.48426    Eu
C       0.1358   0.2097   0.3751     C
C       0.1364   0.8269    0.308     C
O       0.1418    0.317   0.5958     O
C       0.1445   0.7218    0.203     C
C       0.1461   0.9484   0.7951     C
H       0.1494   0.7292   0.6592     H
C       0.1557   0.5604   0.6125     C
O        0.162   0.9478   0.4043     O
C       0.1632   0.4959   0.3848     C
C       0.1668   0.9981   0.6092     C
C        0.183    0.985   0.6839     C
O       0.1862   0.4894   0.6057     O
S       0.1872  0.52021  0.23956     S
O       0.1899   0.4533   0.4308     O
C       0.1906   0.7031   0.6917     C
C       0.1976   0.1901   0.3002     C
C       0.1979   0.6225   0.6781     C
C       0.2087   0.2596   0.6034     C
C       0.2197   0.7723   0.1763     C
S       0.2226  0.09384  0.24909     S
O       0.2267    0.195   0.5523     O
S       0.2379  0.85861  0.24857     S
C       0.2385   0.4853   0.3126     C
H       0.2406   0.2995   0.2782     H
C       0.2474    0.244    0.261     C
O       0.2492   0.0344   0.5826     O
O       0.2508   0.5344   0.0826     O
C       0.2526    0.744    0.761     C
H       0.2594   0.7995   0.7782     H
C       0.2615   0.9853   0.8126     C
S       0.2621  0.35861  0.74857     S
O       0.2733    0.695   0.0523     O
S       0.2774  0.59384  0.74909     S
C       0.2803   0.2723   0.6763     C
C       0.2913   0.7596   0.1034     C
C       0.3021   0.1225   0.1781     C
C       0.3024   0.6901   0.8002     C
C       0.3094   0.2031   0.1917     C
O       0.3101   0.9533   0.9308     O
S       0.3128  0.02021  0.73956     S
O       0.3138   0.9894   0.1057     O
C        0.317    0.485   0.1839     C
C       0.3332   0.4981   0.1092     C
C       0.3368   0.9959   0.8848     C
O        0.338   0.4478   0.9043     O
C       0.3443   0.0604   0.1125     C
H       0.3506   0.2292   0.1592     H
C       0.3539   0.4484   0.2951     C
C       0.3555   0.2218    0.703     C
O       0.3582    0.817   0.0958     O
C       0.3636   0.3269    0.808     C
C       0.3642   0.7097   0.8751     C
Eu     0.36987  0.57571  0.98426    Eu
H       0.3743   0.1706   0.6728     H
O       0.3796   0.7831     0.91     O
C       0.3918    0.382   0.8862     C
C       0.3962   0.4473   0.2221     C
H       0.3985   0.4264   0.3294     H
C       0.4041   0.2504   0.7788     C
O       0.4042    0.654    0.899     O
O       0.4214   0.0813   0.0655     O
O       0.4235    0.046   0.8929     O
Eu     0.42707  0.88939  0.01434    Eu
O       0.4335   0.4801    0.073     O
H       0.4552   0.2217   0.8042     H
H       0.4709   0.4234   0.2014     H
O       0.4763   0.3555   0.9246     O
O       0.5237   0.6445   0.0754     O
H       0.5291   0.5766   0.7986     H
H       0.5448   0.7783   0.1958     H
O       0.5665   0.5199    0.927     O
Eu     0.57293  0.11061  0.98566    Eu
O       0.5765    0.954   0.1071     O
O       0.5786   0.9187   0.9345     O
O       0.5958    0.346    0.101     O
C       0.5959   0.7496   0.2212     C
H       0.6015   0.5736   0.6706     H
C       0.6038   0.5527   0.7779     C
C       0.6082    0.618   0.1138     C
O       0.6204   0.2169     0.09     O
H       0.6257   0.8294   0.3272     H
Eu     0.63013  0.42429  0.01574    Eu
C       0.6358   0.2903   0.1249     C
C       0.6364   0.6731    0.192     C
O       0.6418    0.183   0.9042     O
C       0.6445   0.7782    0.297     C
C       0.6461   0.5516   0.7049     C
H       0.6494   0.7708   0.8408     H
C       0.6557   0.9396   0.8875     C
O        0.662   0.5522   0.0957     O
C       0.6632   0.0041   0.1152     C
C       0.6668   0.5019   0.8908     C
C        0.683    0.515   0.8161     C
O       0.6862   0.0106   0.8943     O
S       0.6872  0.97979  0.26044     S
O       0.6899   0.0467   0.0692     O
C       0.6906   0.7969   0.8083     C
C       0.6976   0.3099   0.1998     C
C       0.6979   0.8775   0.8219     C
C       0.7087   0.2404   0.8966     C
C       0.7197   0.7277   0.3237     C
S       0.7226  0.40616  0.25091     S
O       0.7267    0.305   0.9477     O
S       0.7379  0.64139  0.25143     S
C       0.7385   0.0147   0.1874     C
H       0.7406   0.2005   0.2218     H
C       0.7474    0.256    0.239     C
O       0.7492   0.4656   0.9174     O
O       0.7508   0.9656   0.4174     O
C       0.7526    0.756    0.739     C
H       0.7594   0.7005   0.7218     H
C       0.7615   0.5147   0.6874     C
S       0.7621  0.14139  0.75143     S
O       0.7733    0.805   0.4477     O
S       0.7774  0.90616  0.75091     S
C       0.7803   0.2277   0.8237     C
C       0.7913   0.7404   0.3966     C
C       0.8021   0.3775   0.3219     C
C       0.8024   0.8099   0.6998     C
C       0.8094   0.2969   0.3083     C
O       0.8101   0.5467   0.5692     O
S       0.8128  0.47979  0.76044     S
O       0.8138   0.5106   0.3943     O
C        0.817    0.015   0.3161     C
C       0.8332   0.0019   0.3908     C
C       0.8368   0.5041   0.6152     C
O        0.838   0.0522   0.5957     O
C       0.8443   0.4396   0.3875     C
H       0.8506   0.2708   0.3408     H
C       0.8539   0.0516   0.2049     C
C       0.8555   0.2782    0.797     C
O       0.8582    0.683   0.4042     O
C       0.8636   0.1731    0.692     C
C       0.8642   0.7903   0.6249     C
Eu     0.86987  0.92429  0.51574    Eu
H       0.8743   0.3294   0.8272     H
O       0.8796   0.7169     0.59     O
C       0.8918    0.118   0.6138     C
C       0.8962   0.0527   0.2779     C
H       0.8985   0.0736   0.1706     H
C       0.9041   0.2496   0.7212     C
O       0.9042    0.846    0.601     O
O       0.9214   0.4187   0.4345     O
O       0.9235    0.454   0.6071     O
Eu     0.92707  0.61061  0.48566    Eu
O       0.9335   0.0199    0.427     O
H       0.9552   0.2783   0.6958     H
H       0.9709   0.0766   0.2986     H
O       0.9763   0.1445   0.5754     O
