data_I
_chemical_name_common  '/home/zhangsd/repos/MofS-CGCNN/ML/data/TSD/clean_cifs/HOXSUK_clean'
_cell_length_a 42.61000
_cell_length_b  6.32000
_cell_length_c 25.20200
_cell_angle_alpha 90.00000
_cell_angle_beta  126.22900
_cell_angle_gamma 90.00000
_space_group_name_H-M_alt      'P 1'


loop_
_space_group_symop_operation_xyz
  'x, y, z' 

loop_
_atom_site_label
_atom_site_fract_x
_atom_site_fract_y
_atom_site_fract_z
_atom_site_type_symbol
C      0.00123  0.43763  0.02459     C
C      0.00123  0.56237  0.52459     C
C      0.00699  0.19259  0.12189     C
C      0.00699  0.80741  0.62189     C
H       0.0088   0.1034   0.1539     H
H       0.0088   0.8966   0.6539     H
C      0.02971  0.25644  0.43255     C
C      0.02971  0.74356  0.93255     C
C      0.03296  0.37562  0.48158     C
C      0.03296  0.62438  0.98158     C
C      0.03859  0.37781    0.082     C
C      0.03859  0.62219    0.582     C
C      0.04076  0.25605  0.13029     C
C      0.04076  0.74395  0.63029     C
H       0.0652   0.1202    0.954     H
H       0.0652   0.8798    0.454     H
C      0.06569   0.1957  0.43851     C
C      0.06569   0.8043  0.93851     C
C      0.06988  0.43965  0.54021     C
C      0.06988  0.56035  0.04021     C
C      0.07255  0.44705  0.08736     C
C      0.07255  0.55295  0.58736     C
H        0.078   0.4924   0.4229     H
H        0.078   0.5076   0.9229     H
H       0.0786   0.1125   0.6724     H
H       0.0786   0.8875   0.1724     H
C      0.07968   0.0103  0.95207     C
C      0.07968   0.9897  0.45207     C
C      0.07971  0.19916  0.19227     C
C      0.07971  0.80084  0.69227     C
C      0.08773  0.35191  0.43432     C
C      0.08773  0.64809  0.93432     C
H       0.0931   0.3999   0.5455     H
H       0.0931   0.6001   0.0455     H
H       0.0937   0.4955   0.2314     H
H       0.0937   0.5045   0.7314     H
C      0.09406  0.00416  0.70326     C
C      0.09406  0.99584  0.20326     C
H       0.0976    0.411   0.1256     H
H       0.0976    0.589   0.6256     H
C      0.10305  0.35421  0.23854     C
C      0.10305  0.64579  0.73854     C
C      0.11527  0.05609   0.9629     C
C      0.11527  0.94391   0.4629     C
C       0.1234  0.30628  0.44648     C
C       0.1234  0.69372  0.94648     C
H       0.1241   0.1985   0.9704     H
H       0.1241   0.8015   0.4704     H
C      0.13117  0.05181  0.75936     C
C      0.13117  0.94819  0.25936     C
C      0.13771  0.10002  0.46288     C
C      0.13771  0.89998  0.96288     C
H       0.1378   0.4144   0.4436     H
H       0.1378   0.5856   0.9436     H
C      0.13942  0.30661  0.29454     C
C      0.13942  0.69339  0.79454     C
H       0.1409   0.1919   0.7661     H
H       0.1409   0.8081   0.2661     H
C      0.15361  0.10212  0.30474     C
C      0.15361  0.89788  0.80474     C
H       0.1547   0.4138   0.3261     H
H       0.1547   0.5862   0.8261     H
C      0.17788   0.0528  0.48324     C
C      0.17788   0.9472  0.98324     C
O      0.18715  0.13911  0.98842     O
O      0.18715  0.86089  0.48842     O
C      0.19376  0.05077  0.36505     C
C      0.19376  0.94923  0.86505     C
O      0.20002  0.20807  0.49569     O
O      0.20002  0.79193  0.99569     O
O      0.20279  0.13817  0.87744     O
O      0.20279  0.86183  0.37744     O
H      0.20708    0.437   0.9388     H
H      0.20708    0.563   0.4388     H
O      0.21588  0.20747  0.39797     O
O      0.21588  0.79253  0.89797     O
O      0.23373  0.44533  0.97996     O
O      0.23373  0.55467  0.47996     O
Ni     0.24269  0.24994  0.05194    Ni
Ni     0.24269  0.75006  0.55194    Ni
Ni        0.25     0.25      0.5    Ni
Ni        0.25     0.75      0.0    Ni
Ni     0.25731  0.25006  0.94806    Ni
Ni     0.25731  0.74994  0.44806    Ni
O      0.26627  0.05467  0.02004     O
O      0.26627  0.94533  0.52004     O
O      0.28412  0.29253  0.60203     O
O      0.28412  0.70747  0.10203     O
H      0.29292    0.063   0.0612     H
H      0.29292    0.937   0.5612     H
O      0.29721  0.36183  0.12256     O
O      0.29721  0.63817  0.62256     O
O      0.29998  0.29193  0.50431     O
O      0.29998  0.70807  0.00431     O
C      0.30624  0.44923  0.63495     C
C      0.30624  0.55077  0.13495     C
O      0.31285  0.36089  0.01158     O
O      0.31285  0.63911  0.51158     O
C      0.32212   0.4472  0.51676     C
C      0.32212   0.5528  0.01676     C
H       0.3453   0.0862   0.6739     H
H       0.3453   0.9138   0.1739     H
C      0.34639  0.39788  0.69526     C
C      0.34639  0.60212  0.19526     C
H       0.3591   0.3081   0.2339     H
H       0.3591   0.6919   0.7339     H
C      0.36058  0.19339  0.70546     C
C      0.36058  0.80661  0.20546     C
H       0.3622   0.0856   0.5564     H
H       0.3622   0.9144   0.0564     H
C      0.36229  0.39998  0.53712     C
C      0.36229  0.60002  0.03712     C
C      0.36883  0.44819  0.24064     C
C      0.36883  0.55181  0.74064     C
H       0.3759   0.3015   0.0296     H
H       0.3759   0.6985   0.5296     H
C       0.3766  0.19372  0.55352     C
C       0.3766  0.80628  0.05352     C
C      0.38473  0.44391   0.0371     C
C      0.38473  0.55609   0.5371     C
C      0.39695  0.14579  0.76146     C
C      0.39695  0.85421  0.26146     C
H       0.4024    0.089   0.8744     H
H       0.4024    0.911   0.3744     H
C      0.40594  0.49584  0.29674     C
C      0.40594  0.50416  0.79674     C
H       0.4063   0.0045   0.7686     H
H       0.4063   0.9955   0.2686     H
H       0.4069   0.1001   0.4545     H
H       0.4069   0.8999   0.9545     H
C      0.41227  0.14809  0.56568     C
C      0.41227  0.85191  0.06568     C
C      0.42029  0.30084  0.80773     C
C      0.42029  0.69916  0.30773     C
C      0.42032   0.4897  0.04793     C
C      0.42032   0.5103  0.54793     C
H       0.4214   0.3875   0.3276     H
H       0.4214   0.6125   0.8276     H
H        0.422   0.0076   0.5771     H
H        0.422   0.9924   0.0771     H
C      0.42745  0.05295  0.91264     C
C      0.42745  0.94705  0.41264     C
C      0.43012  0.06035  0.45979     C
C      0.43012  0.93965  0.95979     C
C      0.43431   0.3043  0.56149     C
C      0.43431   0.6957  0.06149     C
H       0.4348   0.3798    0.046     H
H       0.4348   0.6202    0.546     H
C      0.45924  0.24395  0.86971     C
C      0.45924  0.75605  0.36971     C
C      0.46141  0.12219    0.918     C
C      0.46141  0.87781    0.418     C
C      0.46704  0.12438  0.51842     C
C      0.46704  0.87562  0.01842     C
C      0.47029  0.24356  0.56745     C
C      0.47029  0.75644  0.06745     C
H       0.4912   0.3966   0.8461     H
H       0.4912   0.6034   0.3461     H
C      0.49301  0.30741  0.87811     C
C      0.49301  0.69259  0.37811     C
C      0.49877  0.06237  0.97541     C
C      0.49877  0.93763  0.47541     C
C      0.50123  0.06237  0.52459     C
C      0.50123  0.93763  0.02459     C
C      0.50699  0.30741  0.62189     C
C      0.50699  0.69259  0.12189     C
H       0.5088   0.3966   0.6539     H
H       0.5088   0.6034   0.1539     H
C      0.52971  0.24356  0.93255     C
C      0.52971  0.75644  0.43255     C
C      0.53296  0.12438  0.98158     C
C      0.53296  0.87562  0.48158     C
C      0.53859  0.12219    0.582     C
C      0.53859  0.87781    0.082     C
C      0.54076  0.24395  0.63029     C
C      0.54076  0.75605  0.13029     C
H       0.5652   0.3798    0.454     H
H       0.5652   0.6202    0.954     H
C      0.56569   0.3043  0.93851     C
C      0.56569   0.6957  0.43851     C
C      0.56988  0.06035  0.04021     C
C      0.56988  0.93965  0.54021     C
C      0.57255  0.05295  0.58736     C
C      0.57255  0.94705  0.08736     C
H        0.578   0.0076   0.9229     H
H        0.578   0.9924   0.4229     H
H       0.5786   0.3875   0.1724     H
H       0.5786   0.6125   0.6724     H
C      0.57968   0.4897  0.45207     C
C      0.57968   0.5103  0.95207     C
C      0.57971  0.30084  0.69227     C
C      0.57971  0.69916  0.19227     C
C      0.58773  0.14809  0.93432     C
C      0.58773  0.85191  0.43432     C
H       0.5931   0.1001   0.0455     H
H       0.5931   0.8999   0.5455     H
H       0.5937   0.0045   0.7314     H
H       0.5937   0.9955   0.2314     H
C      0.59406  0.49584  0.20326     C
C      0.59406  0.50416  0.70326     C
H       0.5976    0.089   0.6256     H
H       0.5976    0.911   0.1256     H
C      0.60305  0.14579  0.73854     C
C      0.60305  0.85421  0.23854     C
C      0.61527  0.44391   0.4629     C
C      0.61527  0.55609   0.9629     C
C       0.6234  0.19372  0.94648     C
C       0.6234  0.80628  0.44648     C
H       0.6241   0.3015   0.4704     H
H       0.6241   0.6985   0.9704     H
C      0.63117  0.44819  0.25936     C
C      0.63117  0.55181  0.75936     C
C      0.63771  0.39998  0.96288     C
C      0.63771  0.60002  0.46288     C
H       0.6378   0.0856   0.9436     H
H       0.6378   0.9144   0.4436     H
C      0.63942  0.19339  0.79454     C
C      0.63942  0.80661  0.29454     C
H       0.6409   0.3081   0.2661     H
H       0.6409   0.6919   0.7661     H
C      0.65361  0.39788  0.80474     C
C      0.65361  0.60212  0.30474     C
H       0.6547   0.0862   0.8261     H
H       0.6547   0.9138   0.3261     H
C      0.67788   0.4472  0.98324     C
C      0.67788   0.5528  0.48324     C
O      0.68715  0.36089  0.48842     O
O      0.68715  0.63911  0.98842     O
C      0.69376  0.44923  0.86505     C
C      0.69376  0.55077  0.36505     C
O      0.70002  0.29193  0.99569     O
O      0.70002  0.70807  0.49569     O
O      0.70279  0.36183  0.37744     O
O      0.70279  0.63817  0.87744     O
H      0.70708    0.063   0.4388     H
H      0.70708    0.937   0.9388     H
O      0.71588  0.29253  0.89797     O
O      0.71588  0.70747  0.39797     O
O      0.73373  0.05467  0.47996     O
O      0.73373  0.94533  0.97996     O
Ni     0.74269  0.25006  0.55194    Ni
Ni     0.74269  0.74994  0.05194    Ni
Ni        0.75     0.25      0.0    Ni
Ni        0.75     0.75      0.5    Ni
Ni     0.75731  0.24994  0.44806    Ni
Ni     0.75731  0.75006  0.94806    Ni
O      0.76627  0.44533  0.52004     O
O      0.76627  0.55467  0.02004     O
O      0.78412  0.20747  0.10203     O
O      0.78412  0.79253  0.60203     O
H      0.79292    0.437   0.5612     H
H      0.79292    0.563   0.0612     H
O      0.79721  0.13817  0.62256     O
O      0.79721  0.86183  0.12256     O
O      0.79998  0.20807  0.00431     O
O      0.79998  0.79193  0.50431     O
C      0.80624  0.05077  0.13495     C
C      0.80624  0.94923  0.63495     C
O      0.81285  0.13911  0.51158     O
O      0.81285  0.86089  0.01158     O
C      0.82212   0.0528  0.01676     C
C      0.82212   0.9472  0.51676     C
H       0.8453   0.4138   0.1739     H
H       0.8453   0.5862   0.6739     H
C      0.84639  0.10212  0.19526     C
C      0.84639  0.89788  0.69526     C
H       0.8591   0.1919   0.7339     H
H       0.8591   0.8081   0.2339     H
C      0.86058  0.30661  0.20546     C
C      0.86058  0.69339  0.70546     C
H       0.8622   0.4144   0.0564     H
H       0.8622   0.5856   0.5564     H
C      0.86229  0.10002  0.03712     C
C      0.86229  0.89998  0.53712     C
C      0.86883  0.05181  0.74064     C
C      0.86883  0.94819  0.24064     C
H       0.8759   0.1985   0.5296     H
H       0.8759   0.8015   0.0296     H
C       0.8766  0.30628  0.05352     C
C       0.8766  0.69372  0.55352     C
C      0.88473  0.05609   0.5371     C
C      0.88473  0.94391   0.0371     C
C      0.89695  0.35421  0.26146     C
C      0.89695  0.64579  0.76146     C
H       0.9024    0.411   0.3744     H
H       0.9024    0.589   0.8744     H
C      0.90594  0.00416  0.79674     C
C      0.90594  0.99584  0.29674     C
H       0.9063   0.4955   0.2686     H
H       0.9063   0.5045   0.7686     H
H       0.9069   0.3999   0.9545     H
H       0.9069   0.6001   0.4545     H
C      0.91227  0.35191  0.06568     C
C      0.91227  0.64809  0.56568     C
C      0.92029  0.19916  0.30773     C
C      0.92029  0.80084  0.80773     C
C      0.92032   0.0103  0.54793     C
C      0.92032   0.9897  0.04793     C
H       0.9214   0.1125   0.8276     H
H       0.9214   0.8875   0.3276     H
H        0.922   0.4924   0.0771     H
H        0.922   0.5076   0.5771     H
C      0.92745  0.44705  0.41264     C
C      0.92745  0.55295  0.91264     C
C      0.93012  0.43965  0.95979     C
C      0.93012  0.56035  0.45979     C
C      0.93431   0.1957  0.06149     C
C      0.93431   0.8043  0.56149     C
H       0.9348   0.1202    0.546     H
H       0.9348   0.8798    0.046     H
C      0.95924  0.25605  0.36971     C
C      0.95924  0.74395  0.86971     C
C      0.96141  0.37781    0.418     C
C      0.96141  0.62219    0.918     C
C      0.96704  0.37562  0.01842     C
C      0.96704  0.62438  0.51842     C
C      0.97029  0.25644  0.06745     C
C      0.97029  0.74356  0.56745     C
H       0.9912   0.1034   0.3461     H
H       0.9912   0.8966   0.8461     H
C      0.99301  0.19259  0.37811     C
C      0.99301  0.80741  0.87811     C
C      0.99877  0.43763  0.47541     C
C      0.99877  0.56237  0.97541     C
