data_I
_chemical_name_common  '/home/zhangsd/repos/MofS-CGCNN/ML/data/TSD/clean_cifs/HOZFEJ_clean'
_cell_length_a  4.97480
_cell_length_b 37.21890
_cell_length_c 16.02460
_cell_angle_alpha 90.00000
_cell_angle_beta  92.58200
_cell_angle_gamma 90.00000
_space_group_name_H-M_alt      'P 1'


loop_
_space_group_symop_operation_xyz
  'x, y, z' 

loop_
_atom_site_label
_atom_site_fract_x
_atom_site_fract_y
_atom_site_fract_z
_atom_site_type_symbol
C       0.0031  0.12596  0.13079     C
C       0.0031  0.37404  0.63079     C
H       0.0121   0.1511   0.7408     H
H       0.0121   0.3489   0.2408     H
H       0.0314   0.2089   0.7639     H
H       0.0314   0.2911   0.2639     H
H       0.0356   0.5845   0.4509     H
H       0.0356   0.9155   0.9509     H
C       0.0468  0.74227   0.5175     C
C       0.0468  0.75773   0.0175     C
C       0.0669  0.09319   0.0963     C
C       0.0669  0.40681   0.5963     C
C       0.0687  0.72045  0.02576     C
C       0.0687  0.77955  0.52576     C
N       0.0715  0.17319  0.22844     N
N       0.0715  0.32681  0.72844     N
H       0.0934   0.6796   0.2872     H
H       0.0934   0.8204   0.7872     H
H       0.0959   0.1728   0.5161     H
H       0.0959   0.3272   0.0161     H
C       0.1115  0.19815  0.52055     C
C       0.1115  0.30185  0.02055     C
N       0.1193  0.23151   0.2692     N
N       0.1193  0.26849   0.7692     N
H       0.1269   0.0927    0.777     H
H       0.1269   0.4073    0.277     H
H       0.1443   0.6394   0.3924     H
H       0.1443   0.8606   0.8924     H
C       0.1478  0.14703   0.7834     C
C       0.1478  0.35297   0.2834     C
C       0.1534  0.13944  0.19947     C
C       0.1534  0.36056  0.69947     C
C       0.1544  0.22785  0.03473     C
C       0.1544  0.27215  0.53473     C
H       0.1687   0.2025   0.0402     H
H       0.1687   0.2975   0.5402     H
H       0.1692   0.7269   0.5475     H
H       0.1692   0.7731   0.0475     H
H       0.1741    0.746   0.2959     H
H       0.1741    0.754   0.7959     H
O       0.1746  0.02243  0.04413     O
O       0.1746  0.47757  0.54413     O
N       0.1788  0.20972  0.79629     N
N       0.1788  0.29028  0.29629     N
Li      0.2012  0.52331   0.4856    Li
Li      0.2012  0.97669   0.9856    Li
C       0.2108  0.19726  0.27723     C
C       0.2108  0.30274  0.77723     C
C        0.216  0.11215   0.8049     C
C        0.216  0.38785   0.3049     C
H       0.2365   0.6791   0.0781     H
H       0.2365   0.8209   0.5781     H
N       0.2544  0.70262  0.07872     N
N       0.2544  0.79738  0.57872     N
C       0.2693  0.24384  0.81104     C
C       0.2693  0.25616  0.31104     C
C       0.2716  0.17584  0.82194     C
C       0.2716  0.32416  0.32194     C
C       0.2796  0.07286  0.12998     C
C       0.2796  0.42714  0.62998     C
O       0.2959  0.74317  0.82379     O
O       0.2959  0.75683  0.32379     O
C       0.3108  0.21305  0.57234     C
C       0.3108  0.28695  0.07234     C
C       0.3367  0.24979  0.07956     C
C       0.3367  0.25021  0.57956     C
H       0.3398   0.6302   0.5505     H
H       0.3398   0.8698   0.0505     H
C       0.3439  0.03726  0.09323     C
C       0.3439  0.46274  0.59323     C
O       0.3448  0.56148  0.55504     O
O       0.3448  0.93852  0.05504     O
O       0.3498  0.04327  0.84834     O
O       0.3498  0.45673  0.34834     O
C       0.3694  0.11958  0.23262     C
C       0.3694  0.38042  0.73262     C
H       0.3923   0.0229   0.8674     H
H       0.3923   0.4771   0.3674     H
O       0.3976  0.70102  0.36671     O
O       0.3976  0.79898  0.86671     O
C       0.4099  0.10537  0.86575     C
C       0.4099  0.39463  0.36575     C
N       0.4162  0.18725  0.32727     N
N       0.4162  0.31275  0.82727     N
H       0.4203   0.5731   0.2801     H
H       0.4203   0.9269   0.7801     H
O       0.4271  0.52328  0.38792     O
O       0.4271  0.97672  0.88792     O
C       0.4311  0.08652  0.19733     C
C       0.4311  0.41348  0.69733     C
H       0.4315   0.1978   0.6034     H
H       0.4315   0.3022   0.1034     H
C       0.4413  0.73341  0.36823     C
C       0.4413  0.76659  0.86823     C
C        0.458  0.71454  0.13127     C
C        0.458  0.78546  0.63127     C
H       0.4581   0.6887   0.5859     H
H       0.4581   0.8113   0.0859     H
C       0.4585  0.16925   0.8847     C
C       0.4585  0.33075   0.3847     C
C       0.4723  0.63424   0.5941     C
C       0.4723  0.86576   0.0941     C
H       0.4745   0.1285   0.2791     H
H       0.4745   0.3715   0.7791     H
C       0.4853  0.06819  0.89053     C
C       0.4853  0.43181  0.39053     C
N       0.4861  0.24966  0.36144     N
N       0.4861  0.25034  0.86144     N
N       0.5139  0.74966  0.13856     N
N       0.5139  0.75034  0.63856     N
C       0.5147  0.56819  0.60947     C
C       0.5147  0.93181  0.10947     C
H       0.5255   0.6285   0.2209     H
H       0.5255   0.8715   0.7209     H
C       0.5277  0.13424   0.9059     C
C       0.5277  0.36576   0.4059     C
C       0.5415  0.66925   0.6153     C
C       0.5415  0.83075   0.1153     C
H       0.5419   0.1887   0.9141     H
H       0.5419   0.3113   0.4141     H
C        0.542  0.21454  0.36873     C
C        0.542  0.28546  0.86873     C
C       0.5587  0.23341  0.13177     C
C       0.5587  0.26659  0.63177     C
H       0.5685   0.6978   0.8966     H
H       0.5685   0.8022   0.3966     H
C       0.5689  0.58652  0.30267     C
C       0.5689  0.91348  0.80267     C
O       0.5729  0.02328  0.11208     O
O       0.5729  0.47672  0.61208     O
H       0.5797   0.0731   0.2199     H
H       0.5797   0.4269   0.7199     H
N       0.5838  0.68725  0.17273     N
N       0.5838  0.81275  0.67273     N
C       0.5901  0.60537  0.63425     C
C       0.5901  0.89463  0.13425     C
O       0.6024  0.20102  0.13329     O
O       0.6024  0.29898  0.63329     O
H       0.6077   0.5229   0.6326     H
H       0.6077   0.9771   0.1326     H
C       0.6306  0.61958  0.26738     C
C       0.6306  0.88042  0.76738     C
O       0.6502  0.54327  0.65166     O
O       0.6502  0.95673  0.15166     O
O       0.6552  0.06148  0.94496     O
O       0.6552  0.43852  0.44496     O
C       0.6561  0.53726  0.40677     C
C       0.6561  0.96274  0.90677     C
H       0.6602   0.1302   0.9495     H
H       0.6602   0.3698   0.4495     H
C       0.6633  0.74979  0.42044     C
C       0.6633  0.75021  0.92044     C
C       0.6892  0.71305  0.92766     C
C       0.6892  0.78695  0.42766     C
O       0.7041  0.24317  0.67621     O
O       0.7041  0.25683  0.17621     O
C       0.7204  0.57286  0.37002     C
C       0.7204  0.92714  0.87002     C
C       0.7284  0.67584  0.67806     C
C       0.7284  0.82416  0.17806     C
C       0.7307  0.74384  0.68896     C
C       0.7307  0.75616  0.18896     C
N       0.7456  0.20262  0.42128     N
N       0.7456  0.29738  0.92128     N
H       0.7635   0.1791   0.4219     H
H       0.7635   0.3209   0.9219     H
C        0.784  0.61215   0.6951     C
C        0.784  0.88785   0.1951     C
C       0.7892  0.69726  0.22277     C
C       0.7892  0.80274  0.72277     C
Li      0.7988  0.02331   0.0144    Li
Li      0.7988  0.47669   0.5144    Li
N       0.8212  0.70972  0.70371     N
N       0.8212  0.79028  0.20371     N
O       0.8254  0.52243  0.45587     O
O       0.8254  0.97757  0.95587     O
H       0.8259    0.246   0.2041     H
H       0.8259    0.254   0.7041     H
H       0.8308   0.2269   0.9525     H
H       0.8308   0.2731   0.4525     H
H       0.8313   0.7025   0.4598     H
H       0.8313   0.7975   0.9598     H
C       0.8456  0.72785  0.46527     C
C       0.8456  0.77215  0.96527     C
C       0.8466  0.63944  0.30053     C
C       0.8466  0.86056  0.80053     C
C       0.8522  0.64703   0.7166     C
C       0.8522  0.85297   0.2166     C
H       0.8557   0.1394   0.1076     H
H       0.8557   0.3606   0.6076     H
H       0.8731   0.5927    0.723     H
H       0.8731   0.9073    0.223     H
N       0.8807  0.73151   0.2308     N
N       0.8807  0.76849   0.7308     N
C       0.8885  0.69815  0.97945     C
C       0.8885  0.80185  0.47945     C
H       0.9041   0.6728   0.9839     H
H       0.9041   0.8272   0.4839     H
H       0.9066   0.1796   0.2128     H
H       0.9066   0.3204   0.7128     H
N       0.9285  0.67319  0.27156     N
N       0.9285  0.82681  0.77156     N
C       0.9313  0.22045  0.47424     C
C       0.9313  0.27955  0.97424     C
C       0.9331  0.59319   0.4037     C
C       0.9331  0.90681   0.9037     C
C       0.9532  0.24227   0.9825     C
C       0.9532  0.25773   0.4825     C
H       0.9644   0.0845   0.0491     H
H       0.9644   0.4155   0.5491     H
H       0.9686   0.7089   0.7361     H
H       0.9686   0.7911   0.2361     H
H       0.9879   0.6511   0.7592     H
H       0.9879   0.8489   0.2592     H
C       0.9969  0.62596  0.36921     C
C       0.9969  0.87404  0.86921     C
