data_I
_chemical_name_common  '/home/zhangsd/repos/MofS-CGCNN/ML/data/TSD/clean_cifs/HUCXEK_clean'
_cell_length_a 16.25380
_cell_length_b  8.70930
_cell_length_c 20.85950
_cell_angle_alpha 90.00000
_cell_angle_beta  94.89100
_cell_angle_gamma 90.00000
_space_group_name_H-M_alt      'P 1'


loop_
_space_group_symop_operation_xyz
  'x, y, z' 

loop_
_atom_site_label
_atom_site_fract_x
_atom_site_fract_y
_atom_site_fract_z
_atom_site_type_symbol
H       0.0001   0.1126   0.6455     H
C       0.0039   0.3155   0.4532     C
C       0.0069   0.9263   0.7034     C
C       0.0074   0.2888   0.7935     C
C       0.0092   0.5161   0.8588     C
H       0.0099     0.48   0.5911     H
H       0.0142   0.2668   0.2483     H
N       0.0148   0.0659   0.5009     N
C       0.0319   0.9621   0.3367     C
C       0.0321   0.8277   0.5391     C
C       0.0344   0.5755   0.5867     C
H       0.0353    0.213   0.7725     H
H       0.0378   0.5943   0.8815     H
C       0.0397   0.1885   0.2729     C
C       0.0509   0.4071   0.8262     C
H       0.0546   0.3377   0.4753     H
C       0.0777   0.4931   0.1427     C
C       0.0782    0.714   0.2073     C
C       0.0986   0.9312   0.7202     C
H       0.1064    0.421   0.1204     H
H       0.1075   0.7918   0.2296     H
C       0.1096   0.8576   0.5698     C
C       0.1106   0.6089   0.6205     C
C        0.116   0.9597   0.3506     C
C         0.12    0.606   0.1763     C
O       0.1259   0.3573   0.6622     O
C        0.126   0.1878   0.2858     C
O       0.1307   0.8201   0.7516     O
H       0.1354   0.9508   0.5632     H
O       0.1368   0.0439   0.7011     O
H       0.1407   0.8845   0.3774     H
C       0.1433   0.4149   0.8224     C
C       0.1487    0.749   0.6104     C
C       0.1517   0.4925   0.6657     C
H       0.1582    0.264   0.2692     H
C       0.1626   0.0702   0.3241     C
O       0.1784   0.2997   0.8016     O
O       0.1792   0.5384   0.8395     O
H       0.2006   0.7697   0.6309     H
O        0.212    0.533  0.70467     O
N       0.2144   0.6395   0.1879     N
Tb     0.24239  0.22123  0.71242    Tb
N       0.2452   0.5422   0.1598     N
N       0.2548   0.0422   0.3402     N
Tb     0.25761  0.72123  0.78758    Tb
N       0.2856   0.1395   0.3121     N
O        0.288    0.033  0.79533     O
H       0.2994   0.2697   0.8691     H
O       0.3208   0.0384   0.6605     O
O       0.3216   0.7997   0.6984     O
C       0.3374   0.5702   0.1759     C
H       0.3418    0.764   0.2308     H
C       0.3483   0.9925   0.8343     C
C       0.3513    0.249   0.8896     C
C       0.3567   0.9149   0.6776     C
H       0.3593   0.3845   0.1226     H
O       0.3632   0.5439   0.7989     O
H       0.3646   0.4508   0.9368     H
O       0.3693   0.3201   0.7484     O
C        0.374   0.6878   0.2142     C
O       0.3741   0.8573   0.8378     O
C         0.38    0.106   0.3237     C
C        0.384   0.4597   0.1494     C
C       0.3894   0.1089   0.8795     C
C       0.3904   0.3576   0.9302     C
H       0.3925   0.2918   0.2704     H
H       0.3936    0.921   0.3796     H
C       0.4014   0.4312   0.7798     C
C       0.4218    0.214   0.2927     C
C       0.4223   0.9931   0.3573     C
H       0.4454   0.8377   0.0247     H
C       0.4491   0.9071   0.6738     C
C       0.4603   0.6885   0.2271     C
H       0.4622   0.0943   0.6185     H
H       0.4647    0.713   0.7275     H
C       0.4656   0.0755   0.9133     C
C       0.4679   0.3277   0.9609     C
C       0.4681   0.4621   0.1633     C
N       0.4852   0.5659   0.9991     N
H       0.4858   0.7668   0.2517     H
H       0.4901     0.98   0.9089     H
C       0.4908   0.0161   0.6412     C
C       0.4926   0.7888   0.7065     C
C       0.4931   0.4263   0.7966     C
C       0.4961   0.8155   0.0468     C
H       0.4999   0.6126   0.8545     H
H       0.5001   0.3874   0.1455     H
C       0.5039   0.1845   0.9532     C
C       0.5069   0.5737   0.2034     C
C       0.5074   0.2112   0.2935     C
C       0.5092   0.9839   0.3588     C
H       0.5099     0.02   0.0911     H
H       0.5142   0.2332   0.7483     H
N       0.5148   0.4341   0.0009     N
C       0.5319   0.5379   0.8367     C
C       0.5321   0.6723   0.0391     C
C       0.5344   0.9245   0.0867     C
H       0.5353    0.287   0.2725     H
H       0.5378   0.9057   0.3815     H
C       0.5397   0.3115   0.7729     C
C       0.5509   0.0929   0.3262     C
H       0.5546   0.1623   0.9753     H
C       0.5777   0.0069   0.6427     C
C       0.5782    0.786   0.7073     C
C       0.5986   0.5688   0.2202     C
H       0.6064    0.079   0.6204     H
H       0.6075   0.7082   0.7296     H
C       0.6096   0.6424   0.0698     C
C       0.6106   0.8911   0.1205     C
C        0.616   0.5403   0.8506     C
C         0.62    0.894   0.6763     C
O       0.6259   0.1427   0.1622     O
C        0.626   0.3122   0.7858     C
O       0.6307   0.6799   0.2516     O
H       0.6354   0.5492   0.0632     H
O       0.6368   0.4561   0.2011     O
H       0.6407   0.6155   0.8774     H
C       0.6433   0.0851   0.3224     C
C       0.6487    0.751   0.1104     C
C       0.6517   0.0075   0.1657     C
H       0.6582    0.236   0.7692     H
C       0.6626   0.4298   0.8241     C
O       0.6784   0.2003   0.3016     O
O       0.6792   0.9616   0.3395     O
H       0.7006   0.7303   0.1309     H
O        0.712    0.967  0.20467     O
N       0.7144   0.8605   0.6879     N
Tb     0.74239  0.27877  0.21242    Tb
N       0.7452   0.9578   0.6598     N
N       0.7548   0.4578   0.8402     N
Tb     0.75761  0.77877  0.28758    Tb
N       0.7856   0.3605   0.8121     N
O        0.788    0.467  0.29533     O
H       0.7994   0.2303   0.3691     H
O       0.8208   0.4616   0.1605     O
O       0.8216   0.7003   0.1984     O
C       0.8374   0.9298   0.6759     C
H       0.8418    0.736   0.7308     H
C       0.8483   0.5075   0.3343     C
C       0.8513    0.251   0.3896     C
C       0.8567   0.5851   0.1776     C
H       0.8593   0.1155   0.6226     H
O       0.8632   0.9561   0.2989     O
H       0.8646   0.0492   0.4368     H
O       0.8693   0.1799   0.2484     O
C        0.874   0.8122   0.7142     C
O       0.8741   0.6427   0.3378     O
C         0.88    0.394   0.8237     C
C        0.884   0.0403   0.6494     C
C       0.8894   0.3911   0.3795     C
C       0.8904   0.1424   0.4302     C
H       0.8925   0.2082   0.7704     H
H       0.8936    0.579   0.8796     H
C       0.9014   0.0688   0.2798     C
C       0.9218    0.286   0.7927     C
C       0.9223   0.5069   0.8573     C
H       0.9454   0.6623   0.5247     H
C       0.9491   0.5929   0.1738     C
C       0.9603   0.8115   0.7271     C
H       0.9622   0.4057   0.1185     H
H       0.9647    0.787   0.2275     H
C       0.9656   0.4245   0.4133     C
C       0.9679   0.1723   0.4609     C
C       0.9681   0.0379   0.6633     C
N       0.9852   0.9341   0.4991     N
H       0.9858   0.7332   0.7517     H
H       0.9901     0.52   0.4089     H
C       0.9908   0.4839   0.1412     C
C       0.9926   0.7112   0.2065     C
C       0.9931   0.0737   0.2966     C
C       0.9961   0.6845   0.5468     C
H       0.9999   0.8874   0.3545     H
