data_I
_chemical_name_common  '/home/zhangsd/repos/MofS-CGCNN/ML/data/TSD/clean_cifs/HUCXUA_clean'
_cell_length_a 16.17050
_cell_length_b  8.69430
_cell_length_c 20.87970
_cell_angle_alpha 90.00000
_cell_angle_beta  94.63300
_cell_angle_gamma 90.00000
_space_group_name_H-M_alt      'P 1'


loop_
_space_group_symop_operation_xyz
  'x, y, z' 

loop_
_atom_site_label
_atom_site_fract_x
_atom_site_fract_y
_atom_site_fract_z
_atom_site_type_symbol
H       0.0011   0.1177   0.6452     H
C       0.0024   0.3164   0.4532     C
C       0.0067   0.2913   0.7919     C
C       0.0072   0.5159   0.8581     C
C       0.0091   0.9284   0.7019     C
H        0.012   0.2653    0.249     H
H       0.0131   0.4802   0.5929     H
N       0.0143    0.067   0.5006     N
C       0.0303   0.9591   0.3375     C
C        0.033   0.8273   0.5392     C
H       0.0351   0.2173   0.7701     H
H       0.0356   0.5946   0.8806     H
C       0.0371    0.576   0.5877     C
C       0.0375    0.187   0.2738     C
C       0.0506    0.408   0.8253     C
H       0.0527   0.3406   0.4756     H
C       0.0786   0.4932   0.1426     C
C       0.0789   0.7151   0.2089     C
C       0.1011   0.9352   0.7189     C
H       0.1074   0.4218   0.1198     H
H       0.1078   0.7932   0.2314     H
C       0.1109   0.8605   0.5695     C
C       0.1128   0.6117    0.621     C
C       0.1146   0.9607    0.351     C
C       0.1211   0.6074   0.1769     C
C       0.1236   0.1849   0.2867     C
O       0.1303     0.36   0.6634     O
O       0.1333   0.8244   0.7506     O
H       0.1361   0.9547   0.5629     H
O       0.1392    0.049   0.6997     O
H         0.14   0.8862   0.3778     H
C       0.1432   0.4187   0.8208     C
C       0.1504    0.752   0.6097     C
C       0.1543   0.4969   0.6666     C
H       0.1564     0.26   0.2696     H
C       0.1601   0.0682   0.3258     C
O       0.1777   0.5426   0.8371     O
O       0.1785   0.3023   0.7999     O
H       0.2028   0.7732   0.6295     H
O       0.2144   0.5397   0.7052     O
N       0.2163    0.639   0.1882     N
Er     0.24319  0.22305  0.71312    Er
N       0.2462   0.5431   0.1598     N
N       0.2538   0.0431   0.3402     N
Er     0.25681  0.72305  0.78688    Er
N       0.2837    0.139   0.3118     N
O       0.2856   0.0397   0.7948     O
H       0.2972   0.2732   0.8705     H
O       0.3215   0.8023   0.7001     O
O       0.3223   0.0426   0.6629     O
C       0.3399   0.5682   0.1742     C
H       0.3436     0.76   0.2304     H
C       0.3457   0.9969   0.8334     C
C       0.3496    0.252   0.8903     C
C       0.3568   0.9187   0.6792     C
H         0.36   0.3862   0.1222     H
O       0.3608    0.549   0.8003     O
H       0.3639   0.4547   0.9371     H
O       0.3667   0.3244   0.7494     O
O       0.3697     0.86   0.8366     O
C       0.3764   0.6849   0.2133     C
C       0.3789   0.1074   0.3231     C
C       0.3854   0.4607    0.149     C
C       0.3872   0.1117    0.879     C
C       0.3891   0.3605   0.9305     C
H       0.3922   0.2932   0.2686     H
H       0.3926   0.9218   0.3802     H
C       0.3989   0.4352   0.7811     C
C       0.4211   0.2151   0.2911     C
C       0.4214   0.9932   0.3574     C
H       0.4473   0.8406   0.0244     H
C       0.4494    0.908   0.6747     C
C       0.4625    0.687   0.2262     C
C       0.4629    0.076   0.9123     C
H       0.4644   0.0946   0.6194     H
H       0.4649   0.7173   0.7299     H
C        0.467   0.3273   0.9608     C
C       0.4697   0.4591   0.1625     C
N       0.4857    0.567   0.9994     N
H       0.4869   0.9802   0.9071     H
H        0.488   0.7653    0.251     H
C       0.4909   0.4284   0.7981     C
C       0.4928   0.0159   0.6419     C
C       0.4933   0.7913   0.7081     C
C       0.4976   0.8164   0.0468     C
H       0.4989   0.6177   0.8548     H
H       0.5011   0.3823   0.1452     H
C       0.5024   0.1836   0.9532     C
C       0.5067   0.2087   0.2919     C
C       0.5072   0.9841   0.3581     C
C       0.5091   0.5716   0.2019     C
H        0.512   0.2347    0.749     H
H       0.5131   0.0198   0.0929     H
N       0.5143    0.433   0.0006     N
C       0.5303   0.5409   0.8375     C
C        0.533   0.6727   0.0392     C
H       0.5351   0.2827   0.2701     H
H       0.5356   0.9054   0.3806     H
C       0.5371    0.924   0.0877     C
C       0.5375    0.313   0.7738     C
C       0.5506    0.092   0.3253     C
H       0.5527   0.1594   0.9756     H
C       0.5786   0.0068   0.6426     C
C       0.5789   0.7849   0.7089     C
C       0.6011   0.5648   0.2189     C
H       0.6074   0.0782   0.6198     H
H       0.6078   0.7068   0.7314     H
C       0.6109   0.6395   0.0695     C
C       0.6128   0.8883    0.121     C
C       0.6146   0.5393    0.851     C
C       0.6211   0.8926   0.6769     C
C       0.6236   0.3151   0.7867     C
O       0.6303     0.14   0.1634     O
O       0.6333   0.6756   0.2506     O
H       0.6361   0.5453   0.0629     H
O       0.6392    0.451   0.1997     O
H         0.64   0.6138   0.8778     H
C       0.6432   0.0813   0.3208     C
C       0.6504    0.748   0.1097     C
C       0.6543   0.0031   0.1666     C
H       0.6564     0.24   0.7696     H
C       0.6601   0.4318   0.8258     C
O       0.6777   0.9574   0.3371     O
O       0.6785   0.1977   0.2999     O
H       0.7028   0.7268   0.1295     H
O       0.7144   0.9603   0.2052     O
N       0.7163    0.861   0.6882     N
Er     0.74319  0.27695  0.21312    Er
N       0.7462   0.9569   0.6598     N
N       0.7538   0.4569   0.8402     N
Er     0.75681  0.77695  0.28688    Er
N       0.7837    0.361   0.8118     N
O       0.7856   0.4603   0.2948     O
H       0.7972   0.2268   0.3705     H
O       0.8215   0.6977   0.2001     O
O       0.8223   0.4574   0.1629     O
C       0.8399   0.9318   0.6742     C
H       0.8436     0.74   0.7304     H
C       0.8457   0.5031   0.3334     C
C       0.8496    0.248   0.3903     C
C       0.8568   0.5813   0.1792     C
H         0.86   0.1138   0.6222     H
O       0.8608    0.951   0.3003     O
H       0.8639   0.0453   0.4371     H
O       0.8667   0.1756   0.2494     O
O       0.8697     0.64   0.3366     O
C       0.8764   0.8151   0.7133     C
C       0.8789   0.3926   0.8231     C
C       0.8854   0.0393    0.649     C
C       0.8872   0.3883    0.379     C
C       0.8891   0.1395   0.4305     C
H       0.8922   0.2068   0.7686     H
H       0.8926   0.5782   0.8802     H
C       0.8989   0.0648   0.2811     C
C       0.9211   0.2849   0.7911     C
C       0.9214   0.5068   0.8574     C
H       0.9473   0.6594   0.5244     H
C       0.9494    0.592   0.1747     C
C       0.9625    0.813   0.7262     C
C       0.9629    0.424   0.4123     C
H       0.9644   0.4054   0.1194     H
H       0.9649   0.7827   0.2299     H
C        0.967   0.1727   0.4608     C
C       0.9697   0.0409   0.6625     C
N       0.9857    0.933   0.4994     N
H       0.9869   0.5198   0.4071     H
H        0.988   0.7347    0.751     H
C       0.9909   0.0716   0.2981     C
C       0.9928   0.4841   0.1419     C
C       0.9933   0.7087   0.2081     C
C       0.9976   0.6836   0.5468     C
H       0.9989   0.8823   0.3548     H
