data_I
_chemical_name_common  '/home/zhangsd/repos/MofS-CGCNN/ML/data/TSD/clean_cifs/HUCXIO_clean'
_cell_length_a 16.20780
_cell_length_b  8.70820
_cell_length_c 20.87750
_cell_angle_alpha 90.00000
_cell_angle_beta  94.74800
_cell_angle_gamma 90.00000
_space_group_name_H-M_alt      'P 1'


loop_
_space_group_symop_operation_xyz
  'x, y, z' 

loop_
_atom_site_label
_atom_site_fract_x
_atom_site_fract_y
_atom_site_fract_z
_atom_site_type_symbol
H       0.0008   0.1146   0.6454     H
C       0.0045   0.3176   0.4527     C
C       0.0078    0.926   0.7026     C
C       0.0079   0.2933   0.7929     C
C       0.0098   0.5181   0.8592     C
H        0.011   0.4787   0.5921     H
H        0.013   0.2634   0.2474     H
N       0.0148   0.0658   0.5005     N
C       0.0309   0.9612   0.3371     C
C       0.0322   0.8264   0.5387     C
C       0.0349   0.5747   0.5872     C
H       0.0356   0.2193   0.7707     H
C       0.0386   0.1867   0.2729     C
H       0.0386   0.5952   0.8824     H
C       0.0516   0.4073   0.8261     C
H       0.0557   0.3402   0.4742     H
C       0.0784   0.7114   0.2074     C
C       0.0786     0.49   0.1434     C
C       0.1001   0.9339   0.7193     C
H       0.1074   0.7901   0.2293     H
H       0.1078   0.4165   0.1222     H
C       0.1103    0.859   0.5698     C
C        0.111   0.6104   0.6205     C
C       0.1165   0.9615   0.3506     C
C       0.1203   0.6048   0.1767     C
C       0.1258   0.1875    0.286     C
O       0.1276   0.3581   0.6627     O
O       0.1326   0.8226   0.7512     O
H       0.1358   0.9528   0.5634     H
O       0.1379   0.0473   0.7006     O
H        0.142   0.8879   0.3778     H
C       0.1433   0.4173   0.8222     C
C       0.1488   0.7509   0.6098     C
C       0.1528   0.4948   0.6654     C
H        0.158   0.2644   0.2698     H
C       0.1618   0.0701   0.3238     C
O       0.1785   0.3015    0.801     O
O       0.1793   0.5396   0.8389     O
H       0.2008   0.7718   0.6301     H
O       0.2129   0.5355   0.7054     O
N       0.2162   0.6391   0.1891     N
Dy     0.24272  0.22225  0.71269    Dy
N       0.2443    0.542   0.1589     N
N       0.2557    0.042   0.3411     N
Dy     0.25728  0.72225  0.78731    Dy
N       0.2838   0.1391   0.3109     N
O       0.2871   0.0355   0.7946     O
H       0.2992   0.2718   0.8699     H
O       0.3207   0.0396   0.6611     O
O       0.3215   0.8015    0.699     O
C       0.3382   0.5701   0.1762     C
H        0.342   0.7644   0.2302     H
C       0.3472   0.9948   0.8346     C
C       0.3512   0.2509   0.8902     C
C       0.3567   0.9173   0.6778     C
H        0.358   0.3879   0.1222     H
O       0.3621   0.5473   0.7994     O
H       0.3642   0.4528   0.9366     H
O       0.3674   0.3226   0.7488     O
O       0.3724   0.8581   0.8373     O
C       0.3742   0.6875    0.214     C
C       0.3797   0.1048   0.3233     C
C       0.3835   0.4615   0.1494     C
C        0.389   0.1104   0.8795     C
C       0.3897    0.359   0.9302     C
H       0.3922   0.9165   0.3778     H
H       0.3926   0.2901   0.2707     H
C       0.3999   0.4339   0.7807     C
C       0.4214     0.99   0.3566     C
C       0.4216   0.2114   0.2926     C
H       0.4443   0.8402   0.0258     H
C       0.4484   0.9073   0.6739     C
H       0.4614   0.0952   0.6176     H
C       0.4614   0.6867   0.2271     C
H       0.4644   0.7193   0.7293     H
C       0.4651   0.0747   0.9128     C
C       0.4678   0.3264   0.9613     C
C       0.4691   0.4612   0.1629     C
N       0.4852   0.5658   0.9995     N
H        0.487   0.7634   0.2526     H
H        0.489   0.9787   0.9079     H
C       0.4902   0.0181   0.6408     C
C       0.4921   0.7933   0.7071     C
C       0.4922    0.426   0.7974     C
C       0.4955   0.8176   0.0473     C
H       0.4992   0.6146   0.8546     H
H       0.5008   0.3854   0.1454     H
C       0.5045   0.1824   0.9527     C
C       0.5078    0.574   0.2026     C
C       0.5079   0.2067   0.2929     C
C       0.5098   0.9819   0.3592     C
H        0.511   0.0213   0.0921     H
H        0.513   0.2366   0.7474     H
N       0.5148   0.4342   0.0005     N
C       0.5309   0.5388   0.8371     C
C       0.5322   0.6736   0.0387     C
C       0.5349   0.9253   0.0872     C
H       0.5356   0.2807   0.2707     H
C       0.5386   0.3133   0.7729     C
H       0.5386   0.9048   0.3824     H
C       0.5516   0.0927   0.3261     C
H       0.5557   0.1598   0.9742     H
C       0.5784   0.7886   0.7074     C
C       0.5786     0.01   0.6434     C
C       0.6001   0.5661   0.2193     C
H       0.6074   0.7099   0.7293     H
H       0.6078   0.0835   0.6222     H
C       0.6103    0.641   0.0698     C
C        0.611   0.8896   0.1205     C
C       0.6165   0.5385   0.8506     C
C       0.6203   0.8952   0.6767     C
C       0.6258   0.3125    0.786     C
O       0.6276   0.1419   0.1627     O
O       0.6326   0.6774   0.2512     O
H       0.6358   0.5472   0.0634     H
O       0.6379   0.4527   0.2006     O
H        0.642   0.6121   0.8778     H
C       0.6433   0.0827   0.3222     C
C       0.6488   0.7491   0.1098     C
C       0.6528   0.0052   0.1654     C
H        0.658   0.2356   0.7698     H
C       0.6618   0.4299   0.8238     C
O       0.6785   0.1985    0.301     O
O       0.6793   0.9604   0.3389     O
H       0.7008   0.7282   0.1301     H
O       0.7129   0.9645   0.2054     O
N       0.7162   0.8609   0.6891     N
Dy     0.74272  0.27775  0.21269    Dy
N       0.7443    0.958   0.6589     N
N       0.7557    0.458   0.8411     N
Dy     0.75728  0.77775  0.28731    Dy
N       0.7838   0.3609   0.8109     N
O       0.7871   0.4645   0.2946     O
H       0.7992   0.2282   0.3699     H
O       0.8207   0.4604   0.1611     O
O       0.8215   0.6985    0.199     O
C       0.8382   0.9299   0.6762     C
H        0.842   0.7356   0.7302     H
C       0.8472   0.5052   0.3346     C
C       0.8512   0.2491   0.3902     C
C       0.8567   0.5827   0.1778     C
H        0.858   0.1121   0.6222     H
O       0.8621   0.9527   0.2994     O
H       0.8642   0.0472   0.4366     H
O       0.8674   0.1774   0.2488     O
O       0.8724   0.6419   0.3373     O
C       0.8742   0.8125    0.714     C
C       0.8797   0.3952   0.8233     C
C       0.8835   0.0385   0.6494     C
C        0.889   0.3896   0.3795     C
C       0.8897    0.141   0.4302     C
H       0.8922   0.5835   0.8778     H
H       0.8926   0.2099   0.7707     H
C       0.8999   0.0661   0.2807     C
C       0.9214     0.51   0.8566     C
C       0.9216   0.2886   0.7926     C
H       0.9443   0.6598   0.5258     H
C       0.9484   0.5927   0.1739     C
H       0.9614   0.4048   0.1176     H
C       0.9614   0.8133   0.7271     C
H       0.9644   0.7807   0.2293     H
C       0.9651   0.4253   0.4128     C
C       0.9678   0.1736   0.4613     C
C       0.9691   0.0388   0.6629     C
N       0.9852   0.9342   0.4995     N
H        0.987   0.7366   0.7526     H
H        0.989   0.5213   0.4079     H
C       0.9902   0.4819   0.1408     C
C       0.9921   0.7067   0.2071     C
C       0.9922    0.074   0.2974     C
C       0.9955   0.6824   0.5473     C
H       0.9992   0.8854   0.3546     H
