data_I
_chemical_name_common  '/home/zhangsd/repos/MofS-CGCNN/ML/data/TSD/clean_cifs/HUFKUQ_clean'
_cell_length_a 26.68200
_cell_length_b 39.63000
_cell_length_c 17.09670
_cell_angle_alpha 90.00000
_cell_angle_beta  100.95000
_cell_angle_gamma 90.00000
_space_group_name_H-M_alt      'P 1'


loop_
_space_group_symop_operation_xyz
  'x, y, z' 

loop_
_atom_site_label
_atom_site_fract_x
_atom_site_fract_y
_atom_site_fract_z
_atom_site_type_symbol
O          0.0   0.3194      0.0     O
O          0.0   0.6806      0.0     O
O      0.00751  0.30008   0.1864     O
O      0.00751  0.69992   0.1864     O
H       0.0088     0.35   0.9138     H
H       0.0088     0.65   0.9138     H
H       0.0101   0.2714   0.9114     H
H       0.0101   0.7286   0.9114     H
H        0.023   0.2336   0.1841     H
H        0.023   0.7664   0.1841     H
C       0.0281   0.2835   0.8758     C
C       0.0281   0.7165   0.8758     C
C       0.0302   0.3373   0.9561     C
C       0.0302   0.6627   0.9561     C
C         0.04   0.2799   0.2361     C
C         0.04   0.7201   0.2361     C
C       0.0432   0.2445    0.227     C
C       0.0432   0.7555    0.227     C
H       0.0489   0.2675   0.8531     H
H       0.0489   0.7325   0.8531     H
H        0.052   0.3531   0.9902     H
H        0.052   0.6469   0.9902     H
C        0.062   0.3118   0.9215     C
C        0.062   0.6882   0.9215     C
H       0.0699   0.3413   0.8233     H
H       0.0699   0.6587   0.8233     H
H         0.07   0.3192   0.3055     H
H         0.07   0.6808   0.3055     H
C       0.0709   0.2959   0.2999     C
C       0.0709   0.7041   0.2999     C
C       0.0763   0.2266   0.2822     C
C       0.0763   0.7734   0.2822     C
H       0.0783   0.2034   0.2755     H
H       0.0783   0.2833   0.0256     H
H       0.0783   0.7167   0.0256     H
H       0.0783   0.7966   0.2755     H
C       0.0926  0.32936   0.8653     C
C       0.0926  0.67064   0.8653     C
C       0.0977   0.2935   0.9893     C
C       0.0977   0.7065   0.9893     C
C       0.1035    0.276   0.3561     C
C       0.1035    0.724   0.3561     C
C       0.1069   0.2411    0.347     C
C       0.1069   0.7589    0.347     C
H       0.1134   0.0505   0.5622     H
H       0.1134   0.9495   0.5622     H
H       0.1166   0.3454   0.8945     H
H       0.1166   0.6546   0.8945     H
H       0.1167    0.276   0.9681     H
H       0.1167    0.724   0.9681     H
O       0.1191  0.30322   0.8328     O
O       0.1191  0.69678   0.8328     O
H       0.1233   0.2863   0.4003     H
H       0.1233   0.7137   0.4003     H
O       0.1318  0.31867   0.0298     O
O       0.1318  0.68133   0.0298     O
C       0.1321    0.066   0.5385     C
C       0.1321    0.934   0.5385     C
H       0.1331   0.1107   0.6034     H
H       0.1331   0.8893   0.6034     H
C       0.1412   0.2208   0.4071     C
C       0.1412   0.7792   0.4071     C
C       0.1422   0.0998     0.56     C
C       0.1422   0.9002     0.56     C
O        0.143  0.18942   0.3941     O
O        0.143  0.81058   0.3941     O
H        0.145   0.3627   0.7772     H
H        0.145   0.6373   0.7772     H
H       0.1452   0.2622   0.1125     H
H       0.1452   0.7378   0.1125     H
C       0.1453   0.3113   0.7735     C
C       0.1453   0.6887   0.7735     C
H       0.1527      0.0   0.5267     H
C       0.1535   0.0247    0.182     C
C       0.1535   0.9753    0.182     C
H       0.1544   0.2618   0.7492     H
H       0.1544   0.7382   0.7492     H
C       0.1562    0.344   0.7523     C
C       0.1562    0.656   0.7523     C
C       0.1564      0.0   0.4737     C
N       0.1565  0.06066   0.4727     N
N       0.1565  0.93934   0.4727     N
N       0.1573      0.0   0.2276     N
C       0.1575   0.3116   0.1054     C
C       0.1575   0.6884   0.1054     C
N       0.1584   0.0157   0.1049     N
N       0.1584   0.9843   0.1049     N
C       0.1592      0.0   0.3086     C
C       0.1593     0.03   0.4326     C
C       0.1593     0.97   0.4326     C
C       0.1594   0.0307   0.3513     C
C       0.1594   0.9693   0.3513     C
H       0.1596   0.0513    0.325     H
H       0.1596   0.9487    0.325     H
C        0.161   0.2807   0.1404     C
C        0.161   0.7193   0.1404     C
C       0.1616   0.2836   0.7348     C
C       0.1616   0.7164   0.7348     C
O      0.16581  0.23437   0.4693     O
O      0.16581  0.76563   0.4693     O
N       0.1681  0.11414   0.5053     N
N       0.1681  0.88586   0.5053     N
C       0.1773   0.0909    0.457     C
C       0.1773   0.9091    0.457     C
C       0.1834   0.3383    0.146     C
C       0.1834   0.6617    0.146     C
C       0.1842   0.3478   0.6931     C
C       0.1842   0.6522   0.6931     C
H       0.1845   0.3588   0.1199     H
H       0.1845   0.6412   0.1199     H
C       0.1881   0.2767   0.2182     C
C       0.1881   0.7233   0.2182     C
C       0.1882   0.2893   0.6753     C
C       0.1882   0.7107   0.6753     C
H       0.1898   0.2555   0.2421     H
H       0.1898   0.7445   0.2421     H
H       0.1926   0.3695   0.6796     H
H       0.1926   0.6305   0.6796     H
Cd     0.19292  0.16879  0.50422    Cd
Cd     0.19292  0.83121  0.50422    Cd
H       0.1958   0.0942   0.4167     H
H       0.1958   0.9058   0.4167     H
H       0.1987   0.2709   0.6486     H
H       0.1987   0.7291   0.6486     H
C       0.2003  0.32166   0.6532     C
C       0.2003  0.67834   0.6532     C
C       0.2077   0.3354   0.2244     C
C       0.2077   0.6646   0.2244     C
C       0.2125   0.3037   0.2601     C
C       0.2125   0.6963   0.2601     C
H       0.2207   0.3544   0.2531     H
H       0.2207   0.6456   0.2531     H
C       0.2309   0.3269    0.589     C
C       0.2309   0.6731    0.589     C
O       0.2377  0.30293   0.5444     O
O       0.2377  0.69707   0.5444     O
O       0.2385  0.17375   0.6242     O
O       0.2385  0.82625   0.6242     O
O       0.2409  0.27186   0.3768     O
O       0.2409  0.72814   0.3768     O
C        0.241   0.2999   0.3449     C
C        0.241   0.7001   0.3449     C
O       0.2491  0.14459   0.4169     O
O       0.2491  0.85541   0.4169     O
Cd        0.25     0.25      0.5    Cd
Cd        0.25     0.75      0.5    Cd
O       0.2509  0.35541   0.5831     O
O       0.2509  0.64459   0.5831     O
C        0.259   0.2001   0.6551     C
C        0.259   0.7999   0.6551     C
O       0.2591  0.22814   0.6232     O
O       0.2591  0.77186   0.6232     O
O       0.2615  0.32625   0.3758     O
O       0.2615  0.67375   0.3758     O
O       0.2623  0.19707   0.4556     O
O       0.2623  0.80293   0.4556     O
C       0.2691   0.1731    0.411     C
C       0.2691   0.8269    0.411     C
H       0.2793   0.1456   0.7469     H
H       0.2793   0.8544   0.7469     H
C       0.2875   0.1963   0.7399     C
C       0.2875   0.8037   0.7399     C
C       0.2923   0.1646   0.7756     C
C       0.2923   0.8354   0.7756     C
C       0.2997  0.17834   0.3468     C
C       0.2997  0.82166   0.3468     C
H       0.3013   0.2291   0.3514     H
H       0.3013   0.7709   0.3514     H
H       0.3042   0.4058   0.5833     H
H       0.3042   0.5942   0.5833     H
Cd     0.30708  0.33121  0.49578    Cd
Cd     0.30708  0.66879  0.49578    Cd
H       0.3074   0.1305   0.3204     H
H       0.3074   0.8695   0.3204     H
H       0.3102   0.2445   0.7579     H
H       0.3102   0.7555   0.7579     H
C       0.3118   0.2107   0.3247     C
C       0.3118   0.7893   0.3247     C
C       0.3119   0.2233   0.7818     C
C       0.3119   0.7767   0.7818     C
H       0.3155   0.1412   0.8801     H
H       0.3155   0.8588   0.8801     H
C       0.3158   0.1522   0.3069     C
C       0.3158   0.8478   0.3069     C
C       0.3166   0.1617    0.854     C
C       0.3166   0.8383    0.854     C
C       0.3227   0.4091    0.543     C
C       0.3227   0.5909    0.543     C
N       0.3319  0.38586   0.4947     N
N       0.3319  0.61414   0.4947     N
O      0.33419  0.26563   0.5307     O
O      0.33419  0.73437   0.5307     O
C       0.3384   0.2164   0.2652     C
C       0.3384   0.7836   0.2652     C
C        0.339   0.2193   0.8596     C
C        0.339   0.7807   0.8596     C
H       0.3404   0.4487    0.675     H
H       0.3404   0.5513    0.675     H
C       0.3406   0.4693   0.6487     C
C       0.3406   0.5307   0.6487     C
C       0.3407     0.47   0.5674     C
C       0.3407     0.53   0.5674     C
C       0.3408      0.5   0.6914     C
N       0.3416   0.4843   0.8951     N
N       0.3416   0.5157   0.8951     N
C       0.3425   0.1884   0.8946     C
C       0.3425   0.8116   0.8946     C
N       0.3427      0.5   0.7724     N
N       0.3435  0.43934   0.5273     N
N       0.3435  0.56066   0.5273     N
C       0.3436      0.5   0.5263     C
C       0.3438    0.156   0.2477     C
C       0.3438    0.844   0.2477     C
H       0.3456   0.2382   0.2508     H
H       0.3456   0.7618   0.2508     H
C       0.3465   0.4753    0.818     C
C       0.3465   0.5247    0.818     C
H       0.3473      0.5   0.4733     H
C       0.3547   0.1887   0.2265     C
C       0.3547   0.8113   0.2265     C
H       0.3548   0.2378   0.8875     H
H       0.3548   0.7622   0.8875     H
H        0.355   0.1373   0.2228     H
H        0.355   0.8627   0.2228     H
O        0.357  0.31058   0.6059     O
O        0.357  0.68942   0.6059     O
C       0.3578   0.4002     0.44     C
C       0.3578   0.5998     0.44     C
C       0.3588   0.2792   0.5929     C
C       0.3588   0.7208   0.5929     C
H       0.3669   0.3893   0.3966     H
H       0.3669   0.6107   0.3966     H
C       0.3679    0.434   0.4615     C
C       0.3679    0.566   0.4615     C
O       0.3682  0.18133   0.9702     O
O       0.3682  0.81867   0.9702     O
H       0.3767   0.2137   0.5997     H
H       0.3767   0.7863   0.5997     H
O       0.3809  0.19678   0.1672     O
O       0.3809  0.80322   0.1672     O
H       0.3833    0.224   0.0319     H
H       0.3833    0.776   0.0319     H
H       0.3834   0.1546   0.1055     H
H       0.3834   0.8454   0.1055     H
H       0.3866   0.4495   0.4378     H
H       0.3866   0.5505   0.4378     H
C       0.3931   0.2589    0.653     C
C       0.3931   0.7411    0.653     C
C       0.3965    0.224   0.6439     C
C       0.3965    0.776   0.6439     C
C       0.4023   0.2065   0.0107     C
C       0.4023   0.7935   0.0107     C
C       0.4074  0.17064   0.1347     C
C       0.4074  0.82936   0.1347     C
H       0.4217   0.2167   0.9744     H
H       0.4217   0.2966   0.7245     H
H       0.4217   0.7034   0.7245     H
H       0.4217   0.7833   0.9744     H
C       0.4237   0.2734   0.7178     C
C       0.4237   0.7266   0.7178     C
C       0.4291   0.2041   0.7001     C
C       0.4291   0.7959   0.7001     C
H         0.43   0.1808   0.6945     H
H         0.43   0.8192   0.6945     H
H       0.4301   0.1587   0.1767     H
H       0.4301   0.8413   0.1767     H
C        0.438   0.1882   0.0785     C
C        0.438   0.8118   0.0785     C
H        0.448   0.1469   0.0098     H
H        0.448   0.8531   0.0098     H
H       0.4511   0.2325   0.1469     H
H       0.4511   0.7675   0.1469     H
C       0.4568   0.2555    0.773     C
C       0.4568   0.7445    0.773     C
C         0.46   0.2201   0.7639     C
C         0.46   0.7799   0.7639     C
C       0.4698   0.1627   0.0439     C
C       0.4698   0.8373   0.0439     C
C       0.4719   0.2165   0.1242     C
C       0.4719   0.7835   0.1242     C
H        0.477   0.2664   0.8159     H
H        0.477   0.7336   0.8159     H
H       0.4899   0.2286   0.0886     H
H       0.4899   0.7714   0.0886     H
H       0.4912     0.15   0.0862     H
H       0.4912     0.85   0.0862     H
O      0.49249  0.19992   0.8136     O
O      0.49249  0.80008   0.8136     O
O          0.5   0.1806      0.0     O
O          0.5   0.8194      0.0     O
O      0.50751  0.19992   0.1864     O
O      0.50751  0.80008   0.1864     O
H       0.5088     0.15   0.9138     H
H       0.5088     0.85   0.9138     H
H       0.5101   0.2286   0.9114     H
H       0.5101   0.7714   0.9114     H
H        0.523   0.2664   0.1841     H
H        0.523   0.7336   0.1841     H
C       0.5281   0.2165   0.8758     C
C       0.5281   0.7835   0.8758     C
C       0.5302   0.1627   0.9561     C
C       0.5302   0.8373   0.9561     C
C         0.54   0.2201   0.2361     C
C         0.54   0.7799   0.2361     C
C       0.5432   0.2555    0.227     C
C       0.5432   0.7445    0.227     C
H       0.5489   0.2325   0.8531     H
H       0.5489   0.7675   0.8531     H
H        0.552   0.1469   0.9902     H
H        0.552   0.8531   0.9902     H
C        0.562   0.1882   0.9215     C
C        0.562   0.8118   0.9215     C
H       0.5699   0.1587   0.8233     H
H       0.5699   0.8413   0.8233     H
H         0.57   0.1808   0.3055     H
H         0.57   0.8192   0.3055     H
C       0.5709   0.2041   0.2999     C
C       0.5709   0.7959   0.2999     C
C       0.5763   0.2734   0.2822     C
C       0.5763   0.7266   0.2822     C
H       0.5783   0.2167   0.0256     H
H       0.5783   0.2966   0.2755     H
H       0.5783   0.7034   0.2755     H
H       0.5783   0.7833   0.0256     H
C       0.5926  0.17064   0.8653     C
C       0.5926  0.82936   0.8653     C
C       0.5977   0.2065   0.9893     C
C       0.5977   0.7935   0.9893     C
C       0.6035    0.224   0.3561     C
C       0.6035    0.776   0.3561     C
C       0.6069   0.2589    0.347     C
C       0.6069   0.7411    0.347     C
H       0.6134   0.4495   0.5622     H
H       0.6134   0.5505   0.5622     H
H       0.6166   0.1546   0.8945     H
H       0.6166   0.8454   0.8945     H
H       0.6167    0.224   0.9681     H
H       0.6167    0.776   0.9681     H
O       0.6191  0.19678   0.8328     O
O       0.6191  0.80322   0.8328     O
H       0.6233   0.2137   0.4003     H
H       0.6233   0.7863   0.4003     H
O       0.6318  0.18133   0.0298     O
O       0.6318  0.81867   0.0298     O
C       0.6321    0.434   0.5385     C
C       0.6321    0.566   0.5385     C
H       0.6331   0.3893   0.6034     H
H       0.6331   0.6107   0.6034     H
C       0.6412   0.2792   0.4071     C
C       0.6412   0.7208   0.4071     C
C       0.6422   0.4002     0.56     C
C       0.6422   0.5998     0.56     C
O        0.643  0.31058   0.3941     O
O        0.643  0.68942   0.3941     O
H        0.645   0.1373   0.7772     H
H        0.645   0.8627   0.7772     H
H       0.6452   0.2378   0.1125     H
H       0.6452   0.7622   0.1125     H
C       0.6453   0.1887   0.7735     C
C       0.6453   0.8113   0.7735     C
H       0.6527      0.5   0.5267     H
C       0.6535   0.4753    0.182     C
C       0.6535   0.5247    0.182     C
H       0.6544   0.2382   0.7492     H
H       0.6544   0.7618   0.7492     H
C       0.6562    0.156   0.7523     C
C       0.6562    0.844   0.7523     C
C       0.6564      0.5   0.4737     C
N       0.6565  0.43934   0.4727     N
N       0.6565  0.56066   0.4727     N
N       0.6573      0.5   0.2276     N
C       0.6575   0.1884   0.1054     C
C       0.6575   0.8116   0.1054     C
N       0.6584   0.4843   0.1049     N
N       0.6584   0.5157   0.1049     N
C       0.6592      0.5   0.3086     C
C       0.6593     0.47   0.4326     C
C       0.6593     0.53   0.4326     C
C       0.6594   0.4693   0.3513     C
C       0.6594   0.5307   0.3513     C
H       0.6596   0.4487    0.325     H
H       0.6596   0.5513    0.325     H
C        0.661   0.2193   0.1404     C
C        0.661   0.7807   0.1404     C
C       0.6616   0.2164   0.7348     C
C       0.6616   0.7836   0.7348     C
O      0.66581  0.26563   0.4693     O
O      0.66581  0.73437   0.4693     O
N       0.6681  0.38586   0.5053     N
N       0.6681  0.61414   0.5053     N
C       0.6773   0.4091    0.457     C
C       0.6773   0.5909    0.457     C
C       0.6834   0.1617    0.146     C
C       0.6834   0.8383    0.146     C
C       0.6842   0.1522   0.6931     C
C       0.6842   0.8478   0.6931     C
H       0.6845   0.1412   0.1199     H
H       0.6845   0.8588   0.1199     H
C       0.6881   0.2233   0.2182     C
C       0.6881   0.7767   0.2182     C
C       0.6882   0.2107   0.6753     C
C       0.6882   0.7893   0.6753     C
H       0.6898   0.2445   0.2421     H
H       0.6898   0.7555   0.2421     H
H       0.6926   0.1305   0.6796     H
H       0.6926   0.8695   0.6796     H
Cd     0.69292  0.33121  0.50422    Cd
Cd     0.69292  0.66879  0.50422    Cd
H       0.6958   0.4058   0.4167     H
H       0.6958   0.5942   0.4167     H
H       0.6987   0.2291   0.6486     H
H       0.6987   0.7709   0.6486     H
C       0.7003  0.17834   0.6532     C
C       0.7003  0.82166   0.6532     C
C       0.7077   0.1646   0.2244     C
C       0.7077   0.8354   0.2244     C
C       0.7125   0.1963   0.2601     C
C       0.7125   0.8037   0.2601     C
H       0.7207   0.1456   0.2531     H
H       0.7207   0.8544   0.2531     H
C       0.7309   0.1731    0.589     C
C       0.7309   0.8269    0.589     C
O       0.7377  0.19707   0.5444     O
O       0.7377  0.80293   0.5444     O
O       0.7385  0.32625   0.6242     O
O       0.7385  0.67375   0.6242     O
O       0.7409  0.22814   0.3768     O
O       0.7409  0.77186   0.3768     O
C        0.741   0.2001   0.3449     C
C        0.741   0.7999   0.3449     C
O       0.7491  0.35541   0.4169     O
O       0.7491  0.64459   0.4169     O
Cd        0.75     0.25      0.5    Cd
Cd        0.75     0.75      0.5    Cd
O       0.7509  0.14459   0.5831     O
O       0.7509  0.85541   0.5831     O
C        0.759   0.2999   0.6551     C
C        0.759   0.7001   0.6551     C
O       0.7591  0.27186   0.6232     O
O       0.7591  0.72814   0.6232     O
O       0.7615  0.17375   0.3758     O
O       0.7615  0.82625   0.3758     O
O       0.7623  0.30293   0.4556     O
O       0.7623  0.69707   0.4556     O
C       0.7691   0.3269    0.411     C
C       0.7691   0.6731    0.411     C
H       0.7793   0.3544   0.7469     H
H       0.7793   0.6456   0.7469     H
C       0.7875   0.3037   0.7399     C
C       0.7875   0.6963   0.7399     C
C       0.7923   0.3354   0.7756     C
C       0.7923   0.6646   0.7756     C
C       0.7997  0.32166   0.3468     C
C       0.7997  0.67834   0.3468     C
H       0.8013   0.2709   0.3514     H
H       0.8013   0.7291   0.3514     H
H       0.8042   0.0942   0.5833     H
H       0.8042   0.9058   0.5833     H
Cd     0.80708  0.16879  0.49578    Cd
Cd     0.80708  0.83121  0.49578    Cd
H       0.8074   0.3695   0.3204     H
H       0.8074   0.6305   0.3204     H
H       0.8102   0.2555   0.7579     H
H       0.8102   0.7445   0.7579     H
C       0.8118   0.2893   0.3247     C
C       0.8118   0.7107   0.3247     C
C       0.8119   0.2767   0.7818     C
C       0.8119   0.7233   0.7818     C
H       0.8155   0.3588   0.8801     H
H       0.8155   0.6412   0.8801     H
C       0.8158   0.3478   0.3069     C
C       0.8158   0.6522   0.3069     C
C       0.8166   0.3383    0.854     C
C       0.8166   0.6617    0.854     C
C       0.8227   0.0909    0.543     C
C       0.8227   0.9091    0.543     C
N       0.8319  0.11414   0.4947     N
N       0.8319  0.88586   0.4947     N
O      0.83419  0.23437   0.5307     O
O      0.83419  0.76563   0.5307     O
C       0.8384   0.2836   0.2652     C
C       0.8384   0.7164   0.2652     C
C        0.839   0.2807   0.8596     C
C        0.839   0.7193   0.8596     C
H       0.8404   0.0513    0.675     H
H       0.8404   0.9487    0.675     H
C       0.8406   0.0307   0.6487     C
C       0.8406   0.9693   0.6487     C
C       0.8407     0.03   0.5674     C
C       0.8407     0.97   0.5674     C
C       0.8408      0.0   0.6914     C
N       0.8416   0.0157   0.8951     N
N       0.8416   0.9843   0.8951     N
C       0.8425   0.3116   0.8946     C
C       0.8425   0.6884   0.8946     C
N       0.8427      0.0   0.7724     N
N       0.8435  0.06066   0.5273     N
N       0.8435  0.93934   0.5273     N
C       0.8436      0.0   0.5263     C
C       0.8438    0.344   0.2477     C
C       0.8438    0.656   0.2477     C
H       0.8456   0.2618   0.2508     H
H       0.8456   0.7382   0.2508     H
C       0.8465   0.0247    0.818     C
C       0.8465   0.9753    0.818     C
H       0.8473      0.0   0.4733     H
C       0.8547   0.3113   0.2265     C
C       0.8547   0.6887   0.2265     C
H       0.8548   0.2622   0.8875     H
H       0.8548   0.7378   0.8875     H
H        0.855   0.3627   0.2228     H
H        0.855   0.6373   0.2228     H
O        0.857  0.18942   0.6059     O
O        0.857  0.81058   0.6059     O
C       0.8578   0.0998     0.44     C
C       0.8578   0.9002     0.44     C
C       0.8588   0.2208   0.5929     C
C       0.8588   0.7792   0.5929     C
H       0.8669   0.1107   0.3966     H
H       0.8669   0.8893   0.3966     H
C       0.8679    0.066   0.4615     C
C       0.8679    0.934   0.4615     C
O       0.8682  0.31867   0.9702     O
O       0.8682  0.68133   0.9702     O
H       0.8767   0.2863   0.5997     H
H       0.8767   0.7137   0.5997     H
O       0.8809  0.30322   0.1672     O
O       0.8809  0.69678   0.1672     O
H       0.8833    0.276   0.0319     H
H       0.8833    0.724   0.0319     H
H       0.8834   0.3454   0.1055     H
H       0.8834   0.6546   0.1055     H
H       0.8866   0.0505   0.4378     H
H       0.8866   0.9495   0.4378     H
C       0.8931   0.2411    0.653     C
C       0.8931   0.7589    0.653     C
C       0.8965    0.276   0.6439     C
C       0.8965    0.724   0.6439     C
C       0.9023   0.2935   0.0107     C
C       0.9023   0.7065   0.0107     C
C       0.9074  0.32936   0.1347     C
C       0.9074  0.67064   0.1347     C
H       0.9217   0.2034   0.7245     H
H       0.9217   0.2833   0.9744     H
H       0.9217   0.7167   0.9744     H
H       0.9217   0.7966   0.7245     H
C       0.9237   0.2266   0.7178     C
C       0.9237   0.7734   0.7178     C
C       0.9291   0.2959   0.7001     C
C       0.9291   0.7041   0.7001     C
H         0.93   0.3192   0.6945     H
H         0.93   0.6808   0.6945     H
H       0.9301   0.3413   0.1767     H
H       0.9301   0.6587   0.1767     H
C        0.938   0.3118   0.0785     C
C        0.938   0.6882   0.0785     C
H        0.948   0.3531   0.0098     H
H        0.948   0.6469   0.0098     H
H       0.9511   0.2675   0.1469     H
H       0.9511   0.7325   0.1469     H
C       0.9568   0.2445    0.773     C
C       0.9568   0.7555    0.773     C
C         0.96   0.2799   0.7639     C
C         0.96   0.7201   0.7639     C
C       0.9698   0.3373   0.0439     C
C       0.9698   0.6627   0.0439     C
C       0.9719   0.2835   0.1242     C
C       0.9719   0.7165   0.1242     C
H        0.977   0.2336   0.8159     H
H        0.977   0.7664   0.8159     H
H       0.9899   0.2714   0.0886     H
H       0.9899   0.7286   0.0886     H
H       0.9912     0.35   0.0862     H
H       0.9912     0.65   0.0862     H
O      0.99249  0.30008   0.8136     O
O      0.99249  0.69992   0.8136     O
