data_I
_chemical_name_common  '/home/zhangsd/repos/MofS-CGCNN/ML/data/TSD/clean_cifs/HUHJAW_clean'
_cell_length_a  7.87240
_cell_length_b  9.28840
_cell_length_c  9.46070
_cell_angle_alpha 93.36080
_cell_angle_beta  114.58600
_cell_angle_gamma 81.89990
_space_group_name_H-M_alt      'P 1'


loop_
_space_group_symop_operation_xyz
  'x, y, z' 

loop_
_atom_site_label
_atom_site_fract_x
_atom_site_fract_y
_atom_site_fract_z
_atom_site_type_symbol
Cd         0.0      0.5      0.5    Cd
H       0.0146   0.9569   0.3574     H
C       0.0203   0.8521    0.758     C
H       0.0554   0.8974   0.8594     H
H       0.0568    0.223   0.2488     H
C       0.0913   0.0337   0.3698     C
H       0.1144   0.0789     0.47     H
Cl     0.14903      0.5  0.29806    Cl
H        0.192    0.777   0.2488     H
C       0.1932   0.7866   0.7372     C
H        0.196   0.8974   0.1406     H
N        0.198   0.6804    0.636     N
C       0.2623   0.8521    0.242     C
N       0.2695   0.3363   0.6468     N
N       0.2737   0.2452   0.7484     N
C       0.2785   0.9663   0.3698     C
H       0.3428   0.0431   0.3574     H
H       0.3556   0.9211     0.47     H
N       0.3613   0.8337    0.807     N
N       0.3773   0.6637   0.6468     N
N        0.438   0.3196    0.636     N
N       0.4457   0.1663    0.807     N
C        0.456   0.7866   0.2628     C
N       0.4747   0.7548   0.7484     N
Cd         0.5      0.0     -0.0    Cd
Cd         0.5      0.5      0.5    Cd
N       0.5253   0.2452   0.2516     N
C        0.544   0.2134   0.7372     C
N       0.5543   0.8337    0.193     N
N        0.562   0.6804    0.364     N
N       0.6227   0.3363   0.3532     N
N       0.6387   0.1663    0.193     N
H       0.6444   0.0789     0.53     H
H       0.6572   0.9569   0.6426     H
C       0.7215   0.0337   0.6302     C
N       0.7263   0.7548   0.2516     N
N       0.7305   0.6637   0.3532     N
C       0.7377   0.1479    0.758     C
N        0.802   0.3196    0.364     N
H        0.804   0.1026   0.8594     H
C       0.8068   0.2134   0.2628     C
H        0.808    0.223   0.7512     H
Cl     0.85097      0.5  0.70194    Cl
H       0.8856   0.9211     0.53     H
C       0.9087   0.9663   0.6302     C
H       0.9432    0.777   0.7512     H
H       0.9446   0.1026   0.1406     H
C       0.9797   0.1479    0.242     C
H       0.9854   0.0431   0.6426     H
