data_I
_chemical_name_common  '/home/zhangsd/repos/MofS-CGCNN/ML/data/TSD/clean_cifs/HUNCUQ_clean'
_cell_length_a 16.33030
_cell_length_b 20.68470
_cell_length_c 16.98010
_cell_angle_alpha 90.00000
_cell_angle_beta  98.47200
_cell_angle_gamma 90.00000
_space_group_name_H-M_alt      'P 1'


loop_
_space_group_symop_operation_xyz
  'x, y, z' 

loop_
_atom_site_label
_atom_site_fract_x
_atom_site_fract_y
_atom_site_fract_z
_atom_site_type_symbol
C       0.0004   0.1217   0.8216     C
C       0.0014   0.9446   0.1805     C
O       0.0038   0.7468     0.17     O
H        0.004   0.6687    0.609     H
C       0.0042   0.6348    0.645     C
O       0.0069   0.7428    0.338     O
C       0.0089   0.5348   0.7522     C
C       0.0096   0.7488    0.411     C
H       0.0102   0.7882   0.5593     H
O       0.0106    0.396   0.9867     O
H       0.0118   0.5009   0.7884     H
C       0.0132   0.4773   0.3285     C
C       0.0142   0.1802   0.4756     C
C        0.015   0.4272   0.3822     C
Zn     0.02034  0.67416  0.25078    Zn
C       0.0217   0.1902   0.5569     C
O       0.0229    0.611   0.1424     O
C       0.0235    0.646   0.7246     C
C       0.0266   0.5964   0.7788     C
O       0.0269   0.0844   0.1788     O
H       0.0291    0.435   0.4365     H
H       0.0303   0.8551   0.2195     H
H       0.0322   0.2524   0.1033     H
H        0.034   0.9663   0.2217     H
H       0.0372   0.1167   0.3911     H
C       0.0377   0.5959   0.0768     C
O       0.0385    0.707   0.4629     O
C       0.0387    0.545   0.3563     C
O       0.0387   0.5877   0.3092     O
H       0.0405   0.6046    0.833     H
S      0.04189  0.72603  0.75913     S
C       0.0431   0.1235   0.4458     C
S      0.04593  0.93527   0.8733     S
C        0.046   0.1543   0.8822     C
C       0.0463   0.2257   0.8821     C
C       0.0467   0.0213   0.8803     C
C       0.0562   0.2473    0.223     C
C       0.0596   0.1427   0.6079     C
O       0.0631   0.9105   0.9521     O
O       0.0653   0.7629   0.6951     O
H       0.0657   0.1494   0.6626     H
O       0.0659   0.5522   0.4299     O
O       0.0719    0.996   0.3803     O
C       0.0729   0.2426   0.1459     C
H       0.0743   0.9335   0.7136     H
C       0.0798   0.0781   0.4967     C
C       0.0881   0.0863   0.5789     C
C       0.0934   0.1185   0.9424     C
C       0.0935   0.0518   0.9417     C
H       0.0953   0.5363   0.9531     H
O       0.0956   0.7234   0.8346     O
O       0.0961   0.2554   0.9337     O
Zn     0.10281  0.34972  0.93951    Zn
H       0.1035   0.2348    0.338     H
O       0.1035   0.3448   0.7526     O
Zn     0.11214  0.63803  0.44434    Zn
H       0.1124   0.0545   0.6133     H
C       0.1159   0.2322   0.2863     C
S      0.11763    0.006  0.45812     S
O       0.1198   0.9569   0.5174     O
C       0.1222    0.567   0.0674     C
C       0.1248   0.9224   0.7434     C
H       0.1249   0.0285   0.9822     H
H       0.1257   0.1402   0.9838     H
C       0.1322   0.9186   0.8232     C
C       0.1378     0.54   0.9958     C
O        0.146   0.6878   0.2613     O
C       0.1511    0.223   0.1326     C
C       0.1624   0.3729   0.7923     C
H       0.1627   0.2195   0.0807     H
O       0.1694    0.386   0.8647     O
H       0.1735   0.5866   0.1794     H
H       0.1776   0.3781   0.6396     H
C       0.1848   0.5706    0.131     C
H       0.1875   0.9144    0.651     H
C        0.192   0.9101    0.706     C
C       0.1937   0.2132   0.2738     C
H       0.1944   0.0542    0.333     H
O        0.198   0.6732    0.391     O
C       0.2028   0.6878    0.319     C
C       0.2053   0.9038   0.8672     C
H       0.2104   0.9035   0.9225     H
C       0.2122   0.2085   0.1964     C
C        0.217   0.5189   0.9886     C
C       0.2206   0.0262   0.4468     C
C       0.2278   0.3894   0.6699     C
H       0.2281   0.5001   0.9415     H
H       0.2338   0.2035   0.3169     H
C       0.2344   0.3914   0.7512     C
C       0.2366   0.0508    0.376     C
C       0.2634   0.5508    0.124     C
C       0.2656   0.8914   0.7488     C
H       0.2662   0.7035   0.1831     H
H       0.2719   0.0001   0.5585     H
C       0.2722   0.8894   0.8301     C
C       0.2794   0.5262   0.0532     C
C        0.283   0.0189   0.5114     C
C       0.2878   0.7085   0.3036     C
H       0.2896   0.4035   0.5775     H
C       0.2947   0.4038   0.6328     C
C       0.2972   0.1878    0.181     C
O        0.302   0.1732    0.109     O
H       0.3056   0.5542    0.167     H
C       0.3063   0.7132   0.2262     C
C        0.308   0.4101    0.794     C
H       0.3125   0.4144    0.849     H
C       0.3152   0.0706    0.369     C
H       0.3224   0.8781   0.8604     H
H       0.3265   0.0866   0.3206     H
O       0.3306    0.886   0.6353     O
H       0.3373   0.7195   0.4193     H
C       0.3376   0.8729   0.7077     C
C       0.3489    0.723   0.3674     C
O        0.354   0.1878   0.2387     O
C       0.3622     0.04   0.5042     C
C       0.3678   0.4186   0.6768     C
H       0.3743   0.6402   0.5162     H
H       0.3751   0.5285   0.5178     H
C       0.3752   0.4224   0.7566     C
C       0.3778    0.067   0.4326     C
O       0.3802   0.4569   0.9826     O
S      0.38237    0.506  0.04188     S
C       0.3841   0.7322   0.2137     C
H       0.3876   0.5545   0.8867     H
Zn     0.38786  0.13803  0.05566    Zn
H       0.3965   0.7348    0.162     H
O       0.3965   0.8448   0.7474     O
Zn     0.39719  0.84972  0.56049    Zn
O       0.4039   0.7554   0.5663     O
O       0.4044   0.2234   0.6654     O
H       0.4047   0.0363   0.5469     H
C       0.4065   0.5518   0.5583     C
C       0.4066   0.6185   0.5576     C
C       0.4119   0.5863   0.9211     C
C       0.4202   0.5781   0.0033     C
H       0.4257   0.4335   0.7864     H
C       0.4271   0.7426   0.3541     C
O       0.4281    0.496   0.1197     O
O       0.4341   0.0522   0.0701     O
H       0.4343   0.6494   0.8374     H
O       0.4347   0.2629   0.8049     O
O       0.4369   0.4105   0.5479     O
C       0.4404   0.6427   0.8921     C
C       0.4438   0.7473    0.277     C
C       0.4533   0.5213   0.6197     C
C       0.4537   0.7257   0.6179     C
C        0.454   0.6543   0.6178     C
S      0.45407  0.43527   0.6267     S
C       0.4569   0.6235   0.0542     C
S      0.45811  0.22603  0.74087     S
H       0.4595   0.1046    0.667     H
C       0.4613    0.045   0.1437     C
O       0.4613   0.0877   0.1908     O
O       0.4615    0.207   0.0371     O
C       0.4623   0.0959   0.4232     C
H       0.4628   0.6167   0.1089     H
H        0.466   0.4663   0.2783     H
H       0.4678   0.7524   0.3967     H
H       0.4697   0.3551   0.2805     H
H       0.4709    0.935   0.0635     H
O       0.4731   0.5844   0.3212     O
C       0.4734   0.0964   0.7212     C
C       0.4765    0.146   0.7754     C
O       0.4771    0.111   0.3576     O
C       0.4783   0.6902   0.9431     C
Zn     0.47966  0.17416  0.24922    Zn
C        0.485   0.9272   0.1178     C
C       0.4858   0.6802   0.0244     C
C       0.4868   0.9773   0.1715     C
H       0.4882   0.0009   0.7116     H
O       0.4894    0.896   0.5133     O
H       0.4898   0.2882   0.9407     H
C       0.4904   0.2488    0.089     C
C       0.4911   0.0348   0.7478     C
O       0.4931   0.2428    0.162     O
C       0.4958   0.1348    0.855     C
H        0.496   0.1687    0.891     H
O       0.4962   0.2468     0.33     O
C       0.4986   0.4446   0.3195     C
C       0.4996   0.6217   0.6784     C
C       0.5004   0.3783   0.3216     C
C       0.5014   0.5554   0.6805     C
O       0.5038   0.7532     0.67     O
H        0.504   0.8313    0.109     H
C       0.5042   0.8652    0.145     C
O       0.5069   0.7572    0.838     O
C       0.5089   0.9652   0.2522     C
C       0.5096   0.7512    0.911     C
H       0.5102   0.7118   0.0593     H
O       0.5106    0.104   0.4867     O
H       0.5118   0.9991   0.2884     H
C       0.5132   0.0227   0.8285     C
C       0.5142   0.3198   0.9756     C
C        0.515   0.0728   0.8822     C
Zn     0.52034  0.82584  0.75078    Zn
C       0.5217   0.3098   0.0569     C
O       0.5229    0.889   0.6424     O
C       0.5235    0.854   0.2246     C
C       0.5266   0.9036   0.2788     C
O       0.5269   0.4156   0.6788     O
H       0.5291    0.065   0.9365     H
H       0.5303   0.6449   0.7195     H
H       0.5322   0.2476   0.6033     H
H        0.534   0.5337   0.7217     H
H       0.5372   0.3833   0.8911     H
C       0.5377   0.9041   0.5768     C
O       0.5385    0.793   0.9629     O
O       0.5387   0.9123   0.8092     O
C       0.5387    0.955   0.8563     C
H       0.5405   0.8954    0.333     H
S      0.54189  0.77397  0.25913     S
C       0.5431   0.3765   0.9458     C
S      0.54593  0.56473   0.3733     S
C        0.546   0.3457   0.3822     C
C       0.5463   0.2743   0.3821     C
C       0.5467   0.4787   0.3803     C
C       0.5562   0.2527    0.723     C
C       0.5596   0.3573   0.1079     C
O       0.5631   0.5895   0.4521     O
O       0.5653   0.7371   0.1951     O
H       0.5657   0.3506   0.1626     H
O       0.5659   0.9478   0.9299     O
O       0.5719    0.504   0.8803     O
C       0.5729   0.2574   0.6459     C
H       0.5743   0.5665   0.2136     H
C       0.5798   0.4219   0.9967     C
C       0.5881   0.4137   0.0789     C
C       0.5934   0.3815   0.4424     C
C       0.5935   0.4482   0.4417     C
H       0.5953   0.9637   0.4531     H
O       0.5956   0.7766   0.3346     O
O       0.5961   0.2446   0.4337     O
Zn     0.60281  0.15028  0.43951    Zn
O       0.6035   0.1552   0.2526     O
H       0.6035   0.2652    0.838     H
Zn     0.61214  0.86197  0.94434    Zn
H       0.6124   0.4455   0.1133     H
C       0.6159   0.2678   0.7863     C
S      0.61763    0.494  0.95812     S
O       0.6198   0.5431   0.0174     O
C       0.6222    0.933   0.5674     C
C       0.6248   0.5776   0.2434     C
H       0.6249   0.4715   0.4822     H
H       0.6257   0.3598   0.4838     H
C       0.6322   0.5814   0.3232     C
C       0.6378     0.96   0.4958     C
O        0.646   0.8122   0.7613     O
C       0.6511    0.277   0.6326     C
C       0.6624   0.1271   0.2923     C
H       0.6627   0.2805   0.5807     H
O       0.6694    0.114   0.3647     O
H       0.6735   0.9134   0.6794     H
H       0.6776   0.1219   0.1396     H
C       0.6848   0.9294    0.631     C
H       0.6875   0.5856    0.151     H
C        0.692   0.5899    0.206     C
C       0.6937   0.2868   0.7738     C
H       0.6944   0.4458    0.833     H
O        0.698   0.8268    0.891     O
C       0.7028   0.8122    0.819     C
C       0.7053   0.5962   0.3672     C
H       0.7104   0.5965   0.4225     H
C       0.7122   0.2915   0.6964     C
C        0.717   0.9811   0.4886     C
C       0.7206   0.4738   0.9468     C
C       0.7278   0.1106   0.1699     C
H       0.7281   0.9999   0.4415     H
H       0.7338   0.2965   0.8169     H
C       0.7344   0.1086   0.2512     C
C       0.7366   0.4492    0.876     C
C       0.7634   0.9492    0.624     C
C       0.7656   0.6086   0.2488     C
H       0.7662   0.7965   0.6831     H
H       0.7719   0.4999   0.0585     H
C       0.7722   0.6106   0.3301     C
C       0.7794   0.9738   0.5532     C
C        0.783   0.4811   0.0114     C
C       0.7878   0.7915   0.8036     C
H       0.7896   0.0965   0.0775     H
C       0.7947   0.0962   0.1328     C
C       0.7972   0.3122    0.681     C
O        0.802   0.3268    0.609     O
H       0.8056   0.9458    0.667     H
C       0.8063   0.7868   0.7262     C
C        0.808   0.0899    0.294     C
H       0.8125   0.0856    0.349     H
C       0.8152   0.4294    0.869     C
H       0.8224   0.6219   0.3604     H
H       0.8265   0.4134   0.8206     H
O       0.8306    0.614   0.1353     O
H       0.8373   0.7805   0.9193     H
C       0.8376   0.6271   0.2077     C
C       0.8489    0.777   0.8674     C
O        0.854   0.3122   0.7387     O
C       0.8622     0.46   0.0042     C
C       0.8678   0.0814   0.1768     C
H       0.8743   0.8598   0.0162     H
H       0.8751   0.9715   0.0178     H
C       0.8752   0.0776   0.2566     C
C       0.8778    0.433   0.9326     C
O       0.8802   0.0431   0.4826     O
S      0.88237    0.994  0.54188     S
C       0.8841   0.7678   0.7137     C
H       0.8876   0.9455   0.3867     H
Zn     0.88786  0.36197  0.55566    Zn
O       0.8965   0.6552   0.2474     O
H       0.8965   0.7652    0.662     H
Zn     0.89719  0.65028  0.06049    Zn
O       0.9039   0.7446   0.0663     O
O       0.9044   0.2766   0.1654     O
H       0.9047   0.4637   0.0469     H
C       0.9065   0.9482   0.0583     C
C       0.9066   0.8815   0.0576     C
C       0.9119   0.9137   0.4211     C
C       0.9202   0.9219   0.5033     C
H       0.9257   0.0665   0.2864     H
C       0.9271   0.7574   0.8541     C
O       0.9281    0.004   0.6197     O
O       0.9341   0.4478   0.5701     O
H       0.9343   0.8506   0.3374     H
O       0.9347   0.2371   0.3049     O
O       0.9369   0.0895   0.0479     O
C       0.9404   0.8573   0.3921     C
C       0.9438   0.7527    0.777     C
C       0.9533   0.9787   0.1197     C
C       0.9537   0.7743   0.1179     C
C        0.954   0.8457   0.1178     C
S      0.95407  0.06473   0.1267     S
C       0.9569   0.8765   0.5542     C
S      0.95811  0.27397  0.24087     S
H       0.9595   0.3954    0.167     H
O       0.9613   0.4123   0.6908     O
C       0.9613    0.455   0.6437     C
O       0.9615    0.293   0.5371     O
C       0.9623   0.4041   0.9232     C
H       0.9628   0.8833   0.6089     H
H        0.966   0.0337   0.7783     H
H       0.9678   0.7476   0.8967     H
H       0.9697   0.1449   0.7805     H
H       0.9709    0.565   0.5635     H
O       0.9731   0.9156   0.8212     O
C       0.9734   0.4036   0.2212     C
C       0.9765    0.354   0.2754     C
O       0.9771    0.389   0.8576     O
C       0.9783   0.8098   0.4431     C
Zn     0.97966  0.32584  0.74922    Zn
C        0.985   0.5728   0.6178     C
C       0.9858   0.8198   0.5244     C
C       0.9868   0.5227   0.6715     C
H       0.9882   0.4991   0.2116     H
O       0.9894    0.604   0.0133     O
H       0.9898   0.2118   0.4407     H
C       0.9904   0.2512    0.589     C
C       0.9911   0.4652   0.2478     C
O       0.9931   0.2572    0.662     O
C       0.9958   0.3652    0.355     C
H        0.996   0.3313    0.391     H
O       0.9962   0.2532     0.83     O
C       0.9986   0.0554   0.8195     C
C       0.9996   0.8783   0.1784     C
