data_I
_chemical_name_common  '/home/zhangsd/repos/MofS-CGCNN/ML/data/TSD/clean_cifs/HUNFON_clean'
_cell_length_a 13.18970
_cell_length_b 16.43800
_cell_length_c 15.47250
_cell_angle_alpha 90.00000
_cell_angle_beta  102.34500
_cell_angle_gamma 90.00000
_space_group_name_H-M_alt      'P 1'


loop_
_space_group_symop_operation_xyz
  'x, y, z' 

loop_
_atom_site_label
_atom_site_fract_x
_atom_site_fract_y
_atom_site_fract_z
_atom_site_type_symbol
Zn         0.0      0.0      0.0    Zn
H       0.0063   0.1073   0.6348     H
Zn     0.00973  0.30492  0.42795    Zn
H       0.0101   0.3264   0.2265     H
N       0.0117   0.8663   0.0111     N
N        0.016   0.1755   0.4256     N
C       0.0184   0.6951   0.0171     C
C       0.0268   0.6042   0.0213     C
H       0.0306   0.5833   0.9635     H
H       0.0347   0.4182   0.9628     H
C       0.0415   0.0076   0.4043     C
C       0.0425   0.9503   0.6439     C
H        0.044    0.091   0.1817     H
C       0.0458    0.261   0.9398     C
C        0.046   0.1766   0.9429     C
C       0.0523   0.8685   0.6322     C
H       0.0555   0.5694   0.1967     H
C        0.059   0.9183   0.3926     C
C       0.0715   0.8236   0.9676     C
C       0.0778     0.74   0.9695     C
C       0.0804   0.3182   0.2501     C
H       0.0836   0.8934   0.4501     H
H        0.088   0.1484   0.9119     H
H       0.0887   0.2882   0.9089     H
H       0.0929    0.978   0.6846     H
C       0.0979   0.1354   0.4729     C
H       0.1084   0.9221   0.2756     H
H       0.1085   0.6538   0.1906     H
H       0.1094    0.842   0.6662     H
C       0.1102   0.0719   0.1809     C
H       0.1102    0.781   0.3095     H
N       0.1106   0.3055   0.3372     N
H       0.1108    0.852   0.9343     H
C        0.113   0.0532   0.4642     C
O        0.113  0.99881   0.9205     O
C       0.1171   0.5956    0.185     C
N       0.1211   0.0213   0.1147     N
H       0.1217   0.7134    0.939     H
H       0.1224   0.3282   0.1338     H
O       0.1232   0.6862   0.6706     O
C       0.1251   0.5768   0.0906     C
H       0.1335    0.495    0.321     H
O       0.1339  0.30805    0.542     O
H       0.1347   0.5187   0.0848     H
C       0.1377    0.904   0.3354     C
H       0.1465    0.791   0.1584     H
H       0.1468   0.1645   0.5134     H
C       0.1476   0.3198    0.194     C
V      0.15963  0.33342   0.6481     V
C       0.1703   0.8146   0.3327     C
H       0.1711   0.0281   0.4985     H
H       0.1788   0.1313   0.2913     H
H       0.1856    0.604   0.0781     H
C       0.1905   0.0966    0.247     C
O       0.1963   0.2481   0.7184     O
C       0.1986   0.5159   0.3191     C
H       0.1989   0.9367   0.3579     H
O       0.2013  0.08336   0.7972     O
H       0.2015   0.7958   0.3918     H
C        0.209   0.5688   0.2533     C
C       0.2119   0.2954   0.3676     C
C       0.2165   0.7974    0.184     C
C       0.2166   0.9934   0.1178     C
V      0.21802   0.0042  0.87745     V
V       0.2256  0.66026  0.74685     V
H       0.2261   0.9565   0.0746     H
H       0.2354   0.2863   0.4279     H
O       0.2371  0.90788   0.8301     O
C       0.2474   0.8089   0.2738     C
C       0.2526   0.3089   0.2262     C
O       0.2629  0.40788   0.6699     O
H       0.2646   0.7863   0.0721     H
H       0.2739   0.4565   0.4254     H
V       0.2744  0.16026  0.75315     V
V      0.28198   0.5042  0.62255     V
C       0.2834   0.4934   0.3822     C
C       0.2835   0.2974    0.316     C
C       0.2881   0.7954   0.1324     C
C        0.291   0.0688   0.2467     C
H       0.2985   0.2958   0.1082     H
O       0.2987  0.58336   0.7028     O
H       0.3011   0.4367   0.1421     H
C       0.3014   0.0159   0.1809     C
O       0.3037   0.7481   0.7816     O
C       0.3095   0.5966    0.253     C
H       0.3144    0.104   0.4219     H
H       0.3212   0.6313   0.2087     H
H       0.3289   0.5281   0.0015     H
C       0.3297   0.3146   0.1673     C
V      0.34037  0.83342   0.8519     V
C       0.3524   0.8198    0.306     C
H       0.3532   0.6645   0.9866     H
H       0.3535    0.291   0.3416     H
C       0.3623    0.404   0.1646     C
H       0.3653   0.0187   0.4152     H
O       0.3661  0.80805    0.958     O
H       0.3665    0.995    0.179     H
C       0.3749   0.0768   0.4094     C
O       0.3768   0.1862   0.8294     O
H       0.3776   0.8282   0.3662     H
H       0.3783   0.2134    0.561     H
N       0.3789   0.5213   0.3853     N
C       0.3829   0.0956    0.315     C
O        0.387  0.49881   0.5795     O
C        0.387   0.5532   0.0358     C
H       0.3892    0.352   0.5657     H
N       0.3894   0.8055   0.1628     N
H       0.3898    0.281   0.1905     H
C       0.3898   0.5719   0.3191     C
H       0.3906    0.342   0.8338     H
H       0.3915   0.1538   0.3094     H
H       0.3916   0.4221   0.2244     H
C       0.4021   0.6354   0.0271     C
H       0.4071    0.478   0.8154     H
H       0.4113   0.7882   0.5911     H
H        0.412   0.6484   0.5881     H
H       0.4164   0.3934   0.0499     H
C       0.4196   0.8182   0.2499     C
C       0.4222     0.24   0.5305     C
C       0.4285   0.3236   0.5324     C
C        0.441   0.4183   0.1074     C
H       0.4445   0.0694   0.3033     H
C       0.4477   0.3685   0.8678     C
C        0.454   0.6766   0.5571     C
C       0.4542    0.761   0.5602     C
H        0.456    0.591   0.3183     H
C       0.4575   0.4503   0.8561     C
C       0.4585   0.5076   0.0957     C
H       0.4653   0.9182   0.5372     H
H       0.4694   0.0833   0.5365     H
C       0.4732   0.1042   0.4787     C
C       0.4816   0.1951   0.4829     C
N        0.484   0.6755   0.0744     N
N       0.4883   0.3663   0.4889     N
H       0.4899   0.8264   0.2735     H
Zn     0.49027  0.80492  0.07205    Zn
H       0.4937   0.6073   0.8652     H
Zn         0.5      0.5      0.5    Zn
H       0.5063   0.3927   0.1348     H
Zn     0.50973  0.19508  0.92795    Zn
H       0.5101   0.1736   0.7265     H
N       0.5117   0.6337   0.5111     N
N        0.516   0.3245   0.9256     N
C       0.5184   0.8049   0.5171     C
C       0.5268   0.8958   0.5213     C
H       0.5306   0.9167   0.4635     H
H       0.5347   0.0818   0.4628     H
C       0.5415   0.4924   0.9043     C
C       0.5425   0.5497   0.1439     C
H        0.544    0.409   0.6817     H
C       0.5458    0.239   0.4398     C
C        0.546   0.3234   0.4429     C
C       0.5523   0.6315   0.1322     C
H       0.5555   0.9306   0.6967     H
C        0.559   0.5817   0.8926     C
C       0.5715   0.6764   0.4676     C
C       0.5778     0.76   0.4695     C
C       0.5804   0.1818   0.7501     C
H       0.5836   0.6066   0.9501     H
H        0.588   0.3516   0.4119     H
H       0.5887   0.2118   0.4089     H
H       0.5929    0.522   0.1846     H
C       0.5979   0.3646   0.9729     C
H       0.6084   0.5779   0.7756     H
H       0.6085   0.8462   0.6906     H
H       0.6094    0.658   0.1662     H
C       0.6102   0.4281   0.6809     C
H       0.6102    0.719   0.8095     H
N       0.6106   0.1945   0.8372     N
H       0.6108    0.648   0.4343     H
C        0.613   0.4468   0.9642     C
O        0.613  0.50119   0.4205     O
C       0.6171   0.9044    0.685     C
N       0.6211   0.4787   0.6147     N
H       0.6217   0.7866    0.439     H
H       0.6224   0.1718   0.6338     H
O       0.6232   0.8138   0.1706     O
C       0.6251   0.9232   0.5906     C
H       0.6335    0.005    0.821     H
O       0.6339  0.19195    0.042     O
H       0.6347   0.9813   0.5848     H
C       0.6377    0.596   0.8354     C
H       0.6465    0.709   0.6584     H
H       0.6468   0.3355   0.0134     H
C       0.6476   0.1802    0.694     C
V      0.65963  0.16658   0.1481     V
C       0.6703   0.6854   0.8327     C
H       0.6711   0.4719   0.9985     H
H       0.6788   0.3687   0.7913     H
H       0.6856    0.896   0.5781     H
C       0.6905   0.4034    0.747     C
O       0.6963   0.2519   0.2184     O
C       0.6986   0.9841   0.8191     C
H       0.6989   0.5633   0.8579     H
O       0.7013  0.41664   0.2972     O
H       0.7015   0.7042   0.8918     H
C        0.709   0.9312   0.7533     C
C       0.7119   0.2046   0.8676     C
C       0.7165   0.7026    0.684     C
C       0.7166   0.5066   0.6178     C
V      0.71802   0.4958  0.37745     V
V       0.7256  0.83974  0.24685     V
H       0.7261   0.5435   0.5746     H
H       0.7354   0.2137   0.9279     H
O       0.7371  0.59212   0.3301     O
C       0.7474   0.6911   0.7738     C
C       0.7526   0.1911   0.7262     C
O       0.7629  0.09212   0.1699     O
H       0.7646   0.7137   0.5721     H
H       0.7739   0.0435   0.9254     H
V       0.7744  0.33974  0.25315     V
V      0.78198   0.9958  0.12255     V
C       0.7834   0.0066   0.8822     C
C       0.7835   0.2026    0.816     C
C       0.7881   0.7046   0.6324     C
C        0.791   0.4312   0.7467     C
H       0.7985   0.2042   0.6082     H
O       0.7987  0.91664   0.2028     O
H       0.8011   0.0633   0.6421     H
C       0.8014   0.4841   0.6809     C
O       0.8037   0.7519   0.2816     O
C       0.8095   0.9034    0.753     C
H       0.8144    0.396   0.9219     H
H       0.8212   0.8687   0.7087     H
H       0.8289   0.9719   0.5015     H
C       0.8297   0.1854   0.6673     C
V      0.84037  0.66658   0.3519     V
C       0.8524   0.6802    0.806     C
H       0.8532   0.8355   0.4866     H
H       0.8535    0.209   0.8416     H
C       0.8623    0.096   0.6646     C
H       0.8653   0.4813   0.9152     H
O       0.8661  0.69195    0.458     O
H       0.8665    0.505    0.679     H
C       0.8749   0.4232   0.9094     C
O       0.8768   0.3138   0.3294     O
H       0.8776   0.6718   0.8662     H
H       0.8783   0.2866    0.061     H
N       0.8789   0.9787   0.8853     N
C       0.8829   0.4044    0.815     C
O        0.887  0.00119   0.0795     O
C        0.887   0.9468   0.5358     C
H       0.8892    0.148   0.0657     H
N       0.8894   0.6945   0.6628     N
H       0.8898    0.219   0.6905     H
C       0.8898   0.9281   0.8191     C
H       0.8906    0.158   0.3338     H
H       0.8915   0.3462   0.8094     H
H       0.8916   0.0779   0.7244     H
C       0.9021   0.8646   0.5271     C
H       0.9071    0.022   0.3154     H
H       0.9113   0.7118   0.0911     H
H        0.912   0.8516   0.0881     H
H       0.9164   0.1066   0.5499     H
C       0.9196   0.6818   0.7499     C
C       0.9222     0.26   0.0305     C
C       0.9285   0.1764   0.0324     C
C        0.941   0.0817   0.6074     C
H       0.9445   0.4306   0.8033     H
C       0.9477   0.1315   0.3678     C
C        0.954   0.8234   0.0571     C
C       0.9542    0.739   0.0602     C
H        0.956    0.909   0.8183     H
C       0.9575   0.0497   0.3561     C
C       0.9585   0.9924   0.5957     C
H       0.9653   0.5818   0.0372     H
H       0.9694   0.4167   0.0365     H
C       0.9732   0.3958   0.9787     C
C       0.9816   0.3049   0.9829     C
N        0.984   0.8245   0.5744     N
N       0.9883   0.1337   0.9889     N
H       0.9899   0.6736   0.7735     H
Zn     0.99027  0.69508  0.57205    Zn
H       0.9937   0.8927   0.3652     H
