data_I
_chemical_name_common  '/home/zhangsd/repos/MofS-CGCNN/ML/data/TSD/clean_cifs/HURGUX01_clean'
_cell_length_a 11.37800
_cell_length_b 11.62590
_cell_length_c 19.10600
_cell_angle_alpha 90.00000
_cell_angle_beta  90.00000
_cell_angle_gamma 115.75300
_space_group_name_H-M_alt      'P 1'


loop_
_space_group_symop_operation_xyz
  'x, y, z' 

loop_
_atom_site_label
_atom_site_fract_x
_atom_site_fract_y
_atom_site_fract_z
_atom_site_type_symbol
Ni         0.0      0.5      0.0    Ni
H       0.0086   0.7708   0.6109     H
C         0.02   0.8336   0.5779     C
O       0.0236   0.8008  0.94051     O
C       0.0289   0.3232   0.8901     C
C       0.0505   0.0167   0.4761     C
O       0.0513   0.4295   0.9144     O
H       0.0517    0.133   0.8272     H
C        0.057   0.3051   0.0841     C
O       0.0588   0.7847  0.09087     O
C       0.0631   0.1098   0.4236     C
O       0.0727   0.4139   0.0677     O
H       0.0746   0.1089   0.1477     H
H       0.0874   0.4063   0.5162     H
H        0.097   0.0439   0.9587     H
C       0.1101   0.2089   0.8067     C
C       0.1159   0.3214   0.8306     C
H        0.123     0.01   0.7441     H
C       0.1235   0.8709    0.529     C
H       0.1288   0.1319   0.3901     H
H       0.1328    0.325   0.5651     H
H       0.1331    0.452   0.5929     H
C        0.137   0.1847   0.1664     C
C       0.1394   0.9605   0.4792     C
C       0.1471   0.4101   0.5526     C
C       0.1477   0.2997    0.141     C
H       0.1566   0.9866   0.2281     H
H       0.1642   0.0152    0.065     H
O       0.1721   0.6962   0.5598     O
Ni     0.17403  0.82933  0.00515    Ni
C       0.1821   0.0869   0.7249     C
O       0.1861   0.6562  0.99263     O
C       0.1876   0.0883   0.9712     C
C       0.1903   0.2041   0.7516     C
C       0.2041   0.4362      0.8     C
H       0.2058   0.1726   0.9873     H
H       0.2075   0.5132   0.8159     H
H       0.2079   0.9848   0.4474     H
C       0.2082   0.8014   0.5287     C
C       0.2154   0.0638   0.2473     C
N       0.2174   0.0177   0.0275     N
C         0.22   0.1802   0.2211     C
C       0.2385    0.413   0.1708     C
H       0.2405   0.0942    0.931     H
H       0.2456   0.4906   0.1535     H
H       0.2544   0.0094   0.6535     H
H       0.2595   0.4058    0.431     H
C       0.2615    0.087   0.6708     C
C         0.28   0.3198   0.7211     C
N       0.2826   0.4823   0.5275     N
C       0.2846   0.4362   0.7473     C
C       0.2918   0.6986   0.0287     C
H       0.2921   0.5152   0.9474     H
H       0.2925   0.9868   0.3159     H
H       0.2942   0.3274   0.4873     H
C       0.2959   0.0638      0.3     C
C       0.3097   0.2959   0.2516     C
C       0.3124   0.4117   0.4712     C
O       0.3139   0.8438  0.49263     O
C       0.3179   0.4131   0.2249     C
Ni     0.32597  0.67067  0.50515    Ni
O       0.3279   0.8038   0.0598     O
H       0.3358   0.4848    0.565     H
H       0.3434   0.5134   0.7281     H
C       0.3523   0.2003    0.641     C
C       0.3529   0.0899   0.0526     C
C       0.3606   0.5395   0.9792     C
C        0.363   0.3153   0.6664     C
H       0.3669    0.048   0.0929     H
H       0.3672    0.175   0.0651     H
H       0.3712   0.3681   0.8901     H
C       0.3765   0.6291    0.029     C
H        0.377     0.49   0.2441     H
C       0.3841   0.1786   0.3306     C
C       0.3899   0.2911   0.3067     C
H        0.403   0.4561   0.4587     H
H       0.4126   0.0937   0.0162     H
H       0.4254   0.3911   0.6477     H
O       0.4273   0.0861   0.5677     O
C       0.4369   0.3902   0.9236     C
O       0.4412   0.7153  0.59087     O
C        0.443   0.1949   0.5841     C
H       0.4483    0.367   0.3272     H
O       0.4487   0.0705   0.4144     O
C       0.4495   0.4833   0.9761     C
C       0.4711   0.1768   0.3901     C
O       0.4764   0.6992  0.44051     O
C         0.48   0.6664   0.0779     C
H       0.4914   0.7292   0.1109     H
Ni         0.5      0.0      0.5    Ni
H       0.5086   0.2708   0.8891     H
C         0.52   0.3336   0.9221     C
O       0.5236   0.3008  0.55949     O
C       0.5289   0.8232   0.6099     C
C       0.5505   0.5167   0.0239     C
O       0.5513   0.9295   0.5856     O
H       0.5517    0.633   0.6728     H
C        0.557   0.8051   0.4159     C
O       0.5588   0.2847  0.40913     O
C       0.5631   0.6098   0.0764     C
O       0.5727   0.9139   0.4323     O
H       0.5746   0.6089   0.3523     H
H       0.5874   0.9063   0.9838     H
H        0.597   0.5439   0.5413     H
C       0.6101   0.7089   0.6933     C
C       0.6159   0.8214   0.6694     C
H        0.623     0.51   0.7559     H
C       0.6235   0.3709    0.971     C
H       0.6288   0.6319   0.1099     H
H       0.6328    0.825   0.9349     H
H       0.6331    0.952   0.9071     H
C        0.637   0.6847   0.3336     C
C       0.6394   0.4605   0.0208     C
C       0.6471   0.9101   0.9474     C
C       0.6477   0.7997    0.359     C
H       0.6566   0.4866   0.2719     H
H       0.6642   0.5152    0.435     H
O       0.6721   0.1962   0.9402     O
Ni     0.67403  0.32933  0.49485    Ni
C       0.6821   0.5869   0.7751     C
O       0.6861   0.1562  0.50737     O
C       0.6876   0.5883   0.5288     C
C       0.6903   0.7041   0.7484     C
C       0.7041   0.9362      0.7     C
H       0.7058   0.6726   0.5127     H
H       0.7075   0.0132   0.6841     H
H       0.7079   0.4848   0.0526     H
C       0.7082   0.3014   0.9713     C
C       0.7154   0.5638   0.2527     C
N       0.7174   0.5177   0.4725     N
C         0.72   0.6802   0.2789     C
C       0.7385    0.913   0.3292     C
H       0.7405   0.5942    0.569     H
H       0.7456   0.9906   0.3465     H
H       0.7544   0.5094   0.8465     H
H       0.7595   0.9058    0.069     H
C       0.7615    0.587   0.8292     C
C         0.78   0.8198   0.7789     C
N       0.7826   0.9823   0.9725     N
C       0.7846   0.9362   0.7527     C
C       0.7918   0.1986   0.4713     C
H       0.7921   0.0152   0.5526     H
H       0.7925   0.4868   0.1841     H
H       0.7942   0.8274   0.0127     H
C       0.7959   0.5638      0.2     C
C       0.8097   0.7959   0.2484     C
C       0.8124   0.9117   0.0288     C
O       0.8139   0.3438  0.00737     O
C       0.8179   0.9131   0.2751     C
Ni     0.82597  0.17067  0.99485    Ni
O       0.8279   0.3038   0.4402     O
H       0.8358   0.9848    0.935     H
H       0.8434   0.0134   0.7719     H
C       0.8523   0.7003    0.859     C
C       0.8529   0.5899   0.4474     C
C       0.8606   0.0395   0.5208     C
C        0.863   0.8153   0.8336     C
H       0.8669    0.548   0.4071     H
H       0.8672    0.675   0.4349     H
H       0.8712   0.8681   0.6099     H
C       0.8765   0.1291    0.471     C
H        0.877     0.99   0.2559     H
C       0.8841   0.6786   0.1694     C
C       0.8899   0.7911   0.1933     C
H        0.903   0.9561   0.0413     H
H       0.9126   0.5937   0.4838     H
H       0.9254   0.8911   0.8523     H
O       0.9273   0.5861   0.9323     O
C       0.9369   0.8902   0.5764     C
O       0.9412   0.2153  0.90913     O
C        0.943   0.6949   0.9159     C
H       0.9483    0.867   0.1728     H
O       0.9487   0.5705   0.0856     O
C       0.9495   0.9833   0.5239     C
C       0.9711   0.6768   0.1099     C
O       0.9764   0.1992  0.05949     O
C         0.98   0.1664   0.4221     C
H       0.9914   0.2292   0.3891     H
