data_I
_chemical_name_common  '/home/zhangsd/repos/MofS-CGCNN/ML/data/TSD/clean_cifs/HUTTIA_clean'
_cell_length_a 15.83300
_cell_length_b 16.08600
_cell_length_c 22.67000
_cell_angle_alpha 90.00000
_cell_angle_beta  90.00000
_cell_angle_gamma 90.00000
_space_group_name_H-M_alt      'P 1'


loop_
_space_group_symop_operation_xyz
  'x, y, z' 

loop_
_atom_site_label
_atom_site_fract_x
_atom_site_fract_y
_atom_site_fract_z
_atom_site_type_symbol
H       0.0034   0.3785   0.7351     H
H       0.0034   0.6215   0.2351     H
H       0.0043   0.4294    0.359     H
H       0.0043   0.5706    0.859     H
F       0.0145   0.1219   0.5711     F
F       0.0145   0.8781   0.0711     F
H       0.0185    0.386    0.231     H
H       0.0185    0.614    0.731     H
H       0.0192   0.4125   0.8599     H
H       0.0192   0.5875   0.3599     H
F       0.0281   0.0997   0.0668     F
F       0.0281   0.9003   0.5668     F
C       0.0294   0.2618   0.2287     C
C       0.0294   0.7382   0.7287     C
C       0.0295   0.1074   0.2264     C
C       0.0295   0.8926   0.7264     C
C       0.0319   0.3155    0.916     C
C       0.0319   0.6845    0.416     C
C       0.0349   0.3847   0.3762     C
C       0.0349   0.6153   0.8762     C
C       0.0353   0.3288   0.7317     C
C       0.0353   0.6712   0.2317     C
C       0.0379   0.3205   0.0539     C
C       0.0379   0.6795   0.5539     C
C       0.0384   0.1797   0.7218     C
C       0.0384   0.8203   0.2218     C
H        0.039   0.3577    0.539     H
H        0.039   0.6423    0.039     H
H       0.0401   0.4193   0.1096     H
H       0.0401   0.5807   0.6096     H
C       0.0404   0.2679   0.4444     C
C       0.0404   0.7321   0.9444     C
N       0.0409   0.0318   0.7218     N
N       0.0409   0.9682   0.2218     N
C       0.0416   0.1956   0.9864     C
C       0.0416   0.8044   0.4864     C
C       0.0552   0.1589   0.5261     C
C       0.0552   0.8411   0.0261     C
F       0.0652   0.1028  0.90593     F
F       0.0652   0.8972  0.40593     F
C       0.0722   0.3738   0.0952     C
C       0.0722   0.6262   0.5952     C
C       0.0848   0.2533   0.0316     C
C       0.0848   0.7467   0.5316     C
H       0.0889   0.2614   0.2234     H
H       0.0889   0.7386   0.7234     H
H       0.0895   0.1061   0.2254     H
H       0.0895   0.8939   0.7254     H
H       0.0898   0.3251   0.9246     H
H       0.0898   0.6749   0.4246     H
F       0.0908   0.0984   0.4954     F
F       0.0908   0.9016   0.9954     F
C       0.1044   0.1424   0.9511     C
C       0.1044   0.8576   0.4511     C
F       0.1165   0.2045  0.55107     F
F       0.1165   0.7955  0.05107     F
C       0.1179   0.3703   0.3603     C
C       0.1179   0.6297   0.8603     C
N       0.1185   0.3329   0.7312     N
N       0.1185   0.6671   0.2312     N
O       0.1237   0.4915   0.3012     O
O       0.1237   0.5085   0.8012     O
C       0.1242   0.2553   0.4272     C
C       0.1242   0.7447   0.9272     C
C       0.1258   0.1856   0.7195     C
C       0.1258   0.8144   0.2195     C
F       0.1405    0.082   0.9831     F
F       0.1405    0.918   0.4831     F
O       0.1477   0.4788   0.1786     O
O       0.1477   0.5212   0.6786     O
C       0.1538   0.3607   0.1155     C
C       0.1538   0.6393   0.6155     C
H       0.1553   0.2112   0.4446     H
H       0.1553   0.7888   0.9446     H
H       0.1595   0.1375   0.7136     H
H       0.1595   0.8625   0.2136     H
C        0.162   0.4262   0.3163     C
C        0.162   0.5738   0.8163     C
C       0.1631    0.263   0.7259     C
C       0.1631    0.737   0.2259     C
C       0.1632   0.3056   0.3855     C
C       0.1632   0.6944   0.8855     C
F       0.1654   0.1875  0.92733     F
F       0.1654   0.8125  0.42733     F
C       0.1671   0.2396    0.053     C
C       0.1671   0.7604    0.553     C
Zn     0.18767  0.43893  0.74077    Zn
Zn     0.18767  0.56107  0.24077    Zn
C       0.1929   0.4185   0.1616     C
C       0.1929   0.5815   0.6616     C
H       0.1997   0.1942   0.0389     H
H       0.1997   0.8058   0.5389     H
C       0.2002   0.2936   0.0954     C
C       0.2002   0.7064   0.5954     C
H       0.2202   0.2958   0.3744     H
H       0.2202   0.7042   0.8744     H
H        0.223   0.2665   0.7266     H
H        0.223   0.7335   0.2266     H
O       0.2334   0.4043   0.2992     O
O       0.2334   0.5957   0.7992     O
H       0.2553   0.2842   0.1106     H
H       0.2553   0.7158   0.6106     H
O       0.2629   0.3959    0.809     O
O       0.2629   0.6041    0.309     O
O       0.2665   0.4017   0.1774     O
O       0.2665   0.5983   0.6774     O
H       0.2782   0.2814   0.8823     H
H       0.2782   0.7186   0.3823     H
O       0.2823   0.3973   0.6852     O
O       0.2823   0.6027   0.1852     O
H       0.3016    0.267   0.2494     H
H       0.3016    0.733   0.7494     H
H        0.308   0.2762   0.6204     H
H        0.308   0.7238   0.1204     H
C       0.3317   0.2968   0.8979     C
C       0.3317   0.7032   0.3979     C
C       0.3338   0.4203   0.8303     C
C       0.3338   0.5797   0.3303     C
Zn     0.33456  0.44472  0.24772    Zn
Zn     0.33456  0.55528  0.74772    Zn
H       0.3408   0.1983   0.9543     H
H       0.3408   0.8017   0.4543     H
C        0.358   0.4136   0.6741     C
C        0.358   0.5864   0.1741     C
C        0.361   0.2656   0.2552     C
C        0.361   0.7344   0.7552     C
C       0.3654   0.2868   0.6108     C
C       0.3654   0.7132   0.1108     C
H       0.3671   0.1408   0.2588     H
H       0.3671   0.8592   0.7588     H
C       0.3687   0.2472   0.9411     C
C       0.3687   0.7528   0.4411     C
F       0.3706   0.1976   0.0695     F
F       0.3706   0.8024   0.5695     F
C       0.3707   0.3677    0.877     C
C       0.3707   0.6323    0.377     C
O       0.3729   0.4833    0.815     O
O       0.3729   0.5167    0.315     O
H       0.3777    0.187   0.5564     H
H       0.3777    0.813   0.0564     H
O       0.3969   0.4766   0.6935     O
O       0.3969   0.5234   0.1935     O
C       0.3993   0.1906   0.2606     C
C       0.3993   0.8094   0.7606     C
F       0.4018   0.0943   0.0134     F
F       0.4018   0.9057   0.5134     F
N       0.4036   0.3387   0.2577     N
N       0.4036   0.6613   0.7577     N
C       0.4049   0.3543   0.6352     C
C       0.4049   0.6457   0.1352     C
C       0.4066   0.2336   0.5725     C
C       0.4066   0.7664   0.0725     C
F        0.421   0.1767   0.4508     F
F        0.421   0.8233   0.9508     F
H       0.4328   0.2506   0.7719     H
H       0.4328   0.7494   0.2719     H
C       0.4359   0.1552   0.0452     C
C       0.4359   0.8448   0.5452     C
H       0.4367    0.095   0.7809     H
H       0.4367    0.905   0.2809     H
H       0.4393   0.3424   0.0718     H
H       0.4393   0.6576   0.5718     H
C       0.4463   0.2692   0.9648     C
C       0.4463   0.7308   0.4648     C
C       0.4495   0.3887   0.9016     C
C       0.4495   0.6113   0.4016     C
F       0.4505   0.0745   0.5093     F
F       0.4505   0.9255   0.0093     F
F       0.4768   0.1193  0.09023     F
F       0.4768   0.8807  0.59023     F
H       0.4779    0.437   0.8879     H
H       0.4779    0.563   0.3879     H
H       0.4819   0.3294   0.4596     H
H       0.4819   0.6706   0.9596     H
C       0.4833   0.1365   0.4767     C
C       0.4833   0.8635   0.9767     C
C       0.4853   0.1875   0.2686     C
C       0.4853   0.8125   0.7686     C
C       0.4863   0.3414   0.9447     C
C       0.4863   0.6586   0.4447     C
N       0.4874   0.0388   0.2766     N
N       0.4874   0.9612   0.7766     N
C       0.4875   0.3356   0.2663     C
C       0.4875   0.6644   0.7663     C
C         0.49   0.2484   0.5575     C
C         0.49   0.3674   0.6223     C
C         0.49   0.6326   0.1223     C
C         0.49   0.7516   0.0575     C
C       0.4928   0.2522   0.7727     C
C       0.4928   0.7478   0.2727     C
C       0.4943   0.2136   0.0099     C
C       0.4943   0.7864   0.5099     C
C       0.4965   0.0983   0.7794     C
C       0.4965   0.9017   0.2794     C
C       0.4967    0.333   0.0822     C
C       0.4967    0.667   0.5822     C
H       0.5034   0.3785   0.7649     H
H       0.5034   0.6215   0.2649     H
H       0.5043   0.4294    0.141     H
H       0.5043   0.5706    0.641     H
F       0.5145   0.1219   0.9289     F
F       0.5145   0.8781   0.4289     F
H       0.5185    0.386    0.269     H
H       0.5185    0.614    0.769     H
H       0.5192   0.4125   0.6401     H
H       0.5192   0.5875   0.1401     H
F       0.5281   0.0997   0.4332     F
F       0.5281   0.9003   0.9332     F
C       0.5294   0.2618   0.2713     C
C       0.5294   0.7382   0.7713     C
C       0.5295   0.1074   0.2736     C
C       0.5295   0.8926   0.7736     C
C       0.5319   0.3155    0.584     C
C       0.5319   0.6845    0.084     C
C       0.5349   0.3847   0.1238     C
C       0.5349   0.6153   0.6238     C
C       0.5353   0.3288   0.7683     C
C       0.5353   0.6712   0.2683     C
C       0.5379   0.3205   0.4461     C
C       0.5379   0.6795   0.9461     C
C       0.5384   0.1797   0.7782     C
C       0.5384   0.8203   0.2782     C
H        0.539   0.3577    0.961     H
H        0.539   0.6423    0.461     H
H       0.5401   0.4193   0.3904     H
H       0.5401   0.5807   0.8904     H
C       0.5404   0.2679   0.0556     C
C       0.5404   0.7321   0.5556     C
N       0.5409   0.0318   0.7782     N
N       0.5409   0.9682   0.2782     N
C       0.5416   0.1956   0.5136     C
C       0.5416   0.8044   0.0136     C
C       0.5552   0.1589   0.9739     C
C       0.5552   0.8411   0.4739     C
F       0.5652   0.1028  0.59407     F
F       0.5652   0.8972  0.09407     F
C       0.5722   0.3738   0.4048     C
C       0.5722   0.6262   0.9048     C
C       0.5848   0.2533   0.4684     C
C       0.5848   0.7467   0.9684     C
H       0.5889   0.2614   0.2766     H
H       0.5889   0.7386   0.7766     H
H       0.5895   0.1061   0.2746     H
H       0.5895   0.8939   0.7746     H
H       0.5898   0.3251   0.5754     H
H       0.5898   0.6749   0.0754     H
F       0.5908   0.0984   0.0046     F
F       0.5908   0.9016   0.5046     F
C       0.6044   0.1424   0.5489     C
C       0.6044   0.8576   0.0489     C
F       0.6165   0.2045  0.94893     F
F       0.6165   0.7955  0.44893     F
C       0.6179   0.3703   0.1397     C
C       0.6179   0.6297   0.6397     C
N       0.6185   0.3329   0.7688     N
N       0.6185   0.6671   0.2688     N
O       0.6237   0.4915   0.1988     O
O       0.6237   0.5085   0.6988     O
C       0.6242   0.2553   0.0728     C
C       0.6242   0.7447   0.5728     C
C       0.6258   0.1856   0.7805     C
C       0.6258   0.8144   0.2805     C
F       0.6405    0.082   0.5169     F
F       0.6405    0.918   0.0169     F
O       0.6477   0.4788   0.3214     O
O       0.6477   0.5212   0.8214     O
C       0.6538   0.3607   0.3845     C
C       0.6538   0.6393   0.8845     C
H       0.6553   0.2112   0.0554     H
H       0.6553   0.7888   0.5554     H
H       0.6595   0.1375   0.7864     H
H       0.6595   0.8625   0.2864     H
C        0.662   0.4262   0.1837     C
C        0.662   0.5738   0.6837     C
C       0.6631    0.263   0.7741     C
C       0.6631    0.737   0.2741     C
C       0.6632   0.3056   0.1145     C
C       0.6632   0.6944   0.6145     C
F       0.6654   0.1875  0.57267     F
F       0.6654   0.8125  0.07267     F
C       0.6671   0.2396    0.447     C
C       0.6671   0.7604    0.947     C
Zn     0.68767  0.43893  0.75923    Zn
Zn     0.68767  0.56107  0.25923    Zn
C       0.6929   0.4185   0.3384     C
C       0.6929   0.5815   0.8384     C
H       0.6997   0.1942   0.4611     H
H       0.6997   0.8058   0.9611     H
C       0.7002   0.2936   0.4046     C
C       0.7002   0.7064   0.9046     C
H       0.7202   0.2958   0.1256     H
H       0.7202   0.7042   0.6256     H
H        0.723   0.2665   0.7734     H
H        0.723   0.7335   0.2734     H
O       0.7334   0.4043   0.2008     O
O       0.7334   0.5957   0.7008     O
H       0.7553   0.2842   0.3894     H
H       0.7553   0.7158   0.8894     H
O       0.7629   0.3959    0.691     O
O       0.7629   0.6041    0.191     O
O       0.7665   0.4017   0.3226     O
O       0.7665   0.5983   0.8226     O
H       0.7782   0.2814   0.6177     H
H       0.7782   0.7186   0.1177     H
O       0.7823   0.3973   0.8148     O
O       0.7823   0.6027   0.3148     O
H       0.8016    0.267   0.2506     H
H       0.8016    0.733   0.7506     H
H        0.808   0.2762   0.8796     H
H        0.808   0.7238   0.3796     H
C       0.8317   0.2968   0.6021     C
C       0.8317   0.7032   0.1021     C
C       0.8338   0.4203   0.6697     C
C       0.8338   0.5797   0.1697     C
Zn     0.83456  0.44472  0.25228    Zn
Zn     0.83456  0.55528  0.75228    Zn
H       0.8408   0.1983   0.5457     H
H       0.8408   0.8017   0.0457     H
C        0.858   0.4136   0.8259     C
C        0.858   0.5864   0.3259     C
C        0.861   0.2656   0.2448     C
C        0.861   0.7344   0.7448     C
C       0.8654   0.2868   0.8892     C
C       0.8654   0.7132   0.3892     C
H       0.8671   0.1408   0.2412     H
H       0.8671   0.8592   0.7412     H
C       0.8687   0.2472   0.5589     C
C       0.8687   0.7528   0.0589     C
F       0.8706   0.1976   0.4305     F
F       0.8706   0.8024   0.9305     F
C       0.8707   0.3677    0.623     C
C       0.8707   0.6323    0.123     C
O       0.8729   0.4833    0.685     O
O       0.8729   0.5167    0.185     O
H       0.8777    0.187   0.9436     H
H       0.8777    0.813   0.4436     H
O       0.8969   0.4766   0.8065     O
O       0.8969   0.5234   0.3065     O
C       0.8993   0.1906   0.2394     C
C       0.8993   0.8094   0.7394     C
F       0.9018   0.0943   0.4866     F
F       0.9018   0.9057   0.9866     F
N       0.9036   0.3387   0.2423     N
N       0.9036   0.6613   0.7423     N
C       0.9049   0.3543   0.8648     C
C       0.9049   0.6457   0.3648     C
C       0.9066   0.2336   0.9275     C
C       0.9066   0.7664   0.4275     C
F        0.921   0.1767   0.0492     F
F        0.921   0.8233   0.5492     F
H       0.9328   0.2506   0.7281     H
H       0.9328   0.7494   0.2281     H
C       0.9359   0.1552   0.4548     C
C       0.9359   0.8448   0.9548     C
H       0.9367    0.095   0.7191     H
H       0.9367    0.905   0.2191     H
H       0.9393   0.3424   0.4282     H
H       0.9393   0.6576   0.9282     H
C       0.9463   0.2692   0.5352     C
C       0.9463   0.7308   0.0352     C
C       0.9495   0.3887   0.5984     C
C       0.9495   0.6113   0.0984     C
F       0.9505   0.0745   0.9907     F
F       0.9505   0.9255   0.4907     F
F       0.9768   0.1193  0.40977     F
F       0.9768   0.8807  0.90977     F
H       0.9779    0.437   0.6121     H
H       0.9779    0.563   0.1121     H
H       0.9819   0.3294   0.0404     H
H       0.9819   0.6706   0.5404     H
C       0.9833   0.1365   0.0233     C
C       0.9833   0.8635   0.5233     C
C       0.9853   0.1875   0.2314     C
C       0.9853   0.8125   0.7314     C
C       0.9863   0.3414   0.5553     C
C       0.9863   0.6586   0.0553     C
N       0.9874   0.0388   0.2234     N
N       0.9874   0.9612   0.7234     N
C       0.9875   0.3356   0.2337     C
C       0.9875   0.6644   0.7337     C
C         0.99   0.2484   0.9425     C
C         0.99   0.3674   0.8777     C
C         0.99   0.6326   0.3777     C
C         0.99   0.7516   0.4425     C
C       0.9928   0.2522   0.7273     C
C       0.9928   0.7478   0.2273     C
C       0.9943   0.2136   0.4901     C
C       0.9943   0.7864   0.9901     C
C       0.9965   0.0983   0.7206     C
C       0.9965   0.9017   0.2206     C
C       0.9967    0.333   0.4178     C
C       0.9967    0.667   0.9178     C
