data_I
_chemical_name_common  '/home/zhangsd/repos/MofS-CGCNN/ML/data/TSD/clean_cifs/HUYJUG_clean'
_cell_length_a 22.58920
_cell_length_b 22.58920
_cell_length_c 22.58920
_cell_angle_alpha 60.00000
_cell_angle_beta  60.00000
_cell_angle_gamma 60.00000
_space_group_name_H-M_alt      'P 1'


loop_
_space_group_symop_operation_xyz
  'x, y, z' 

loop_
_atom_site_label
_atom_site_fract_x
_atom_site_fract_y
_atom_site_fract_z
_atom_site_type_symbol
C       0.0002   0.0162   0.4068     C
C       0.0002   0.4068   0.5768     C
C       0.0002   0.5768   0.0162     C
C       0.0055   0.1273   0.3327     C
C       0.0055   0.3327   0.5345     C
C       0.0055   0.5345   0.1273     C
C       0.0068   0.1938   0.4686     C
C       0.0068   0.3308   0.1938     C
C       0.0068   0.4686   0.3308     C
C       0.0072   0.4156   0.8128     C
C       0.0072   0.7644   0.4156     C
C       0.0072   0.8128   0.7644     C
C       0.0162   0.0002   0.5768     C
C       0.0162   0.4068   0.0002     C
C       0.0162   0.5768   0.4068     C
O       0.0281   0.4043   0.8613     O
O       0.0281   0.7063   0.4043     O
O       0.0281   0.8613   0.7063     O
H       0.0339   0.2785   0.7451     H
H       0.0339   0.7451   0.9425     H
H       0.0339   0.9425   0.2785     H
C       0.0359   0.1127   0.5045     C
C       0.0359   0.3469   0.1127     C
C       0.0359   0.5045   0.3469     C
H        0.037    0.204   0.8082     H
H        0.037   0.8082   0.9508     H
H        0.037   0.9508    0.204     H
O       0.0441   0.4259   0.7475     O
O       0.0441   0.7475   0.7825     O
O       0.0441   0.7825   0.4259     O
H        0.046    0.213   0.4418     H
H        0.046   0.2992    0.213     H
H        0.046   0.4418   0.2992     H
H       0.0462   0.2652   0.8138     H
H       0.0462   0.8138   0.8748     H
H       0.0462   0.8748   0.2652     H
C       0.0562   0.2432   0.7814     C
C       0.0562   0.7814   0.9192     C
C       0.0562   0.9192   0.2432     C
C       0.0735   0.3923   0.5443     C
C       0.0735   0.5443   0.9899     C
C       0.0735   0.9899   0.3923     C
H       0.0741   0.2677   0.9393     H
H       0.0741   0.7189   0.2677     H
H       0.0741   0.9393   0.7189     H
C       0.0786    0.106   0.3158     C
C       0.0786   0.3158   0.4996     C
C       0.0786   0.4996    0.106     C
N       0.0861   0.3773   0.9639     N
N       0.0861   0.5727   0.3773     N
N       0.0861   0.9639   0.5727     N
H       0.0966   0.4134    0.549     H
H       0.0966    0.549    0.941     H
H       0.0966    0.941   0.4134     H
H       0.1038   0.1388    0.284     H
H       0.1038    0.284   0.4734     H
H       0.1038   0.4734   0.1388     H
C        0.106   0.0786   0.4996     C
C        0.106   0.3158   0.0786     C
C        0.106   0.4996   0.3158     C
H       0.1112   0.1462    0.966     H
H       0.1112   0.7766   0.1462     H
H       0.1112    0.966   0.7766     H
C       0.1127   0.0359   0.3469     C
C       0.1127   0.3469   0.5045     C
C       0.1127   0.5045   0.0359     C
C       0.1227   0.2445   0.9173     C
C       0.1227   0.7155   0.2445     C
C       0.1227   0.9173   0.7155     C
Ni       0.125   0.3968   0.8532    Ni
Ni       0.125    0.625   0.3968    Ni
Ni       0.125   0.8532    0.625    Ni
C       0.1273   0.0055   0.5345     C
C       0.1273   0.3327   0.0055     C
C       0.1273   0.5345   0.3327     C
C       0.1373   0.2141   0.7455     C
C       0.1373   0.7455   0.9031     C
C       0.1373   0.9031   0.2141     C
H       0.1388   0.1038   0.4734     H
H       0.1388    0.284   0.1038     H
H       0.1388   0.4734    0.284     H
C        0.144   0.1714   0.9342     C
C        0.144   0.7504   0.1714     C
C        0.144   0.9342   0.7504     C
H       0.1462   0.1112   0.7766     H
H       0.1462   0.7766    0.966     H
H       0.1462    0.966   0.1112     H
H       0.1534    0.309    0.701     H
H       0.1534    0.701   0.8366     H
H       0.1534   0.8366    0.309     H
N       0.1639   0.2861   0.8727     N
N       0.1639   0.6773   0.2861     N
N       0.1639   0.8727   0.6773     N
C       0.1714    0.144   0.7504     C
C       0.1714   0.7504   0.9342     C
C       0.1714   0.9342    0.144     C
H       0.1759   0.3107   0.9823     H
H       0.1759   0.5311   0.3107     H
H       0.1759   0.9823   0.5311     H
C       0.1765   0.2601   0.7057     C
C       0.1765   0.7057   0.8577     C
C       0.1765   0.8577   0.2601     C
C       0.1938   0.0068   0.3308     C
C       0.1938   0.3308   0.4686     C
C       0.1938   0.4686   0.0068     C
H       0.2038   0.3752   0.4362     H
H       0.2038   0.4362   0.9848     H
H       0.2038   0.9848   0.3752     H
H        0.204    0.037   0.9508     H
H        0.204   0.8082    0.037     H
H        0.204   0.9508   0.8082     H
O       0.2059   0.4675   0.5025     O
O       0.2059   0.5025   0.8241     O
O       0.2059   0.8241   0.4675     O
H        0.213    0.046   0.2992     H
H        0.213   0.2992   0.4418     H
H        0.213   0.4418    0.046     H
C       0.2141   0.1373   0.9031     C
C       0.2141   0.7455   0.1373     C
C       0.2141   0.9031   0.7455     C
H       0.2161   0.3075   0.5049     H
H       0.2161   0.5049   0.9715     H
H       0.2161   0.9715   0.3075     H
O       0.2219   0.3887   0.8457     O
O       0.2219   0.5437   0.3887     O
O       0.2219   0.8457   0.5437     O
C       0.2338   0.2498   0.8432     C
C       0.2338   0.6732   0.2498     C
C       0.2338   0.8432   0.6732     C
C       0.2428   0.4372   0.8344     C
C       0.2428   0.4856   0.4372     C
C       0.2428   0.8344   0.4856     C
C       0.2432   0.0562   0.9192     C
C       0.2432   0.7814   0.0562     C
C       0.2432   0.9192   0.7814     C
C       0.2445   0.1227   0.7155     C
C       0.2445   0.7155   0.9173     C
C       0.2445   0.9173   0.1227     C
C       0.2498   0.2338   0.6732     C
C       0.2498   0.6732   0.8432     C
C       0.2498   0.8432   0.2338     C
C       0.2601   0.1765   0.8577     C
C       0.2601   0.7057   0.1765     C
C       0.2601   0.8577   0.7057     C
H       0.2652   0.0462   0.8748     H
H       0.2652   0.8138   0.0462     H
H       0.2652   0.8748   0.8138     H
H       0.2659   0.2757   0.8115     H
H       0.2659   0.6469   0.2757     H
H       0.2659   0.8115   0.6469     H
H       0.2677   0.0741   0.7189     H
H       0.2677   0.7189   0.9393     H
H       0.2677   0.9393   0.0741     H
H       0.2757   0.2659   0.6469     H
H       0.2757   0.6469   0.8115     H
H       0.2757   0.8115   0.2659     H
H       0.2785   0.0339   0.9425     H
H       0.2785   0.7451   0.0339     H
H       0.2785   0.9425   0.7451     H
H        0.284   0.1038   0.1388     H
H        0.284   0.1388   0.4734     H
H        0.284   0.4734   0.1038     H
N       0.2861   0.1639   0.6773     N
N       0.2861   0.6773   0.8727     N
N       0.2861   0.8727   0.1639     N
H       0.2992    0.046   0.4418     H
H       0.2992    0.213    0.046     H
H       0.2992   0.4418    0.213     H
H       0.3075   0.2161   0.9715     H
H       0.3075   0.5049   0.2161     H
H       0.3075   0.9715   0.5049     H
H        0.309   0.1534   0.8366     H
H        0.309    0.701   0.1534     H
H        0.309   0.8366    0.701     H
H       0.3107   0.1759   0.5311     H
H       0.3107   0.5311   0.9823     H
H       0.3107   0.9823   0.1759     H
H       0.3111   0.3497   0.5047     H
H       0.3111   0.5047   0.8345     H
H       0.3111   0.8345   0.3497     H
C       0.3158   0.0786    0.106     C
C       0.3158    0.106   0.4996     C
C       0.3158   0.4996   0.0786     C
C       0.3182   0.4116    0.835     C
C       0.3182   0.4352   0.4116     C
C       0.3182    0.835   0.4352     C
C       0.3308   0.0068   0.4686     C
C       0.3308   0.1938   0.0068     C
C       0.3308   0.4686   0.1938     C
C       0.3327   0.0055   0.1273     C
C       0.3327   0.1273   0.5345     C
C       0.3327   0.5345   0.0055     C
C       0.3421   0.3651   0.4579     C
C       0.3421   0.4579   0.8349     C
C       0.3421   0.8349   0.3651     C
C       0.3469   0.0359   0.5045     C
C       0.3469   0.1127   0.0359     C
C       0.3469   0.5045   0.1127     C
H       0.3497   0.3111   0.8345     H
H       0.3497   0.5047   0.3111     H
H       0.3497   0.8345   0.5047     H
C       0.3651   0.3421   0.8349     C
C       0.3651   0.4579   0.3421     C
C       0.3651   0.8349   0.4579     C
H       0.3752   0.2038   0.9848     H
H       0.3752   0.4362   0.2038     H
H       0.3752   0.9848   0.4362     H
N       0.3773   0.0861   0.5727     N
N       0.3773   0.5727   0.9639     N
N       0.3773   0.9639   0.0861     N
O       0.3887   0.2219   0.5437     O
O       0.3887   0.5437   0.8457     O
O       0.3887   0.8457   0.2219     O
C       0.3923   0.0735   0.9899     C
C       0.3923   0.5443   0.0735     C
C       0.3923   0.9899   0.5443     C
Ni      0.3968    0.125    0.625    Ni
Ni      0.3968    0.625   0.8532    Ni
Ni      0.3968   0.8532    0.125    Ni
O       0.4043   0.0281   0.7063     O
O       0.4043   0.7063   0.8613     O
O       0.4043   0.8613   0.0281     O
C       0.4068   0.0002   0.0162     C
C       0.4068   0.0162   0.5768     C
C       0.4068   0.5768   0.0002     C
C       0.4116   0.3182   0.4352     C
C       0.4116   0.4352    0.835     C
C       0.4116    0.835   0.3182     C
H       0.4134   0.0966    0.941     H
H       0.4134    0.549   0.0966     H
H       0.4134    0.941    0.549     H
C        0.415   0.8148   0.8384     C
C        0.415   0.8384   0.9318     C
C        0.415   0.9318   0.8148     C
C       0.4151   0.7921   0.9079     C
C       0.4151   0.8849   0.7921     C
C       0.4151   0.9079   0.8849     C
H       0.4155   0.7453   0.9389     H
H       0.4155   0.9003   0.7453     H
H       0.4155   0.9389   0.9003     H
C       0.4156   0.0072   0.7644     C
C       0.4156   0.7644   0.8128     C
C       0.4156   0.8128   0.0072     C
O       0.4259   0.0441   0.7825     O
O       0.4259   0.7475   0.0441     O
O       0.4259   0.7825   0.7475     O
C       0.4352   0.3182    0.835     C
C       0.4352   0.4116   0.3182     C
C       0.4352    0.835   0.4116     C
H       0.4362   0.2038   0.3752     H
H       0.4362   0.3752   0.9848     H
H       0.4362   0.9848   0.2038     H
C       0.4372   0.2428   0.4856     C
C       0.4372   0.4856   0.8344     C
C       0.4372   0.8344   0.2428     C
H       0.4385   0.6031   0.9743     H
H       0.4385   0.9743   0.9841     H
H       0.4385   0.9841   0.6031     H
H       0.4418    0.046    0.213     H
H       0.4418    0.213   0.2992     H
H       0.4418   0.2992    0.046     H
C       0.4579   0.3421   0.3651     C
C       0.4579   0.3651   0.8349     C
C       0.4579   0.8349   0.3421     C
O       0.4675   0.2059   0.8241     O
O       0.4675   0.5025   0.2059     O
O       0.4675   0.8241   0.5025     O
C       0.4686   0.0068   0.1938     C
C       0.4686   0.1938   0.3308     C
C       0.4686   0.3308   0.0068     C
H       0.4734   0.1038    0.284     H
H       0.4734   0.1388   0.1038     H
H       0.4734    0.284   0.1388     H
C       0.4856   0.2428   0.8344     C
C       0.4856   0.4372   0.2428     C
C       0.4856   0.8344   0.4372     C
C       0.4996   0.0786   0.3158     C
C       0.4996    0.106   0.0786     C
C       0.4996   0.3158    0.106     C
O       0.5025   0.2059   0.4675     O
O       0.5025   0.4675   0.8241     O
O       0.5025   0.8241   0.2059     O
C       0.5045   0.0359   0.1127     C
C       0.5045   0.1127   0.3469     C
C       0.5045   0.3469   0.0359     C
H       0.5047   0.3111   0.3497     H
H       0.5047   0.3497   0.8345     H
H       0.5047   0.8345   0.3111     H
H       0.5049   0.2161   0.3075     H
H       0.5049   0.3075   0.9715     H
H       0.5049   0.9715   0.2161     H
H       0.5311   0.1759   0.9823     H
H       0.5311   0.3107   0.1759     H
H       0.5311   0.9823   0.3107     H
C       0.5345   0.0055   0.3327     C
C       0.5345   0.1273   0.0055     C
C       0.5345   0.3327   0.1273     C
O       0.5437   0.2219   0.8457     O
O       0.5437   0.3887   0.2219     O
O       0.5437   0.8457   0.3887     O
C       0.5443   0.0735   0.3923     C
C       0.5443   0.3923   0.9899     C
C       0.5443   0.9899   0.0735     C
H        0.549   0.0966   0.4134     H
H        0.549   0.4134    0.941     H
H        0.549    0.941   0.0966     H
N       0.5727   0.0861   0.9639     N
N       0.5727   0.3773   0.0861     N
N       0.5727   0.9639   0.3773     N
C       0.5768   0.0002   0.4068     C
C       0.5768   0.0162   0.0002     C
C       0.5768   0.4068   0.0162     C
H       0.6031   0.4385   0.9841     H
H       0.6031   0.9743   0.4385     H
H       0.6031   0.9841   0.9743     H
Ni       0.625    0.125   0.8532    Ni
Ni       0.625   0.3968    0.125    Ni
Ni       0.625   0.8532   0.3968    Ni
H       0.6469   0.2659   0.8115     H
H       0.6469   0.2757   0.2659     H
H       0.6469   0.8115   0.2757     H
C       0.6732   0.2338   0.8432     C
C       0.6732   0.2498   0.2338     C
C       0.6732   0.8432   0.2498     C
N       0.6773   0.1639   0.8727     N
N       0.6773   0.2861   0.1639     N
N       0.6773   0.8727   0.2861     N
H        0.701   0.1534    0.309     H
H        0.701    0.309   0.8366     H
H        0.701   0.8366   0.1534     H
C       0.7057   0.1765   0.2601     C
C       0.7057   0.2601   0.8577     C
C       0.7057   0.8577   0.1765     C
O       0.7063   0.0281   0.8613     O
O       0.7063   0.4043   0.0281     O
O       0.7063   0.8613   0.4043     O
C       0.7155   0.1227   0.9173     C
C       0.7155   0.2445   0.1227     C
C       0.7155   0.9173   0.2445     C
H       0.7189   0.0741   0.9393     H
H       0.7189   0.2677   0.0741     H
H       0.7189   0.9393   0.2677     H
H       0.7451   0.0339   0.2785     H
H       0.7451   0.2785   0.9425     H
H       0.7451   0.9425   0.0339     H
H       0.7453   0.4155   0.9003     H
H       0.7453   0.9003   0.9389     H
H       0.7453   0.9389   0.4155     H
C       0.7455   0.1373   0.2141     C
C       0.7455   0.2141   0.9031     C
C       0.7455   0.9031   0.1373     C
O       0.7475   0.0441   0.4259     O
O       0.7475   0.4259   0.7825     O
O       0.7475   0.7825   0.0441     O
C       0.7504    0.144   0.9342     C
C       0.7504   0.1714    0.144     C
C       0.7504   0.9342   0.1714     C
C       0.7644   0.0072   0.8128     C
C       0.7644   0.4156   0.0072     C
C       0.7644   0.8128   0.4156     C
H       0.7766   0.1112    0.966     H
H       0.7766   0.1462   0.1112     H
H       0.7766    0.966   0.1462     H
C       0.7814   0.0562   0.2432     C
C       0.7814   0.2432   0.9192     C
C       0.7814   0.9192   0.0562     C
O       0.7825   0.0441   0.7475     O
O       0.7825   0.4259   0.0441     O
O       0.7825   0.7475   0.4259     O
C       0.7921   0.4151   0.8849     C
C       0.7921   0.8849   0.9079     C
C       0.7921   0.9079   0.4151     C
H       0.8082    0.037    0.204     H
H       0.8082    0.204   0.9508     H
H       0.8082   0.9508    0.037     H
H       0.8115   0.2659   0.2757     H
H       0.8115   0.2757   0.6469     H
H       0.8115   0.6469   0.2659     H
C       0.8128   0.0072   0.4156     C
C       0.8128   0.4156   0.7644     C
C       0.8128   0.7644   0.0072     C
H       0.8138   0.0462   0.2652     H
H       0.8138   0.2652   0.8748     H
H       0.8138   0.8748   0.0462     H
C       0.8148    0.415   0.9318     C
C       0.8148   0.8384    0.415     C
C       0.8148   0.9318   0.8384     C
O       0.8241   0.2059   0.5025     O
O       0.8241   0.4675   0.2059     O
O       0.8241   0.5025   0.4675     O
C       0.8344   0.2428   0.4372     C
C       0.8344   0.4372   0.4856     C
C       0.8344   0.4856   0.2428     C
H       0.8345   0.3111   0.5047     H
H       0.8345   0.3497   0.3111     H
H       0.8345   0.5047   0.3497     H
C       0.8349   0.3421   0.4579     C
C       0.8349   0.3651   0.3421     C
C       0.8349   0.4579   0.3651     C
C        0.835   0.3182   0.4116     C
C        0.835   0.4116   0.4352     C
C        0.835   0.4352   0.3182     C
H       0.8366   0.1534    0.701     H
H       0.8366    0.309   0.1534     H
H       0.8366    0.701    0.309     H
C       0.8384    0.415   0.8148     C
C       0.8384   0.8148   0.9318     C
C       0.8384   0.9318    0.415     C
C       0.8432   0.2338   0.2498     C
C       0.8432   0.2498   0.6732     C
C       0.8432   0.6732   0.2338     C
O       0.8457   0.2219   0.3887     O
O       0.8457   0.3887   0.5437     O
O       0.8457   0.5437   0.2219     O
Ni      0.8532    0.125   0.3968    Ni
Ni      0.8532   0.3968    0.625    Ni
Ni      0.8532    0.625    0.125    Ni
C       0.8577   0.1765   0.7057     C
C       0.8577   0.2601   0.1765     C
C       0.8577   0.7057   0.2601     C
O       0.8613   0.0281   0.4043     O
O       0.8613   0.4043   0.7063     O
O       0.8613   0.7063   0.0281     O
N       0.8727   0.1639   0.2861     N
N       0.8727   0.2861   0.6773     N
N       0.8727   0.6773   0.1639     N
H       0.8748   0.0462   0.8138     H
H       0.8748   0.2652   0.0462     H
H       0.8748   0.8138   0.2652     H
C       0.8849   0.4151   0.9079     C
C       0.8849   0.7921   0.4151     C
C       0.8849   0.9079   0.7921     C
H       0.9003   0.4155   0.9389     H
H       0.9003   0.7453   0.4155     H
H       0.9003   0.9389   0.7453     H
C       0.9031   0.1373   0.7455     C
C       0.9031   0.2141   0.1373     C
C       0.9031   0.7455   0.2141     C
C       0.9079   0.4151   0.7921     C
C       0.9079   0.7921   0.8849     C
C       0.9079   0.8849   0.4151     C
C       0.9173   0.1227   0.2445     C
C       0.9173   0.2445   0.7155     C
C       0.9173   0.7155   0.1227     C
C       0.9192   0.0562   0.7814     C
C       0.9192   0.2432   0.0562     C
C       0.9192   0.7814   0.2432     C
C       0.9318    0.415   0.8384     C
C       0.9318   0.8148    0.415     C
C       0.9318   0.8384   0.8148     C
C       0.9342    0.144   0.1714     C
C       0.9342   0.1714   0.7504     C
C       0.9342   0.7504    0.144     C
H       0.9389   0.4155   0.7453     H
H       0.9389   0.7453   0.9003     H
H       0.9389   0.9003   0.4155     H
H       0.9393   0.0741   0.2677     H
H       0.9393   0.2677   0.7189     H
H       0.9393   0.7189   0.0741     H
H        0.941   0.0966    0.549     H
H        0.941   0.4134   0.0966     H
H        0.941    0.549   0.4134     H
H       0.9425   0.0339   0.7451     H
H       0.9425   0.2785   0.0339     H
H       0.9425   0.7451   0.2785     H
H       0.9508    0.037   0.8082     H
H       0.9508    0.204    0.037     H
H       0.9508   0.8082    0.204     H
N       0.9639   0.0861   0.3773     N
N       0.9639   0.3773   0.5727     N
N       0.9639   0.5727   0.0861     N
H        0.966   0.1112   0.1462     H
H        0.966   0.1462   0.7766     H
H        0.966   0.7766   0.1112     H
H       0.9715   0.2161   0.5049     H
H       0.9715   0.3075   0.2161     H
H       0.9715   0.5049   0.3075     H
H       0.9743   0.4385   0.6031     H
H       0.9743   0.6031   0.9841     H
H       0.9743   0.9841   0.4385     H
H       0.9823   0.1759   0.3107     H
H       0.9823   0.3107   0.5311     H
H       0.9823   0.5311   0.1759     H
H       0.9841   0.4385   0.9743     H
H       0.9841   0.6031   0.4385     H
H       0.9841   0.9743   0.6031     H
H       0.9848   0.2038   0.4362     H
H       0.9848   0.3752   0.2038     H
H       0.9848   0.4362   0.3752     H
C       0.9899   0.0735   0.5443     C
C       0.9899   0.3923   0.0735     C
C       0.9899   0.5443   0.3923     C
