data_I
_chemical_name_common  '/home/zhangsd/repos/MofS-CGCNN/ML/data/TSD/clean_cifs/HUYJOA_clean'
_cell_length_a 16.31160
_cell_length_b 16.31160
_cell_length_c 30.06000
_cell_angle_alpha 90.00000
_cell_angle_beta  90.00000
_cell_angle_gamma 90.00000
_space_group_name_H-M_alt      'P 1'


loop_
_space_group_symop_operation_xyz
  'x, y, z' 

loop_
_atom_site_label
_atom_site_fract_x
_atom_site_fract_y
_atom_site_fract_z
_atom_site_type_symbol
H       0.0025   0.0099   0.3225     H
H       0.0025   0.9901   0.1775     H
C       0.0062   0.0971   0.7889     C
C       0.0062   0.9029   0.7111     C
H       0.0099   0.0025   0.4275     H
H       0.0099   0.9975   0.0725     H
Ni     0.01022  0.26347  0.74411    Ni
Ni     0.01022  0.73653  0.75589    Ni
C       0.0174    0.117   0.9365     C
C       0.0174    0.883   0.5635     C
H        0.028   0.1858   0.3186     H
H        0.028   0.8142   0.1814     H
C       0.0281   0.0338   0.9395     C
C       0.0281   0.9662   0.5605     C
H       0.0284    0.138    0.078     H
H       0.0284    0.862    0.422     H
C       0.0338   0.0281   0.8105     C
C       0.0338   0.9719   0.6895     C
H       0.0502    0.105    0.213     H
H       0.0502    0.895    0.287     H
N       0.0554   0.1541   0.7704     N
N       0.0554   0.8459   0.7296     N
H        0.056   0.2723   0.8407     H
H        0.056   0.7277   0.6593     H
O       0.0595    0.176   0.6486     O
O       0.0595    0.824   0.8514     O
O       0.0622   0.1889   0.2987     O
O       0.0622   0.8111   0.2013     O
H        0.064   0.2239   0.9519     H
H        0.064   0.7761   0.5481     H
C        0.072   0.1676   0.9541     C
C        0.072   0.8324   0.5459     C
O       0.0792   0.2604   0.2114     O
O       0.0792   0.7396   0.2886     O
N       0.0873   0.3293   0.7873     N
N       0.0873   0.6707   0.7127     N
C       0.0908   0.3128     0.83     C
C       0.0908   0.6872     0.67     C
C       0.0971   0.0062   0.9611     C
C       0.0971   0.9938   0.5389     C
O       0.0994   0.2688    0.698     O
O       0.0994   0.7312    0.802     O
H        0.105   0.0502    0.537     H
H        0.105   0.9498    0.963     H
C       0.1078   0.2272    0.663     C
C       0.1078   0.7728    0.837     C
C        0.117   0.0174   0.8135     C
C        0.117   0.9826   0.6865     C
C       0.1314   0.3126   0.1991     C
C       0.1314   0.6874   0.3009     C
C       0.1364   0.2183   0.3163     C
C       0.1364   0.7817   0.1837     C
O       0.1377   0.3848   0.2162     O
O       0.1377   0.6152   0.2838     O
H        0.138   0.0284    0.672     H
H        0.138   0.9716    0.828     H
H       0.1382   0.3987   0.7434     H
H       0.1382   0.6013   0.7566     H
C       0.1384   0.3863   0.7736     C
C       0.1384   0.6137   0.7264     C
C       0.1386   0.1395   0.7746     C
C       0.1386   0.8605   0.7254     C
C       0.1395   0.1386   0.9754     C
H       0.1395   0.1797   0.1494     H
H       0.1395   0.8203   0.3506     H
C       0.1395   0.8614   0.5246     C
H        0.141   0.3358     0.89     H
H        0.141   0.6642     0.61     H
C       0.1417   0.3507   0.8601     C
C       0.1417   0.6493   0.6399     C
N       0.1541   0.0554   0.9796     N
N       0.1541   0.9446   0.5204     N
C       0.1615   0.1752   0.3995     C
C       0.1615   0.8248   0.1005     C
C       0.1676    0.072   0.7959     C
C       0.1676    0.928   0.7041     C
C       0.1752   0.1615   0.3505     C
C       0.1752   0.8385   0.1495     C
H       0.1755   0.1767   0.7625     H
H       0.1755   0.8233   0.7375     H
O        0.176   0.0595   0.1014     O
O        0.176   0.9405   0.3986     O
H       0.1767   0.1755   0.9875     H
H       0.1767   0.8245   0.5125     H
H       0.1797   0.1395   0.6006     H
H       0.1797   0.8605   0.8994     H
C       0.1827   0.2142   0.1418     C
C       0.1827   0.7858   0.3582     C
H       0.1858    0.028   0.4314     H
H       0.1858    0.972   0.0686     H
O       0.1889   0.0622   0.4513     O
O       0.1889   0.9378   0.0487     O
C       0.1899   0.2372   0.6401     C
C       0.1899   0.7628   0.8599     C
C       0.1902   0.2888    0.163     C
C       0.1902   0.7112    0.337     C
C       0.1922   0.4291   0.8001     C
C       0.1922   0.5709   0.6999     C
C        0.194   0.4114   0.8449     C
C        0.194   0.5886   0.6551     C
C       0.2142   0.1827   0.6082     C
C       0.2142   0.8173   0.8918     C
H        0.218    0.394   0.4563     H
H        0.218    0.606   0.0437     H
C       0.2183   0.1364   0.4337     C
C       0.2183   0.8636   0.0663     C
H       0.2239    0.064   0.7981     H
H       0.2239    0.936   0.7019     H
H        0.225   0.3411   0.6724     H
H        0.225   0.6589   0.8276     H
H       0.2265   0.4689   0.7881     H
H       0.2265   0.5311   0.7119     H
C       0.2272   0.1078    0.087     C
C       0.2272   0.8922    0.413     C
H       0.2289   0.4392   0.8642     H
H       0.2289   0.5608   0.6358     H
C       0.2372   0.1899   0.1099     C
C       0.2372   0.8101   0.3901     C
C       0.2413   0.3036   0.6508     C
C       0.2413   0.6964   0.8492     C
C       0.2558   0.3378   0.1523     C
C       0.2558   0.6622   0.3477     C
O       0.2604   0.0792   0.5386     O
O       0.2604   0.9208   0.9614     O
H        0.262   0.3876    0.167     H
H        0.262   0.6124    0.333     H
Ni     0.26347  0.01022  0.00589    Ni
Ni     0.26347  0.98978  0.49411    Ni
H        0.264   0.4122   0.2561     H
H        0.264   0.5878   0.2439     H
O       0.2688   0.0994    0.052     O
O       0.2688   0.9006    0.448     O
H       0.2723    0.056   0.9093     H
H       0.2723    0.944   0.5907     H
C        0.273     0.38   0.4539     C
C        0.273     0.62   0.0461     C
H       0.2739   0.2888   0.5004     H
H       0.2739   0.7112   0.9996     H
C       0.2888   0.1902    0.587     C
H       0.2888   0.2739   0.2496     H
H       0.2888   0.7261   0.2504     H
C       0.2888   0.8098    0.913     C
H        0.297    0.453   0.4034     H
H        0.297    0.547   0.0966     H
C       0.3036   0.2413   0.0992     C
C       0.3036   0.7587   0.4008     C
C       0.3052   0.3879    0.273     C
C       0.3052   0.6121    0.227     C
C       0.3062   0.3188   0.4808     C
C       0.3062   0.6812   0.0192     C
C       0.3126   0.1314   0.5509     C
C       0.3126   0.8686   0.9491     C
C       0.3128   0.0908     0.92     C
C       0.3128   0.9092     0.58     C
C       0.3134   0.3156   0.1203     C
C       0.3134   0.6844   0.3797     C
C       0.3156   0.3134   0.6297     C
C       0.3156   0.6866   0.8703     C
C       0.3188   0.3062   0.2692     C
C       0.3188   0.6938   0.2308     C
C       0.3218   0.4187   0.4242     C
C       0.3218   0.5813   0.0758     C
N       0.3293   0.0873   0.9627     N
N       0.3293   0.9127   0.5373     N
H       0.3358    0.141     0.86     H
H       0.3358    0.859     0.64     H
C       0.3378   0.2558   0.5977     C
C       0.3378   0.7442   0.9023     C
O       0.3408   0.4375   0.6682     O
O       0.3408   0.5625   0.8318     O
H       0.3411    0.225   0.0776     H
H       0.3411    0.775   0.4224     H
H       0.3413   0.4913   0.3029     H
H       0.3413   0.5087   0.1971     H
C       0.3507   0.1417   0.8899     C
C       0.3507   0.8583   0.6101     C
C       0.3514   0.4353   0.3015     C
C       0.3514   0.5647   0.1985     C
C       0.3674   0.3844   0.6413     C
C       0.3674   0.6156   0.8587     C
C         0.38    0.273   0.2961     C
C         0.38    0.727   0.2039     C
C       0.3844   0.3674   0.1087     C
C       0.3844   0.6326   0.3913     C
O       0.3848   0.1377   0.5338     O
O       0.3848   0.8623   0.9662     O
C       0.3863   0.1384   0.9764     C
C       0.3863   0.8616   0.5236     C
O       0.3872   0.4375   0.1281     O
O       0.3872   0.5625   0.3719     O
H       0.3876    0.262    0.583     H
H       0.3876    0.738    0.917     H
C       0.3879   0.3052    0.477     C
C       0.3879   0.6948    0.023     C
H        0.394    0.218   0.2937     H
H        0.394    0.782   0.2063     H
H       0.3987   0.1382   0.0066     H
H       0.3987   0.8618   0.4934     H
N       0.4032   0.4109   0.4227     N
N       0.4032   0.5891   0.0773     N
N       0.4109   0.4032   0.3273     N
N       0.4109   0.5968   0.1727     N
C       0.4114    0.194   0.9051     C
C       0.4114    0.806   0.5949     C
H       0.4122    0.264   0.4939     H
H       0.4122    0.736   0.0061     H
C       0.4187   0.3218   0.3258     C
C       0.4187   0.6782   0.1742     C
C       0.4291   0.1922   0.9499     C
C       0.4291   0.8078   0.5501     C
C       0.4353   0.3514   0.4485     C
C       0.4353   0.6486   0.0515     C
O       0.4375   0.3408   0.0818     O
O       0.4375   0.3872   0.6219     O
O       0.4375   0.6128   0.8781     O
O       0.4375   0.6592   0.4182     O
H       0.4392   0.2289   0.8858     H
H       0.4392   0.7711   0.6142     H
H        0.453    0.297   0.3466     H
H        0.453    0.703   0.1534     H
H       0.4689   0.2265   0.9619     H
H       0.4689   0.7735   0.5381     H
Ni     0.47366  0.47366    0.375    Ni
Ni     0.47366  0.52634    0.125    Ni
H       0.4913   0.3413   0.4471     H
H       0.4913   0.6587   0.0529     H
H       0.5087   0.3413   0.5529     H
H       0.5087   0.6587   0.9471     H
Ni     0.52634  0.47366    0.625    Ni
Ni     0.52634  0.52634    0.875    Ni
H       0.5311   0.2265   0.0381     H
H       0.5311   0.7735   0.4619     H
H        0.547    0.297   0.6534     H
H        0.547    0.703   0.8466     H
H       0.5608   0.2289   0.1142     H
H       0.5608   0.7711   0.3858     H
O       0.5625   0.3408   0.9182     O
O       0.5625   0.3872   0.3781     O
O       0.5625   0.6128   0.1219     O
O       0.5625   0.6592   0.5818     O
C       0.5647   0.3514   0.5515     C
C       0.5647   0.6486   0.9485     C
C       0.5709   0.1922   0.0501     C
C       0.5709   0.8078   0.4499     C
C       0.5813   0.3218   0.6742     C
C       0.5813   0.6782   0.8258     C
H       0.5878    0.264   0.5061     H
H       0.5878    0.736   0.9939     H
C       0.5886    0.194   0.0949     C
C       0.5886    0.806   0.4051     C
N       0.5891   0.4032   0.6727     N
N       0.5891   0.5968   0.8273     N
N       0.5968   0.4109   0.5773     N
N       0.5968   0.5891   0.9227     N
H       0.6013   0.1382   0.9934     H
H       0.6013   0.8618   0.5066     H
H        0.606    0.218   0.7063     H
H        0.606    0.782   0.7937     H
C       0.6121   0.3052    0.523     C
C       0.6121   0.6948    0.977     C
H       0.6124    0.262    0.417     H
H       0.6124    0.738    0.083     H
O       0.6128   0.4375   0.8719     O
O       0.6128   0.5625   0.6281     O
C       0.6137   0.1384   0.0236     C
C       0.6137   0.8616   0.4764     C
O       0.6152   0.1377   0.4662     O
O       0.6152   0.8623   0.0338     O
C       0.6156   0.3674   0.8913     C
C       0.6156   0.6326   0.6087     C
C         0.62    0.273   0.7039     C
C         0.62    0.727   0.7961     C
C       0.6326   0.3844   0.3587     C
C       0.6326   0.6156   0.1413     C
C       0.6486   0.4353   0.6985     C
C       0.6486   0.5647   0.8015     C
C       0.6493   0.1417   0.1101     C
C       0.6493   0.8583   0.3899     C
H       0.6587   0.4913   0.6971     H
H       0.6587   0.5087   0.8029     H
H       0.6589    0.225   0.9224     H
H       0.6589    0.775   0.5776     H
O       0.6592   0.4375   0.3318     O
O       0.6592   0.5625   0.1682     O
C       0.6622   0.2558   0.4023     C
C       0.6622   0.7442   0.0977     C
H       0.6642    0.141     0.14     H
H       0.6642    0.859     0.36     H
N       0.6707   0.0873   0.0373     N
N       0.6707   0.9127   0.4627     N
C       0.6782   0.4187   0.5758     C
C       0.6782   0.5813   0.9242     C
C       0.6812   0.3062   0.7308     C
C       0.6812   0.6938   0.7692     C
C       0.6844   0.3134   0.3703     C
C       0.6844   0.6866   0.1297     C
C       0.6866   0.3156   0.8797     C
C       0.6866   0.6844   0.6203     C
C       0.6872   0.0908     0.08     C
C       0.6872   0.9092     0.42     C
C       0.6874   0.1314   0.4491     C
C       0.6874   0.8686   0.0509     C
C       0.6938   0.3188   0.5192     C
C       0.6938   0.6812   0.9808     C
C       0.6948   0.3879    0.727     C
C       0.6948   0.6121    0.773     C
C       0.6964   0.2413   0.9008     C
C       0.6964   0.7587   0.5992     C
H        0.703    0.453   0.5966     H
H        0.703    0.547   0.9034     H
C       0.7112   0.1902    0.413     C
H       0.7112   0.2739   0.7504     H
H       0.7112   0.7261   0.7496     H
C       0.7112   0.8098    0.087     C
H       0.7261   0.2888   0.4996     H
H       0.7261   0.7112   0.0004     H
C        0.727     0.38   0.5461     C
C        0.727     0.62   0.9539     C
H       0.7277    0.056   0.0907     H
H       0.7277    0.944   0.4093     H
O       0.7312   0.0994    0.948     O
O       0.7312   0.9006    0.552     O
H        0.736   0.4122   0.7439     H
H        0.736   0.5878   0.7561     H
Ni     0.73653  0.01022  0.99411    Ni
Ni     0.73653  0.98978  0.50589    Ni
H        0.738   0.3876    0.833     H
H        0.738   0.6124    0.667     H
O       0.7396   0.0792   0.4614     O
O       0.7396   0.9208   0.0386     O
C       0.7442   0.3378   0.8477     C
C       0.7442   0.6622   0.6523     C
C       0.7587   0.3036   0.3492     C
C       0.7587   0.6964   0.1508     C
C       0.7628   0.1899   0.8901     C
C       0.7628   0.8101   0.6099     C
H       0.7711   0.4392   0.1358     H
H       0.7711   0.5608   0.3642     H
C       0.7728   0.1078    0.913     C
C       0.7728   0.8922    0.587     C
H       0.7735   0.4689   0.2119     H
H       0.7735   0.5311   0.2881     H
H        0.775   0.3411   0.3276     H
H        0.775   0.6589   0.1724     H
H       0.7761    0.064   0.2019     H
H       0.7761    0.936   0.2981     H
C       0.7817   0.1364   0.5663     C
C       0.7817   0.8636   0.9337     C
H        0.782    0.394   0.5437     H
H        0.782    0.606   0.9563     H
C       0.7858   0.1827   0.3918     C
C       0.7858   0.8173   0.1082     C
C        0.806   0.4114   0.1551     C
C        0.806   0.5886   0.3449     C
C       0.8078   0.4291   0.1999     C
C       0.8078   0.5709   0.3001     C
C       0.8098   0.2888    0.837     C
C       0.8098   0.7112    0.663     C
C       0.8101   0.2372   0.3599     C
C       0.8101   0.7628   0.1401     C
O       0.8111   0.0622   0.5487     O
O       0.8111   0.9378   0.9513     O
H       0.8142    0.028   0.5686     H
H       0.8142    0.972   0.9314     H
C       0.8173   0.2142   0.8582     C
C       0.8173   0.7858   0.6418     C
H       0.8203   0.1395   0.3994     H
H       0.8203   0.8605   0.1006     H
H       0.8233   0.1755   0.0125     H
H       0.8233   0.8245   0.4875     H
O        0.824   0.0595   0.8986     O
O        0.824   0.9405   0.6014     O
H       0.8245   0.1767   0.2375     H
H       0.8245   0.8233   0.2625     H
C       0.8248   0.1615   0.6495     C
C       0.8248   0.8385   0.8505     C
C       0.8324    0.072   0.2041     C
C       0.8324    0.928   0.2959     C
C       0.8385   0.1752   0.6005     C
C       0.8385   0.8248   0.8995     C
N       0.8459   0.0554   0.0204     N
N       0.8459   0.9446   0.4796     N
C       0.8583   0.3507   0.1399     C
C       0.8583   0.6493   0.3601     C
H        0.859   0.3358     0.11     H
H        0.859   0.6642     0.39     H
C       0.8605   0.1386   0.0246     C
H       0.8605   0.1797   0.8506     H
H       0.8605   0.8203   0.6494     H
C       0.8605   0.8614   0.4754     C
C       0.8614   0.1395   0.2254     C
C       0.8614   0.8605   0.2746     C
C       0.8616   0.3863   0.2264     C
C       0.8616   0.6137   0.2736     C
H       0.8618   0.3987   0.2566     H
H       0.8618   0.6013   0.2434     H
H        0.862   0.0284    0.328     H
H        0.862   0.9716    0.172     H
O       0.8623   0.3848   0.7838     O
O       0.8623   0.6152   0.7162     O
C       0.8636   0.2183   0.6837     C
C       0.8636   0.7817   0.8163     C
C       0.8686   0.3126   0.8009     C
C       0.8686   0.6874   0.6991     C
C        0.883   0.0174   0.1865     C
C        0.883   0.9826   0.3135     C
C       0.8922   0.2272    0.337     C
C       0.8922   0.7728    0.163     C
H        0.895   0.0502    0.463     H
H        0.895   0.9498    0.037     H
O       0.9006   0.2688    0.302     O
O       0.9006   0.7312    0.198     O
C       0.9029   0.0062   0.0389     C
C       0.9029   0.9938   0.4611     C
C       0.9092   0.3128     0.17     C
C       0.9092   0.6872     0.33     C
N       0.9127   0.3293   0.2127     N
N       0.9127   0.6707   0.2873     N
O       0.9208   0.2604   0.7886     O
O       0.9208   0.7396   0.7114     O
C        0.928   0.1676   0.0459     C
C        0.928   0.8324   0.4541     C
H        0.936   0.2239   0.0481     H
H        0.936   0.7761   0.4519     H
O       0.9378   0.1889   0.7013     O
O       0.9378   0.8111   0.7987     O
O       0.9405    0.176   0.3514     O
O       0.9405    0.824   0.1486     O
H        0.944   0.2723   0.1593     H
H        0.944   0.7277   0.3407     H
N       0.9446   0.1541   0.2296     N
N       0.9446   0.8459   0.2704     N
H       0.9498    0.105    0.787     H
H       0.9498    0.895    0.713     H
C       0.9662   0.0281   0.1895     C
C       0.9662   0.9719   0.3105     C
H       0.9716    0.138    0.922     H
H       0.9716    0.862    0.578     H
C       0.9719   0.0338   0.0605     C
C       0.9719   0.9662   0.4395     C
H        0.972   0.1858   0.6814     H
H        0.972   0.8142   0.8186     H
C       0.9826    0.117   0.0635     C
C       0.9826    0.883   0.4365     C
Ni     0.98978  0.26347  0.25589    Ni
Ni     0.98978  0.73653  0.24411    Ni
H       0.9901   0.0025   0.5725     H
H       0.9901   0.9975   0.9275     H
C       0.9938   0.0971   0.2111     C
C       0.9938   0.9029   0.2889     C
H       0.9975   0.0099   0.6775     H
H       0.9975   0.9901   0.8225     H
