data_I
_chemical_name_common  '/home/zhangsd/repos/MofS-CGCNN/ML/data/TSD/clean_cifs/HUYKAN_clean'
_cell_length_a 22.78740
_cell_length_b 22.78740
_cell_length_c 22.78740
_cell_angle_alpha 60.00000
_cell_angle_beta  60.00000
_cell_angle_gamma 60.00000
_space_group_name_H-M_alt      'P 1'


loop_
_space_group_symop_operation_xyz
  'x, y, z' 

loop_
_atom_site_label
_atom_site_fract_x
_atom_site_fract_y
_atom_site_fract_z
_atom_site_type_symbol
C      0.00961  0.40089  0.76505     C
C      0.00961  0.76505  0.82445     C
C      0.00961  0.82445  0.40089     C
C      0.01263  0.01945  0.57383     C
C      0.01263  0.39409  0.01945     C
C      0.01263  0.57383  0.39409     C
C      0.01344  0.13264  0.53322     C
C      0.01344   0.3207  0.13264     C
C      0.01344  0.53322   0.3207     C
C      0.01739  0.20161  0.32921     C
C      0.01739  0.32921  0.45179     C
C      0.01739  0.45179  0.20161     C
C      0.01945  0.01263  0.39409     C
C      0.01945  0.39409  0.57383     C
C      0.01945  0.57383  0.01263     C
H       0.0221   0.2695   0.9425     H
H       0.0221   0.7659   0.2695     H
H       0.0221   0.9425   0.7659     H
O      0.02718  0.39268  0.70734     O
O      0.02718  0.70734   0.8728     O
O      0.02718   0.8728  0.39268     O
H        0.031   0.1926   0.9522     H
H        0.031   0.8242   0.1926     H
H        0.031   0.9522   0.8242     H
H       0.0416   0.2514   0.8756     H
H       0.0416   0.8314   0.2514     H
H       0.0416   0.8756   0.8314     H
C       0.0417  0.12368  0.34098     C
C       0.0417  0.34098  0.49364     C
C       0.0417  0.49364  0.12368     C
C      0.04839  0.23261  0.92079     C
C      0.04839  0.79821  0.23261     C
C      0.04839  0.92079  0.79821     C
O      0.05017  0.40529  0.78385     O
O      0.05017  0.76069  0.40529     O
O      0.05017  0.78385  0.76069     O
H       0.0574    0.219   0.2978     H
H       0.0574   0.2978   0.4258     H
H       0.0574   0.4258    0.219     H
H       0.0703   0.2601   0.7165     H
H       0.0703   0.7165   0.9531     H
H       0.0703   0.9531   0.2601     H
C      0.08452  0.38372   0.9948     C
C      0.08452  0.53696  0.38372     C
C      0.08452   0.9948  0.53696     C
C      0.08565  0.11273  0.49255     C
C      0.08565  0.30907  0.11273     C
C      0.08565  0.49255  0.30907     C
N      0.08763  0.36435  0.57213     N
N      0.08763  0.57213  0.97589     N
N      0.08763  0.97589  0.36435     N
H       0.1032   0.1412   0.7856     H
H       0.1032   0.7856     0.97     H
H       0.1032     0.97   0.1412     H
H       0.1072   0.4054   0.9464     H
H       0.1072    0.541   0.4054     H
H       0.1072   0.9464    0.541     H
H       0.1088   0.1468   0.4644     H
H       0.1088     0.28   0.1468     H
H       0.1088   0.4644     0.28     H
C      0.11273  0.08565  0.30907     C
C      0.11273  0.30907  0.49255     C
C      0.11273  0.49255  0.08565     C
C      0.11736  0.23656  0.71678     C
C      0.11736  0.71678   0.9293     C
C      0.11736   0.9293  0.23656     C
C      0.12368   0.0417  0.49364     C
C      0.12368  0.34098   0.0417     C
C      0.12368  0.49364  0.34098     C
Ni       0.125   0.3838    0.625    Ni
Ni       0.125    0.625   0.8662    Ni
Ni       0.125   0.8662   0.3838    Ni
C      0.12632   0.2083  0.90902     C
C      0.12632  0.75636   0.2083     C
C      0.12632  0.90902  0.75636     C
C      0.13264  0.01344   0.3207     C
C      0.13264   0.3207  0.53322     C
C      0.13264  0.53322  0.01344     C
C      0.13727  0.16435  0.75745     C
C      0.13727  0.75745  0.94093     C
C      0.13727  0.94093  0.16435     C
H       0.1412   0.1032     0.97     H
H       0.1412   0.7856   0.1032     H
H       0.1412     0.97   0.7856     H
H       0.1428   0.3036   0.8446     H
H       0.1428    0.709   0.3036     H
H       0.1428   0.8446    0.709     H
H       0.1468   0.1088     0.28     H
H       0.1468     0.28   0.4644     H
H       0.1468   0.4644   0.1088     H
N      0.16237  0.27411  0.67787     N
N      0.16237  0.67787  0.88565     N
N      0.16237  0.88565  0.27411     N
C      0.16435  0.13727  0.94093     C
C      0.16435  0.75745  0.13727     C
C      0.16435  0.94093  0.75745     C
C      0.16548   0.2552  0.86628     C
C      0.16548  0.71304   0.2552     C
C      0.16548  0.86628  0.71304     C
H       0.1797   0.2969   0.5335     H
H       0.1797   0.5335   0.9899     H
H       0.1797   0.9899   0.2969     H
H       0.1926    0.031   0.8242     H
H       0.1926   0.8242   0.9522     H
H       0.1926   0.9522    0.031     H
O      0.19983  0.46615  0.84471     O
O      0.19983  0.48931  0.46615     O
O      0.19983  0.84471  0.48931     O
C      0.20161  0.01739  0.45179     C
C      0.20161  0.32921  0.01739     C
C      0.20161  0.45179  0.32921     C
C       0.2083  0.12632  0.75636     C
C       0.2083  0.75636  0.90902     C
C       0.2083  0.90902  0.12632     C
H       0.2084   0.3744   0.9986     H
H       0.2084   0.4186   0.3744     H
H       0.2084   0.9986   0.4186     H
H        0.219   0.0574   0.4258     H
H        0.219   0.2978   0.0574     H
H        0.219   0.4258   0.2978     H
O      0.22282   0.3772  0.54266     O
O      0.22282  0.54266  0.85732     O
O      0.22282  0.85732   0.3772     O
H       0.2279   0.3075   0.9805     H
H       0.2279   0.4841   0.3075     H
H       0.2279   0.9805   0.4841     H
C      0.23055  0.23737  0.67617     C
C      0.23055  0.67617  0.85591     C
C      0.23055  0.85591  0.23737     C
C      0.23261  0.04839  0.79821     C
C      0.23261  0.79821  0.92079     C
C      0.23261  0.92079  0.04839     C
C      0.23656  0.11736   0.9293     C
C      0.23656  0.71678  0.11736     C
C      0.23656   0.9293  0.71678     C
C      0.23737  0.23055  0.85591     C
C      0.23737  0.67617  0.23055     C
C      0.23737  0.85591  0.67617     C
C      0.24039  0.42555  0.48495     C
C      0.24039  0.48495  0.84911     C
C      0.24039  0.84911  0.42555     C
H       0.2514   0.0416   0.8314     H
H       0.2514   0.8314   0.8756     H
H       0.2514   0.8756   0.0416     H
C       0.2552  0.16548  0.71304     C
C       0.2552  0.71304  0.86628     C
C       0.2552  0.86628  0.16548     C
H       0.2601   0.0703   0.9531     H
H       0.2601   0.7165   0.0703     H
H       0.2601   0.9531   0.7165     H
H       0.2621   0.2633   0.8263     H
H       0.2621   0.6483   0.2633     H
H       0.2621   0.8263   0.6483     H
H       0.2633   0.2621   0.6483     H
H       0.2633   0.6483   0.8263     H
H       0.2633   0.8263   0.2621     H
H       0.2695   0.0221   0.7659     H
H       0.2695   0.7659   0.9425     H
H       0.2695   0.9425   0.0221     H
N      0.27411  0.16237  0.88565     N
N      0.27411  0.67787  0.16237     N
N      0.27411  0.88565  0.67787     N
H         0.28   0.1088   0.4644     H
H         0.28   0.1468   0.1088     H
H         0.28   0.4644   0.1468     H
H       0.2969   0.1797   0.9899     H
H       0.2969   0.5335   0.1797     H
H       0.2969   0.9899   0.5335     H
H       0.2978   0.0574    0.219     H
H       0.2978    0.219   0.4258     H
H       0.2978   0.4258   0.0574     H
H       0.3036   0.1428    0.709     H
H       0.3036    0.351   0.8466     H
H       0.3036   0.4988    0.351     H
H       0.3036    0.709   0.8446     H
H       0.3036   0.8446   0.1428     H
H       0.3036   0.8466   0.4988     H
H       0.3075   0.2279   0.4841     H
H       0.3075   0.4841   0.9805     H
H       0.3075   0.9805   0.2279     H
C      0.30907  0.08565  0.49255     C
C      0.30907  0.11273  0.08565     C
C      0.30907  0.49255  0.11273     C
C      0.31588  0.40476  0.43306     C
C      0.31588  0.43306   0.8463     C
C      0.31588   0.8463  0.40476     C
C       0.3207  0.01344  0.53322     C
C       0.3207  0.13264  0.01344     C
C       0.3207  0.53322  0.13264     C
C      0.32921  0.01739  0.20161     C
C      0.32921  0.20161  0.45179     C
C      0.32921  0.45179  0.01739     C
C       0.3361  0.36448  0.84642     C
C       0.3361    0.453  0.36448     C
C       0.3361  0.84642    0.453     C
C      0.34098   0.0417  0.12368     C
C      0.34098  0.12368  0.49364     C
C      0.34098  0.49364   0.0417     C
H        0.351   0.3036   0.4988     H
H        0.351   0.4988   0.8466     H
H        0.351   0.8466   0.3036     H
N      0.36435  0.08763  0.97589     N
N      0.36435  0.57213  0.08763     N
N      0.36435  0.97589  0.57213     N
C      0.36448   0.3361    0.453     C
C      0.36448    0.453  0.84642     C
C      0.36448  0.84642   0.3361     C
H       0.3744   0.2084   0.4186     H
H       0.3744   0.4186   0.9986     H
H       0.3744   0.9986   0.2084     H
O       0.3772  0.22282  0.85732     O
O       0.3772  0.54266  0.22282     O
O       0.3772  0.85732  0.54266     O
C      0.38372  0.08452  0.53696     C
C      0.38372  0.53696   0.9948     C
C      0.38372   0.9948  0.08452     C
Ni      0.3838    0.125   0.8662    Ni
Ni      0.3838    0.625    0.125    Ni
Ni      0.3838   0.8662    0.625    Ni
O      0.39268  0.02718   0.8728     O
O      0.39268  0.70734  0.02718     O
O      0.39268   0.8728  0.70734     O
C      0.39409  0.01263  0.57383     C
C      0.39409  0.01945  0.01263     C
C      0.39409  0.57383  0.01945     C
C      0.40089  0.00961  0.82445     C
C      0.40089  0.76505  0.00961     C
C      0.40089  0.82445  0.76505     C
H       0.4034   0.7512    0.899     H
H       0.4034    0.899   0.9464     H
H       0.4034   0.9464   0.7512     H
C      0.40358    0.797  0.88552     C
C      0.40358  0.88552   0.9139     C
C      0.40358   0.9139    0.797     C
C       0.4037  0.81694  0.93412     C
C       0.4037  0.84524  0.81694     C
C       0.4037  0.93412  0.84524     C
C      0.40476  0.31588   0.8463     C
C      0.40476  0.43306  0.31588     C
C      0.40476   0.8463  0.43306     C
O      0.40529  0.05017  0.76069     O
O      0.40529  0.76069  0.78385     O
O      0.40529  0.78385  0.05017     O
H       0.4054   0.1072    0.541     H
H       0.4054    0.541   0.9464     H
H       0.4054   0.9464   0.1072     H
H       0.4186   0.2084   0.9986     H
H       0.4186   0.3744   0.2084     H
H       0.4186   0.9986   0.3744     H
H       0.4237   0.6017   0.9867     H
H       0.4237   0.9867   0.9879     H
H       0.4237   0.9879   0.6017     H
C      0.42555  0.24039  0.84911     C
C      0.42555  0.48495  0.24039     C
C      0.42555  0.84911  0.48495     C
H       0.4258   0.0574   0.2978     H
H       0.4258    0.219   0.0574     H
H       0.4258   0.2978    0.219     H
C      0.43306  0.31588  0.40476     C
C      0.43306  0.40476   0.8463     C
C      0.43306   0.8463  0.31588     C
C      0.45179  0.01739  0.32921     C
C      0.45179  0.20161  0.01739     C
C      0.45179  0.32921  0.20161     C
C        0.453   0.3361  0.84642     C
C        0.453  0.36448   0.3361     C
C        0.453  0.84642  0.36448     C
H       0.4644   0.1088   0.1468     H
H       0.4644   0.1468     0.28     H
H       0.4644     0.28   0.1088     H
O      0.46615  0.19983  0.48931     O
O      0.46615  0.48931  0.84471     O
O      0.46615  0.84471  0.19983     O
H       0.4841   0.2279   0.9805     H
H       0.4841   0.3075   0.2279     H
H       0.4841   0.9805   0.3075     H
C      0.48495  0.24039  0.42555     C
C      0.48495  0.42555  0.84911     C
C      0.48495  0.84911  0.24039     C
O      0.48931  0.19983  0.84471     O
O      0.48931  0.46615  0.19983     O
O      0.48931  0.84471  0.46615     O
C      0.49255  0.08565  0.11273     C
C      0.49255  0.11273  0.30907     C
C      0.49255  0.30907  0.08565     C
C      0.49364   0.0417  0.34098     C
C      0.49364  0.12368   0.0417     C
C      0.49364  0.34098  0.12368     C
H       0.4988   0.3036   0.8466     H
H       0.4988    0.351   0.3036     H
H       0.4988   0.8466    0.351     H
C      0.53322  0.01344  0.13264     C
C      0.53322  0.13264   0.3207     C
C      0.53322   0.3207  0.01344     C
H       0.5335   0.1797   0.2969     H
H       0.5335   0.2969   0.9899     H
H       0.5335   0.9899   0.1797     H
C      0.53696  0.08452   0.9948     C
C      0.53696  0.38372  0.08452     C
C      0.53696   0.9948  0.38372     C
H        0.541   0.1072   0.9464     H
H        0.541   0.4054   0.1072     H
H        0.541   0.9464   0.4054     H
O      0.54266  0.22282   0.3772     O
O      0.54266   0.3772  0.85732     O
O      0.54266  0.85732  0.22282     O
N      0.57213  0.08763  0.36435     N
N      0.57213  0.36435  0.97589     N
N      0.57213  0.97589  0.08763     N
C      0.57383  0.01263  0.01945     C
C      0.57383  0.01945  0.39409     C
C      0.57383  0.39409  0.01263     C
H       0.6017   0.4237   0.9879     H
H       0.6017   0.9867   0.4237     H
H       0.6017   0.9879   0.9867     H
Ni       0.625    0.125   0.3838    Ni
Ni       0.625   0.3838   0.8662    Ni
Ni       0.625   0.8662    0.125    Ni
H       0.6483   0.2621   0.8263     H
H       0.6483   0.2633   0.2621     H
H       0.6483   0.8263   0.2633     H
C      0.67617  0.23055  0.23737     C
C      0.67617  0.23737  0.85591     C
C      0.67617  0.85591  0.23055     C
N      0.67787  0.16237  0.27411     N
N      0.67787  0.27411  0.88565     N
N      0.67787  0.88565  0.16237     N
O      0.70734  0.02718  0.39268     O
O      0.70734  0.39268   0.8728     O
O      0.70734   0.8728  0.02718     O
H        0.709   0.1428   0.8446     H
H        0.709   0.3036   0.1428     H
H        0.709   0.8446   0.3036     H
C      0.71304  0.16548  0.86628     C
C      0.71304   0.2552  0.16548     C
C      0.71304  0.86628   0.2552     C
H       0.7165   0.0703   0.2601     H
H       0.7165   0.2601   0.9531     H
H       0.7165   0.9531   0.0703     H
C      0.71678  0.11736  0.23656     C
C      0.71678  0.23656   0.9293     C
C      0.71678   0.9293  0.11736     C
H       0.7512   0.4034   0.9464     H
H       0.7512    0.899   0.4034     H
H       0.7512   0.9464    0.899     H
C      0.75636  0.12632  0.90902     C
C      0.75636   0.2083  0.12632     C
C      0.75636  0.90902   0.2083     C
C      0.75745  0.13727  0.16435     C
C      0.75745  0.16435  0.94093     C
C      0.75745  0.94093  0.13727     C
O      0.76069  0.05017  0.78385     O
O      0.76069  0.40529  0.05017     O
O      0.76069  0.78385  0.40529     O
C      0.76505  0.00961  0.40089     C
C      0.76505  0.40089  0.82445     C
C      0.76505  0.82445  0.00961     C
H       0.7659   0.0221   0.9425     H
H       0.7659   0.2695   0.0221     H
H       0.7659   0.9425   0.2695     H
O      0.78385  0.05017  0.40529     O
O      0.78385  0.40529  0.76069     O
O      0.78385  0.76069  0.05017     O
H       0.7856   0.1032   0.1412     H
H       0.7856   0.1412     0.97     H
H       0.7856     0.97   0.1032     H
C        0.797  0.40358   0.9139     C
C        0.797  0.88552  0.40358     C
C        0.797   0.9139  0.88552     C
C      0.79821  0.04839  0.92079     C
C      0.79821  0.23261  0.04839     C
C      0.79821  0.92079  0.23261     C
C      0.81694   0.4037  0.84524     C
C      0.81694  0.84524  0.93412     C
C      0.81694  0.93412   0.4037     C
H       0.8242    0.031   0.9522     H
H       0.8242   0.1926    0.031     H
H       0.8242   0.9522   0.1926     H
C      0.82445  0.00961  0.76505     C
C      0.82445  0.40089  0.00961     C
C      0.82445  0.76505  0.40089     C
H       0.8263   0.2621   0.2633     H
H       0.8263   0.2633   0.6483     H
H       0.8263   0.6483   0.2621     H
H       0.8314   0.0416   0.8756     H
H       0.8314   0.2514   0.0416     H
H       0.8314   0.8756   0.2514     H
H       0.8446   0.1428   0.3036     H
H       0.8446   0.3036    0.709     H
H       0.8446    0.709   0.1428     H
O      0.84471  0.19983  0.46615     O
O      0.84471  0.46615  0.48931     O
O      0.84471  0.48931  0.19983     O
C      0.84524   0.4037  0.93412     C
C      0.84524  0.81694   0.4037     C
C      0.84524  0.93412  0.81694     C
C       0.8463  0.31588  0.43306     C
C       0.8463  0.40476  0.31588     C
C       0.8463  0.43306  0.40476     C
C      0.84642   0.3361  0.36448     C
C      0.84642  0.36448    0.453     C
C      0.84642    0.453   0.3361     C
H       0.8466   0.3036    0.351     H
H       0.8466    0.351   0.4988     H
H       0.8466   0.4988   0.3036     H
C      0.84911  0.24039  0.48495     C
C      0.84911  0.42555  0.24039     C
C      0.84911  0.48495  0.42555     C
C      0.85591  0.23055  0.67617     C
C      0.85591  0.23737  0.23055     C
C      0.85591  0.67617  0.23737     C
O      0.85732  0.22282  0.54266     O
O      0.85732   0.3772  0.22282     O
O      0.85732  0.54266   0.3772     O
Ni      0.8662    0.125    0.625    Ni
Ni      0.8662   0.3838    0.125    Ni
Ni      0.8662    0.625   0.3838    Ni
C      0.86628  0.16548   0.2552     C
C      0.86628   0.2552  0.71304     C
C      0.86628  0.71304  0.16548     C
O       0.8728  0.02718  0.70734     O
O       0.8728  0.39268  0.02718     O
O       0.8728  0.70734  0.39268     O
H       0.8756   0.0416   0.2514     H
H       0.8756   0.2514   0.8314     H
H       0.8756   0.8314   0.0416     H
C      0.88552  0.40358    0.797     C
C      0.88552    0.797   0.9139     C
C      0.88552   0.9139  0.40358     C
N      0.88565  0.16237  0.67787     N
N      0.88565  0.27411  0.16237     N
N      0.88565  0.67787  0.27411     N
H        0.899   0.4034   0.7512     H
H        0.899   0.7512   0.9464     H
H        0.899   0.9464   0.4034     H
C      0.90902  0.12632   0.2083     C
C      0.90902   0.2083  0.75636     C
C      0.90902  0.75636  0.12632     C
C       0.9139  0.40358  0.88552     C
C       0.9139    0.797  0.40358     C
C       0.9139  0.88552    0.797     C
C      0.92079  0.04839  0.23261     C
C      0.92079  0.23261  0.79821     C
C      0.92079  0.79821  0.04839     C
C       0.9293  0.11736  0.71678     C
C       0.9293  0.23656  0.11736     C
C       0.9293  0.71678  0.23656     C
C      0.93412   0.4037  0.81694     C
C      0.93412  0.81694  0.84524     C
C      0.93412  0.84524   0.4037     C
C      0.94093  0.13727  0.75745     C
C      0.94093  0.16435  0.13727     C
C      0.94093  0.75745  0.16435     C
H       0.9425   0.0221   0.2695     H
H       0.9425   0.2695   0.7659     H
H       0.9425   0.7659   0.0221     H
H       0.9464   0.1072   0.4054     H
H       0.9464   0.4034    0.899     H
H       0.9464   0.4054    0.541     H
H       0.9464    0.541   0.1072     H
H       0.9464   0.7512   0.4034     H
H       0.9464    0.899   0.7512     H
H       0.9522    0.031   0.1926     H
H       0.9522   0.1926   0.8242     H
H       0.9522   0.8242    0.031     H
H       0.9531   0.0703   0.7165     H
H       0.9531   0.2601   0.0703     H
H       0.9531   0.7165   0.2601     H
H         0.97   0.1032   0.7856     H
H         0.97   0.1412   0.1032     H
H         0.97   0.7856   0.1412     H
N      0.97589  0.08763  0.57213     N
N      0.97589  0.36435  0.08763     N
N      0.97589  0.57213  0.36435     N
H       0.9805   0.2279   0.3075     H
H       0.9805   0.3075   0.4841     H
H       0.9805   0.4841   0.2279     H
H       0.9867   0.4237   0.6017     H
H       0.9867   0.6017   0.9879     H
H       0.9867   0.9879   0.4237     H
H       0.9879   0.4237   0.9867     H
H       0.9879   0.6017   0.4237     H
H       0.9879   0.9867   0.6017     H
H       0.9899   0.1797   0.5335     H
H       0.9899   0.2969   0.1797     H
H       0.9899   0.5335   0.2969     H
C       0.9948  0.08452  0.38372     C
C       0.9948  0.38372  0.53696     C
C       0.9948  0.53696  0.08452     C
H       0.9986   0.2084   0.3744     H
H       0.9986   0.3744   0.4186     H
H       0.9986   0.4186   0.2084     H
