data_I
_chemical_name_common  '/home/zhangsd/repos/MofS-CGCNN/ML/data/TSD/clean_cifs/HUZKUJ_clean'
_cell_length_a  8.06740
_cell_length_b 10.00600
_cell_length_c 20.44320
_cell_angle_alpha 100.97200
_cell_angle_beta  95.06500
_cell_angle_gamma 105.05300
_space_group_name_H-M_alt      'P 1'


loop_
_space_group_symop_operation_xyz
  'x, y, z' 

loop_
_atom_site_label
_atom_site_fract_x
_atom_site_fract_y
_atom_site_fract_z
_atom_site_type_symbol
P       0.0101   0.6796  0.75263     P
In     0.02231  0.36439  0.88908    In
P       0.0232   0.3207  0.46043     P
O       0.0361   0.1759   0.4255     O
O       0.0518   0.4265   0.4155     O
O       0.0576   0.8004   0.7167     O
O       0.0742   0.8525   0.1168     O
H        0.078    0.728    0.813     H
O       0.0794    0.555   0.7248     O
C       0.0817   0.8177   0.3651     C
In     0.09599  0.09415  0.33073    In
C       0.1073   0.1953   0.6624     C
O       0.1132   0.7113   0.3811     O
In     0.11547  0.46939  0.62531    In
O       0.1368     0.09   0.6797     O
H        0.142    0.696    0.522     H
O       0.1427   0.9919   0.2366     O
O       0.1453   0.3761   0.5261     O
P         0.17   0.9788  0.16743     P
O       0.1707   0.5816   0.0609     O
O        0.177   0.5831   0.8947     O
O       0.1832   0.3746   0.2452     O
O        0.184   0.3681    0.976     O
O       0.1918   0.9348   0.3704     O
O       0.1978    0.109    0.139     O
O       0.2179   0.3112   0.6648     O
O       0.2195   0.3674   0.0983     O
O       0.2364   0.3403   0.8316     O
P       0.2464   0.4581   0.0467     P
H       0.2868   0.9664   0.1703     H
C       0.3155   0.5935   0.8701     C
C       0.3445   0.4552     0.83     C
O       0.3446   0.2351   0.3574     O
In     0.34891  0.31693  0.17985    In
O       0.3623   0.6063   0.6301     O
H        0.412    0.845    0.661     H
O       0.4344   0.7051   0.8764     O
H        0.439    0.519    0.058     H
O       0.4736   0.4671   0.8001     O
P       0.4858   0.7403  0.67197     P
O       0.4937    0.257   0.2542     O
O       0.5063    0.743   0.7458     O
P       0.5142   0.2597  0.32803     P
O       0.5264   0.5329   0.1999     O
H        0.561    0.481    0.942     H
O       0.5656   0.2949   0.1236     O
H        0.588    0.155    0.339     H
O       0.6377   0.3937   0.3699     O
In     0.65109  0.68307  0.82015    In
O       0.6554   0.7649   0.6426     O
C       0.6555   0.5448     0.17     C
C       0.6845   0.4065   0.1299     C
H       0.7132   0.0336   0.8297     H
P       0.7536   0.5419   0.9533     P
O       0.7636   0.6597   0.1684     O
O       0.7805   0.6326   0.9017     O
O       0.7821   0.6888   0.3352     O
O       0.8022    0.891    0.861     O
O       0.8082   0.0652   0.6296     O
O        0.816   0.6319    0.024     O
O       0.8168   0.6254   0.7548     O
O        0.823   0.4169   0.1053     O
O       0.8293   0.4184   0.9391     O
P         0.83   0.0212  0.83257     P
O       0.8547   0.6239   0.4739     O
O       0.8573   0.0081   0.7634     O
H        0.858    0.304    0.478     H
O       0.8632     0.91   0.3203     O
In     0.88453  0.53061  0.37469    In
O       0.8868   0.2887   0.6189     O
C       0.8927   0.8047   0.3376     C
In     0.90401  0.90585  0.66927    In
C       0.9183   0.1823   0.6349     C
O       0.9206    0.445   0.2752     O
H        0.922    0.272    0.187     H
O       0.9258   0.1475   0.8832     O
O       0.9424   0.1996   0.2833     O
O       0.9482   0.5735   0.5845     O
O       0.9639   0.8241   0.5745     O
P       0.9768   0.6793  0.53957     P
In     0.97769  0.63561  0.11092    In
P       0.9899   0.3204  0.24737     P
