data_I
_chemical_name_common  '/home/zhangsd/repos/MofS-CGCNN/ML/data/TSD/clean_cifs/HUZLIY_clean'
_cell_length_a 13.86840
_cell_length_b 13.86840
_cell_length_c 18.63680
_cell_angle_alpha 90.00000
_cell_angle_beta  90.00000
_cell_angle_gamma 120.00000
_space_group_name_H-M_alt      'P 1'


loop_
_space_group_symop_operation_xyz
  'x, y, z' 

loop_
_atom_site_label
_atom_site_fract_x
_atom_site_fract_y
_atom_site_fract_z
_atom_site_type_symbol
In         0.0      0.0      0.0    In
In         0.0      0.0     0.25    In
In         0.0      0.0      0.5    In
In         0.0      0.0     0.75    In
O       0.0017   0.4337   0.0782     O
O       0.0017    0.568   0.5782     O
H        0.012    0.285    0.985     H
H        0.012    0.727    0.485     H
O       0.0225   0.1386   0.0634     O
O       0.0225   0.8839   0.5634     O
H        0.026   0.2279   0.1514     H
H        0.026   0.7981   0.6514     H
P       0.0316  0.19152  0.37193     P
P       0.0316  0.84008  0.87193     P
O       0.0526   0.3085   0.5443     O
O       0.0526   0.7441   0.0443     O
O       0.0683   0.1459   0.8152     O
O       0.0683   0.9224   0.3152     O
O       0.0776   0.1459   0.3152     O
O       0.0776   0.9317   0.8152     O
H        0.103    0.365    0.513     H
H        0.103    0.738    0.013     H
O       0.1161   0.1386   0.5634     O
O       0.1161   0.9775   0.0634     O
P      0.12406  0.49351  0.05804     P
P      0.12406  0.63055  0.55804     P
O       0.1262   0.3071   0.3929     O
O       0.1262   0.8191   0.8929     O
O       0.1386   0.0225   0.4366     O
O       0.1386   0.1161   0.9366     O
In     0.14564  0.43918   0.4602    In
In     0.14564  0.70646   0.9602    In
O       0.1457    0.433   0.9971     O
O       0.1457   0.7127   0.4971     O
O       0.1459   0.0683   0.6848     O
O       0.1459   0.0776   0.1848     O
P      0.15992  0.19152  0.87193     P
P      0.15992   0.9684  0.37193     P
H       0.1647   0.4898      0.1     H
H       0.1647   0.6749      0.6     H
O       0.1683   0.5529   0.5426     O
O       0.1683   0.6154   0.0426     O
O       0.1809   0.3071   0.8929     O
O       0.1809   0.8738   0.3929     O
P      0.19152   0.0316  0.12807     P
P      0.19152  0.15992  0.62807     P
H       0.2019   0.2279   0.6514     H
H       0.2019    0.974   0.1514     H
H       0.2279    0.026   0.3486     H
H       0.2279   0.2019   0.8486     H
O       0.2332   0.5576   0.3794     O
O       0.2332   0.6756   0.8794     O
O       0.2559   0.3085   0.0443     O
O       0.2559   0.9474   0.5443     O
H        0.262    0.365    0.013     H
H        0.262    0.897    0.513     H
H        0.273    0.285    0.485     H
H        0.273    0.988    0.985     H
H        0.285    0.012    0.515     H
H        0.285    0.273    0.015     H
O       0.2873    0.433   0.4971     O
O       0.2873   0.8543   0.9971     O
In     0.29354  0.43918   0.9602    In
In     0.29354  0.85436   0.4602    In
O       0.3071   0.1262   0.1071     O
O       0.3071   0.1809   0.6071     O
O       0.3085   0.0526   0.9557     O
O       0.3085   0.2559   0.4557     O
O       0.3244   0.5576   0.8794     O
O       0.3244   0.7668   0.3794     O
H       0.3251   0.4898      0.6     H
H       0.3251   0.8353      0.1     H
H      0.33333  0.66667   0.3064     H
P      0.33333  0.66667    0.359     P
H      0.33333  0.66667   0.8064     H
P      0.33333  0.66667    0.859     P
H        0.365    0.103    0.987     H
H        0.365    0.262    0.487     H
P      0.36945  0.49351  0.55804     P
P      0.36945  0.87594  0.05804     P
O       0.3846   0.5529   0.0426     O
O       0.3846   0.8317   0.5426     O
O        0.432   0.4337   0.5782     O
O        0.432   0.9983   0.0782     O
O        0.433   0.1457   0.5029     O
O        0.433   0.2873   0.0029     O
O       0.4337   0.0017   0.4218     O
O       0.4337    0.432   0.9218     O
In     0.43918  0.14564   0.0398    In
In     0.43918  0.29354   0.5398    In
O       0.4424   0.6756   0.3794     O
O       0.4424   0.7668   0.8794     O
O       0.4471   0.6154   0.5426     O
O       0.4471   0.8317   0.0426     O
H       0.4898   0.1647      0.4     H
H       0.4898   0.3251      0.9     H
P      0.49351  0.12406  0.44196     P
P      0.49351  0.36945  0.94196     P
P      0.50649  0.63055  0.05804     P
P      0.50649  0.87594  0.55804     P
H       0.5102   0.6749      0.1     H
H       0.5102   0.8353      0.6     H
O       0.5529   0.1683   0.9574     O
O       0.5529   0.3846   0.4574     O
O       0.5576   0.2332   0.1206     O
O       0.5576   0.3244   0.6206     O
In     0.56082  0.70646   0.4602    In
In     0.56082  0.85436   0.9602    In
O       0.5663    0.568   0.0782     O
O       0.5663   0.9983   0.5782     O
O        0.567   0.7127   0.9971     O
O        0.567   0.8543   0.4971     O
O        0.568   0.0017   0.9218     O
O        0.568   0.5663   0.4218     O
O       0.6154   0.1683   0.4574     O
O       0.6154   0.4471   0.9574     O
P      0.63055  0.12406  0.94196     P
P      0.63055  0.50649  0.44196     P
H        0.635    0.738    0.513     H
H        0.635    0.897    0.013     H
P      0.66667  0.33333    0.141     P
H      0.66667  0.33333   0.1936     H
P      0.66667  0.33333    0.641     P
H      0.66667  0.33333   0.6936     H
H       0.6749   0.1647      0.9     H
H       0.6749   0.5102      0.4     H
O       0.6756   0.2332   0.6206     O
O       0.6756   0.4424   0.1206     O
O       0.6915   0.7441   0.5443     O
O       0.6915   0.9474   0.0443     O
O       0.6929   0.8191   0.3929     O
O       0.6929   0.8738   0.8929     O
In     0.70646  0.14564   0.5398    In
In     0.70646  0.56082   0.0398    In
O       0.7127   0.1457   0.0029     O
O       0.7127    0.567   0.5029     O
H        0.715    0.727    0.985     H
H        0.715    0.988    0.485     H
H        0.727    0.012    0.015     H
H        0.727    0.715    0.515     H
H        0.738    0.103    0.487     H
H        0.738    0.635    0.987     H
O       0.7441   0.0526   0.4557     O
O       0.7441   0.6915   0.9557     O
O       0.7668   0.3244   0.1206     O
O       0.7668   0.4424   0.6206     O
H       0.7721   0.7981   0.1514     H
H       0.7721    0.974   0.6514     H
H       0.7981    0.026   0.8486     H
H       0.7981   0.7721   0.3486     H
P      0.80848  0.84008  0.37193     P
P      0.80848   0.9684  0.87193     P
O       0.8191   0.1262   0.6071     O
O       0.8191   0.6929   0.1071     O
O       0.8317   0.3846   0.9574     O
O       0.8317   0.4471   0.4574     O
H       0.8353   0.3251      0.4     H
H       0.8353   0.5102      0.9     H
P      0.84008   0.0316  0.62807     P
P      0.84008  0.80848  0.12807     P
O       0.8541   0.9224   0.8152     O
O       0.8541   0.9317   0.3152     O
O       0.8543   0.2873   0.5029     O
O       0.8543    0.567   0.0029     O
In     0.85436  0.29354   0.0398    In
In     0.85436  0.56082   0.5398    In
O       0.8614   0.8839   0.0634     O
O       0.8614   0.9775   0.5634     O
O       0.8738   0.1809   0.1071     O
O       0.8738   0.6929   0.6071     O
P      0.87594  0.36945  0.44196     P
P      0.87594  0.50649  0.94196     P
O       0.8839   0.0225   0.9366     O
O       0.8839   0.8614   0.4366     O
H        0.897    0.262    0.987     H
H        0.897    0.635    0.487     H
O       0.9224   0.0683   0.1848     O
O       0.9224   0.8541   0.6848     O
O       0.9317   0.0776   0.6848     O
O       0.9317   0.8541   0.1848     O
O       0.9474   0.2559   0.9557     O
O       0.9474   0.6915   0.4557     O
P       0.9684  0.15992  0.12807     P
P       0.9684  0.80848  0.62807     P
H        0.974   0.2019   0.3486     H
H        0.974   0.7721   0.8486     H
O       0.9775   0.1161   0.4366     O
O       0.9775   0.8614   0.9366     O
H        0.988    0.273    0.515     H
H        0.988    0.715    0.015     H
O       0.9983    0.432   0.4218     O
O       0.9983   0.5663   0.9218     O
