data_I
_chemical_name_common  '/home/zhangsd/repos/MofS-CGCNN/ML/data/TSD/clean_cifs/HUZSUR_clean'
_cell_length_a 16.36560
_cell_length_b 17.97900
_cell_length_c 19.23200
_cell_angle_alpha 65.45200
_cell_angle_beta  66.27500
_cell_angle_gamma 69.15400
_space_group_name_H-M_alt      'P 1'


loop_
_space_group_symop_operation_xyz
  'x, y, z' 

loop_
_atom_site_label
_atom_site_fract_x
_atom_site_fract_y
_atom_site_fract_z
_atom_site_type_symbol
H       0.0013   0.3648   0.9131     H
C       0.0019   0.6368    0.914     C
K       0.0021   0.0634   0.0456     K
C       0.0034   0.1231   0.8584     C
N       0.0101   0.8014   0.2047     N
H       0.0115   0.9342   0.3487     H
C        0.012   0.4673   0.1263     C
H       0.0237   0.3141   0.0723     H
C       0.0266   0.0954   0.3783     C
C       0.0298   0.1258    0.487     C
H       0.0442   0.8658   0.7454     H
O       0.0464   0.8691    0.069     O
H       0.0469   0.4876   0.1394     H
C       0.0506    0.395   0.1047     C
C       0.0568   0.1957   0.7223     C
H       0.0576   0.0825   0.3308     H
H       0.0624   0.1343   0.5119     H
C       0.0636   0.3497   0.8875     C
C       0.0651   0.8679   0.4783     C
H       0.0653   0.2309   0.9041     H
C       0.0675   0.8974   0.5906     C
C       0.0716   0.9032   0.3366     C
C       0.0757   0.1068   0.4156     C
C        0.078   0.4898   0.8712     C
C       0.0797   0.7263   0.2048     C
H       0.0891   0.9348   0.2189     H
C        0.091   0.8943   0.7134     C
C       0.0928   0.5951   0.9122     C
H       0.0981   0.7497   0.8919     H
C       0.1016   0.2699   0.8804     C
C       0.1131   0.8586   0.3974     C
C       0.1131   0.8779   0.5188     C
H       0.1145   0.9027   0.8037     H
C       0.1175   0.9027   0.2588     C
C       0.1175   0.9144   0.6295     C
C       0.1181   0.4077   0.8566     C
C       0.1301   0.5222   0.8904     C
C       0.1331   0.9162   0.7483     C
C       0.1375   0.7103   0.9209     C
C       0.1463   0.6249    0.938     C
C       0.1502   0.3557    0.094     C
H       0.1594   0.3681   0.1907     H
H       0.1753   0.3302   0.9923     H
H       0.1763   0.8714   0.4978     H
C       0.1773   0.0923   0.3836     C
K      0.17877  0.94739  0.96698     K
H       0.1818   0.7939   0.9324     H
C       0.1864   0.7368   0.9463     C
C        0.188   0.9579   0.5825     C
O       0.1893   0.1062   0.8705     O
H       0.1906   0.4944   0.8884     H
H       0.1924   0.1866   0.4057     H
C       0.1935   0.3509   0.1457     C
C       0.1936   0.2474   0.8381     C
H       0.1964   0.9943   0.3486     H
C       0.2021   0.8104   0.3773     C
C       0.2031   0.9583   0.7019     C
C       0.2036    0.329   0.0263     C
C       0.2044   0.5673   0.9833     C
C        0.206   0.8543   0.2401     C
H       0.2064   0.9719    0.527     H
C       0.2097    0.385   0.8145     C
H       0.2118   0.5101   0.9947     H
O       0.2227   0.9038   0.1005     O
C       0.2247   0.1419   0.3857     C
C       0.2274   0.0263   0.3524     C
C       0.2302     0.98    0.618     C
H       0.2314   0.7802   0.4167     H
C       0.2341    0.161   0.8312     C
C       0.2435   0.6781   0.9934     C
C       0.2467   0.3054   0.8057     C
H       0.2467   0.4232   0.7919     H
C       0.2469   0.8064   0.3018     C
O       0.2469   0.9379   0.8132     O
C         0.25   0.9789   0.7418     C
C        0.251   0.5938   0.0116     C
C       0.2541   0.8531   0.1558     C
H       0.2766   0.0091   0.5866     H
H       0.2877   0.5544   0.0432     H
C        0.289   0.3199   0.1297     C
O        0.293   0.0378   0.7005     O
C       0.2963   0.7058   0.0231     C
C       0.2976   0.3011   0.0102     C
O        0.303   0.7837    0.991     O
H        0.305   0.7717   0.2908     H
H       0.3082   0.2912   0.7775     H
O       0.3147   0.1486   0.7832     O
H       0.3172   0.3145   0.1655     H
C       0.3202   0.1248   0.3581     C
C       0.3225   0.0073   0.3267     C
O       0.3292   0.7951   0.1471     O
H       0.3324   0.2846    0.965     H
O       0.3329   0.6545   0.0745     O
C        0.341   0.2976    0.062     C
H       0.3511   0.1591   0.3585     H
H       0.3546    0.962   0.3076     H
Zn     0.35505  0.03573  0.77246    Zn
O       0.3666   0.9519   0.8802     O
C       0.3698   0.0563   0.3297     C
Zn     0.38466  0.79859  0.03469    Zn
K       0.3963  0.80586   0.8303     K
C       0.4207   0.9533   0.9105     C
O       0.4303   0.9057   0.9772     O
C       0.4434   0.2691   0.0429     C
H       0.4565   0.9929    0.881     H
C       0.4721   0.0394   0.2997     C
O       0.4785   0.2474   0.0969     O
O        0.487   0.9104   0.7083     O
O       0.4874   0.0304   0.7171     O
O       0.4887   0.2667   0.9719     O
O       0.5113   0.7333   0.0281     O
O       0.5126   0.9696   0.2829     O
O        0.513   0.0896   0.2917     O
O       0.5215   0.7526   0.9031     O
C       0.5279   0.9606   0.7003     C
H       0.5435   0.0071    0.119     H
C       0.5566   0.7309   0.9571     C
O       0.5697   0.0943   0.0228     O
C       0.5793   0.0467   0.0895     C
K       0.6037  0.19414   0.1697     K
Zn     0.61534  0.20141  0.96531    Zn
C       0.6302   0.9437   0.6703     C
O       0.6334   0.0481   0.1198     O
Zn     0.64495  0.96427  0.22754    Zn
H       0.6454    0.038   0.6924     H
H       0.6489   0.8409   0.6415     H
C        0.659   0.7024    0.938     C
O       0.6671   0.3455   0.9255     O
H       0.6676   0.7154    0.035     H
O       0.6708   0.2049   0.8529     O
C       0.6775   0.9927   0.6733     C
C       0.6798   0.8752   0.6419     C
H       0.6828   0.6855   0.8345     H
O       0.6853   0.8514   0.2168     O
H       0.6918   0.7088   0.2225     H
H        0.695   0.2283   0.7092     H
O        0.697   0.2163    0.009     O
C       0.7024   0.6989   0.9898     C
C       0.7037   0.2942   0.9769     C
O        0.707   0.9622   0.2995     O
C        0.711   0.6801   0.8703     C
H       0.7123   0.4456   0.9568     H
H       0.7234   0.9909   0.4134     H
C       0.7459   0.1469   0.8442     C
C        0.749   0.4062   0.9884     C
C         0.75   0.0211   0.2582     C
O       0.7531   0.0621   0.1868     O
C       0.7531   0.1936   0.6982     C
H       0.7533   0.5768   0.2081     H
C       0.7533   0.6946   0.1943     C
C       0.7565   0.3219   0.0066     C
C       0.7659    0.839   0.1688     C
H       0.7686   0.2198   0.5833     H
C       0.7698     0.02    0.382     C
C       0.7726   0.9737   0.6476     C
C       0.7753   0.8581   0.6143     C
O       0.7773   0.0962   0.8995     O
H       0.7882   0.4899   0.0053     H
C       0.7903    0.615   0.1855     C
H       0.7936   0.0281    0.473     H
C        0.794   0.1457   0.7599     C
C       0.7956   0.4327   0.0167     C
C       0.7964    0.671   0.9737     C
C       0.7969   0.0417   0.2981     C
C       0.7979   0.1896   0.6227     C
H       0.8036   0.0057   0.6514     H
C       0.8064   0.7526   0.1619     C
C       0.8065   0.6491   0.8543     C
H       0.8076   0.8134   0.5943     H
H       0.8094   0.5056   0.1116     H
O       0.8107   0.8938   0.1295     O
C        0.812   0.0421   0.4175     C
C       0.8136   0.2632   0.0537     C
H       0.8182   0.2061   0.0676     H
K      0.82123  0.05261  0.03302     K
C       0.8227   0.9077   0.6164     C
H       0.8237   0.1286   0.5022     H
H       0.8247   0.6698   0.0077     H
H       0.8406   0.6319   0.8093     H
C       0.8498   0.6443    0.906     C
C       0.8537   0.3751    0.062     C
C       0.8625   0.2897   0.0791     C
C       0.8669   0.0838   0.2517     C
C       0.8699   0.4778   0.1096     C
C       0.8819   0.5923   0.1434     C
C       0.8825   0.0856   0.3705     C
C       0.8825   0.0973   0.7412     C
H       0.8855   0.0973   0.1963     H
C       0.8869   0.1221   0.4812     C
C       0.8869   0.1414   0.6026     C
C       0.8984   0.7301   0.1196     C
H       0.9019   0.2503   0.1081     H
C       0.9072   0.4049   0.0878     C
C        0.909   0.1057   0.2866     C
H       0.9109   0.0652   0.7811     H
C       0.9203   0.2737   0.7952     C
C        0.922   0.5102   0.1288     C
C       0.9243   0.8932   0.5844     C
C       0.9284   0.0968   0.6634     C
C       0.9325   0.1026   0.4094     C
H       0.9347   0.7691   0.0959     H
C       0.9349   0.1321   0.5217     C
C       0.9364   0.6503   0.1125     C
H       0.9376   0.8657   0.4881     H
H       0.9424   0.9175   0.6692     H
C       0.9432   0.8043   0.2777     C
C       0.9494    0.605   0.8953     C
H       0.9531   0.5124   0.8606     H
O       0.9536   0.1309    0.931     O
H       0.9558   0.1342   0.2546     H
C       0.9702   0.8742    0.513     C
C       0.9734   0.9046   0.6217     C
H       0.9763   0.6859   0.9277     H
C        0.988   0.5327   0.8737     C
H       0.9885   0.0658   0.6513     H
N       0.9899   0.1986   0.7953     N
C       0.9966   0.8769   0.1416     C
K       0.9979   0.9366   0.9544     K
C       0.9981   0.3632    0.086     C
H       0.9987   0.6352   0.0869     H
