data_I
_chemical_name_common  '/home/zhangsd/repos/MofS-CGCNN/ML/data/TSD/clean_cifs/IBABOF_clean'
_cell_length_a 17.96970
_cell_length_b 21.84050
_cell_length_c 12.66660
_cell_angle_alpha 90.00000
_cell_angle_beta  90.00000
_cell_angle_gamma 90.00000
_space_group_name_H-M_alt      'P 1'


loop_
_space_group_symop_operation_xyz
  'x, y, z' 

loop_
_atom_site_label
_atom_site_fract_x
_atom_site_fract_y
_atom_site_fract_z
_atom_site_type_symbol
C       0.0058   0.7408   0.9979     C
N        0.013   0.7689   0.9027     N
H        0.026    0.211    0.396     H
C       0.0306   0.6838     0.13     C
N       0.0402   0.2995   0.6376     N
H        0.049    0.638    0.265     H
N        0.057   0.2603   0.5526     N
N       0.0616    0.708   0.0415     N
H        0.062    0.781    0.886     H
N       0.0645   0.6471    0.198     N
H       0.1063   0.9346   0.6264     H
H       0.1091   0.8109   0.5094     H
H       0.1116    0.643    0.199     H
H        0.116    0.166   0.1989     H
H       0.1174   0.0383   0.5928     H
H       0.1235   0.9156   0.9195     H
H       0.1263   0.1316   0.0264     H
H       0.1266   0.7798   0.3358     H
O       0.1318   0.8271    0.711     O
H        0.132   0.0204   0.8882     H
H       0.1476   0.5136   0.4428     H
H       0.1508   0.6437   0.5488     H
C       0.1525   0.9537    0.631     C
H       0.1531   0.2764   0.8812     H
O       0.1555   0.2041   0.3779     O
H       0.1562   0.4085   0.4718     H
C       0.1568   0.8039   0.4834     C
C       0.1594   0.0156   0.6107     C
C       0.1627   0.1608   0.1687     C
Co      0.1627  0.22967  0.53428    Co
H       0.1627   0.6767   0.7208     H
H       0.1637   0.5297   0.1497     H
O       0.1641     0.81   0.9734     O
C       0.1674   0.7855   0.3798     C
C       0.1686   0.1408   0.0656     C
C       0.1693   0.9354   0.9241     C
H       0.1716   0.3032   0.0578     H
Co     0.17418  0.72165  0.02627    Co
C       0.1742   0.9977    0.905     C
H       0.1746   0.4259   0.1862     H
O        0.175   0.1404    0.572     O
O       0.1773   0.6202   0.3556     O
O       0.1842   0.2524   0.6947     O
O       0.1867   0.1249   0.8311     O
O       0.1916   0.7492   0.1743     O
C       0.1931   0.4936   0.4376     C
C       0.1976   0.6479   0.5791     C
C       0.1987    0.431   0.4558     C
C        0.201   0.2828   0.9069     C
O       0.2018   0.6331    0.083     O
C        0.205   0.6673   0.6817     C
S      0.20725  0.84057  0.67729     S
C       0.2099   0.5105    0.145     C
C        0.212   0.2999   0.0122     C
O       0.2134   0.3091   0.5009     O
C       0.2151   0.9203   0.6582     C
C       0.2162   0.4484   0.1664     C
C       0.2186   0.8115   0.5472     C
C       0.2189   0.1931   0.3409     C
O       0.2209   0.6948   0.8922     O
C       0.2256    0.173   0.2275     C
C       0.2275   0.8354    0.976     C
C       0.2277   0.0441   0.6166     C
O       0.2315   0.3206   0.2406     O
C       0.2336   0.9021   0.9505     C
C       0.2345   0.1114   0.5889     C
C       0.2385   0.7756   0.3415     C
C       0.2393   0.1348   0.0216     C
C       0.2428   0.0251   0.9115     C
S      0.24935   0.1057  0.89188     S
C         0.25   0.2573   0.7273     C
C         0.25   0.7573   0.2273     C
S      0.25065   0.6057  0.39188     S
C       0.2572   0.5251   0.4115     C
C       0.2607   0.6348   0.5216     C
C       0.2615   0.2756   0.8415     C
C       0.2655   0.6114   0.0889     C
C       0.2664   0.4021   0.4505     C
O       0.2685   0.8206   0.7406     O
C       0.2723   0.5441   0.1166     C
C       0.2725   0.3354    0.476     C
C       0.2744    0.673   0.7275     C
O       0.2791   0.1948   0.3922     O
C       0.2811   0.6931   0.8409     C
C       0.2814   0.3115   0.0472     C
C       0.2838   0.9484   0.6664     C
C       0.2849   0.4203   0.1582     C
O       0.2866   0.8091   0.0009     O
C        0.288   0.7999   0.5122     C
C       0.2901   0.0105    0.645     C
S      0.29275  0.34057  0.17729     S
C        0.295   0.1673   0.1817     C
O       0.2982   0.1331    0.583     O
C        0.299   0.7828   0.4069     C
C       0.3013    0.931   0.9558     C
C       0.3024   0.1479   0.0791     C
C       0.3069   0.9936   0.9376     C
O       0.3084   0.2492   0.6743     O
O       0.3133   0.6249   0.3311     O
O       0.3158   0.7524   0.1947     O
O       0.3227   0.1202   0.8556     O
O        0.325   0.6404    0.072     O
H       0.3254   0.9259   0.6862     H
C       0.3258   0.4977    0.405     C
Co     0.32582  0.22165  0.52627    Co
H       0.3284   0.8032   0.5578     H
C       0.3307   0.4354   0.4241     C
C       0.3314   0.6408   0.5656     C
C       0.3326   0.2855   0.8798     C
O       0.3359     0.31   0.4734     O
H       0.3363   0.0297   0.6497     H
H       0.3373   0.1767   0.2208     H
C       0.3373   0.6608   0.6687     C
Co      0.3373  0.72967  0.03428    Co
C       0.3406   0.5156   0.1107     C
C       0.3432   0.3039   0.9834     C
H       0.3438   0.9085   0.9718     H
O       0.3445   0.7041   0.8779     O
H       0.3469   0.7764   0.3812     H
C       0.3475   0.4537    0.131     C
H       0.3492   0.1437   0.0488     H
H       0.3524   0.0136   0.9428     H
H        0.368   0.5204   0.3882     H
O       0.3682   0.3271    0.211     O
H       0.3734   0.2798   0.8358     H
H       0.3737   0.6316   0.5264     H
H       0.3765   0.4156   0.4195     H
H       0.3826   0.5383   0.0928     H
H        0.384    0.666   0.6989     H
H       0.3884    0.143    0.699     H
H       0.3909   0.3109   0.0094     H
H       0.3937   0.4346   0.1264     H
N       0.4355   0.1471    0.698     N
H        0.438    0.281    0.386     H
N       0.4384    0.208   0.5415     N
N        0.443   0.7603   0.0526     N
H        0.451    0.138    0.765     H
N       0.4598   0.7995   0.1376     N
C       0.4694   0.1838     0.63     C
H        0.474    0.711    0.896     H
N        0.487   0.2689   0.4027     N
C       0.4942   0.2408   0.4979     C
C       0.5058   0.7592   0.9979     C
N        0.513   0.7311   0.9027     N
H        0.526    0.289    0.396     H
C       0.5306   0.8162     0.13     C
N       0.5402   0.2005   0.6376     N
H        0.549    0.862    0.265     H
N        0.557   0.2397   0.5526     N
N       0.5616    0.792   0.0415     N
H        0.562    0.719    0.886     H
N       0.5645   0.8529    0.198     N
H       0.6063   0.5654   0.6264     H
H       0.6091   0.6891   0.5094     H
H       0.6116    0.857    0.199     H
H        0.616    0.334   0.1989     H
H       0.6174   0.4617   0.5928     H
H       0.6235   0.5844   0.9195     H
H       0.6263   0.3684   0.0264     H
H       0.6266   0.7202   0.3358     H
O       0.6318   0.6729    0.711     O
H        0.632   0.4796   0.8882     H
H       0.6476   0.9864   0.4428     H
H       0.6508   0.8563   0.5488     H
C       0.6525   0.5463    0.631     C
H       0.6531   0.2236   0.8812     H
O       0.6555   0.2959   0.3779     O
H       0.6562   0.0915   0.4718     H
C       0.6568   0.6961   0.4834     C
C       0.6594   0.4844   0.6107     C
Co      0.6627  0.27033  0.53428    Co
C       0.6627   0.3392   0.1687     C
H       0.6627   0.8233   0.7208     H
H       0.6637   0.9703   0.1497     H
O       0.6641     0.69   0.9734     O
C       0.6674   0.7145   0.3798     C
C       0.6686   0.3592   0.0656     C
C       0.6693   0.5646   0.9241     C
H       0.6716   0.1968   0.0578     H
Co     0.67418  0.77835  0.02627    Co
C       0.6742   0.5023    0.905     C
H       0.6746   0.0741   0.1862     H
O        0.675   0.3596    0.572     O
O       0.6773   0.8798   0.3556     O
O       0.6842   0.2476   0.6947     O
O       0.6867   0.3751   0.8311     O
O       0.6916   0.7508   0.1743     O
C       0.6931   0.0064   0.4376     C
C       0.6976   0.8521   0.5791     C
C       0.6987    0.069   0.4558     C
C        0.701   0.2172   0.9069     C
O       0.7018   0.8669    0.083     O
C        0.705   0.8327   0.6817     C
S      0.70725  0.65943  0.67729     S
C       0.7099   0.9895    0.145     C
C        0.712   0.2001   0.0122     C
O       0.7134   0.1909   0.5009     O
C       0.7151   0.5797   0.6582     C
C       0.7162   0.0516   0.1664     C
C       0.7186   0.6885   0.5472     C
C       0.7189   0.3069   0.3409     C
O       0.7209   0.8052   0.8922     O
C       0.7256    0.327   0.2275     C
C       0.7275   0.6646    0.976     C
C       0.7277   0.4559   0.6166     C
O       0.7315   0.1794   0.2406     O
C       0.7336   0.5979   0.9505     C
C       0.7345   0.3886   0.5889     C
C       0.7385   0.7244   0.3415     C
C       0.7393   0.3652   0.0216     C
C       0.7428   0.4749   0.9115     C
S      0.74935   0.3943  0.89188     S
C         0.75   0.2427   0.7273     C
C         0.75   0.7427   0.2273     C
S      0.75065   0.8943  0.39188     S
C       0.7572   0.9749   0.4115     C
C       0.7607   0.8652   0.5216     C
C       0.7615   0.2244   0.8415     C
C       0.7655   0.8886   0.0889     C
C       0.7664   0.0979   0.4505     C
O       0.7685   0.6794   0.7406     O
C       0.7723   0.9559   0.1166     C
C       0.7725   0.1646    0.476     C
C       0.7744    0.827   0.7275     C
O       0.7791   0.3052   0.3922     O
C       0.7811   0.8069   0.8409     C
C       0.7814   0.1885   0.0472     C
C       0.7838   0.5516   0.6664     C
C       0.7849   0.0797   0.1582     C
O       0.7866   0.6909   0.0009     O
C        0.788   0.7001   0.5122     C
C       0.7901   0.4895    0.645     C
S      0.79275  0.15943  0.17729     S
C        0.795   0.3327   0.1817     C
O       0.7982   0.3669    0.583     O
C        0.799   0.7172   0.4069     C
C       0.8013    0.569   0.9558     C
C       0.8024   0.3521   0.0791     C
C       0.8069   0.5064   0.9376     C
O       0.8084   0.2508   0.6743     O
O       0.8133   0.8751   0.3311     O
O       0.8158   0.7476   0.1947     O
O       0.8227   0.3798   0.8556     O
O        0.825   0.8596    0.072     O
H       0.8254   0.5741   0.6862     H
C       0.8258   0.0023    0.405     C
Co     0.82582  0.27835  0.52627    Co
H       0.8284   0.6968   0.5578     H
C       0.8307   0.0646   0.4241     C
C       0.8314   0.8592   0.5656     C
C       0.8326   0.2145   0.8798     C
O       0.8359     0.19   0.4734     O
H       0.8363   0.4703   0.6497     H
H       0.8373   0.3233   0.2208     H
Co      0.8373  0.77033  0.03428    Co
C       0.8373   0.8392   0.6687     C
C       0.8406   0.9844   0.1107     C
C       0.8432   0.1961   0.9834     C
H       0.8438   0.5915   0.9718     H
O       0.8445   0.7959   0.8779     O
H       0.8469   0.7236   0.3812     H
C       0.8475   0.0463    0.131     C
H       0.8492   0.3563   0.0488     H
H       0.8524   0.4864   0.9428     H
H        0.868   0.9796   0.3882     H
O       0.8682   0.1729    0.211     O
H       0.8734   0.2202   0.8358     H
H       0.8737   0.8684   0.5264     H
H       0.8765   0.0844   0.4195     H
H       0.8826   0.9617   0.0928     H
H        0.884    0.834   0.6989     H
H       0.8884    0.357    0.699     H
H       0.8909   0.1891   0.0094     H
H       0.8937   0.0654   0.1264     H
N       0.9355   0.3529    0.698     N
H        0.938    0.219    0.386     H
N       0.9384    0.292   0.5415     N
N        0.943   0.7397   0.0526     N
H        0.951    0.362    0.765     H
N       0.9598   0.7005   0.1376     N
C       0.9694   0.3162     0.63     C
H        0.974    0.789    0.896     H
N        0.987   0.2311   0.4027     N
C       0.9942   0.2592   0.4979     C
