data_I
_chemical_name_common  '/home/zhangsd/repos/MofS-CGCNN/ML/data/TSD/clean_cifs/IBACAS_clean'
_cell_length_a 18.01560
_cell_length_b 21.75980
_cell_length_c 12.70700
_cell_angle_alpha 90.00000
_cell_angle_beta  90.00000
_cell_angle_gamma 90.00000
_space_group_name_H-M_alt      'P 1'


loop_
_space_group_symop_operation_xyz
  'x, y, z' 

loop_
_atom_site_label
_atom_site_fract_x
_atom_site_fract_y
_atom_site_fract_z
_atom_site_type_symbol
C       0.0032   0.7386   0.0017     C
N       0.0085   0.7705   0.9099     N
H       0.0302   0.2121   0.3838     H
C        0.031   0.6823    0.131     C
N       0.0416   0.3054   0.6374     N
H        0.043   0.6302   0.2511     H
H       0.0504   0.7732    0.878     H
N       0.0596   0.2665   0.5524     N
N       0.0619   0.7088   0.0464     N
N       0.0668   0.6466   0.1996     N
H       0.1032   0.9418   0.6299     H
H       0.1085   0.8022   0.5181     H
H       0.1135   0.6401   0.1923     H
H       0.1136   0.0471   0.5966     H
H       0.1203   0.9238   0.9258     H
H       0.1228   0.1843   0.1965     H
O       0.1242   0.8324   0.7115     O
H       0.1261   0.7701   0.3457     H
H       0.1314   0.0286   0.8997     H
H       0.1322   0.1547   0.0227     H
H        0.148   0.5172   0.4413     H
C       0.1495   0.9606   0.6354     C
H       0.1496   0.6364   0.5631     H
C        0.155    0.024    0.615     C
C       0.1562   0.8012   0.4902     C
H       0.1572   0.2966   0.8837     H
O       0.1581   0.8165   0.9795     O
H       0.1596   0.4104   0.4721     H
O       0.1597   0.2097   0.3833     O
H       0.1616   0.6642   0.7352     H
Co     0.16515  0.23629  0.53861    Co
C       0.1664   0.7824   0.3862     C
C       0.1665   0.9427   0.9304     C
C       0.1691   0.1749   0.1685     C
H       0.1705   0.5343   0.1606     H
Co      0.1726  0.72688  0.03151    Co
O       0.1728   0.6237   0.3624     O
C       0.1734   0.0049   0.9131     C
C       0.1742   0.1568    0.065     C
O       0.1752   0.1483   0.5815     O
H       0.1754   0.3297   0.0518     H
H       0.1814   0.4325   0.1926     H
O        0.186   0.2612   0.6986     O
O         0.19   0.7517   0.1809     O
O       0.1909   0.1343   0.8369     O
C       0.1941   0.4982   0.4386     C
C       0.1963   0.6458   0.5896     C
S       0.1999  0.84617   0.6804     S
C       0.2011   0.4344   0.4577     C
O       0.2013   0.6378   0.0852     O
C       0.2032   0.6634    0.692     C
C       0.2052   0.2987   0.9102     C
C       0.2078   0.9264   0.6624     C
C       0.2133   0.8178   0.5504     C
C       0.2154   0.3174   0.0106     C
C       0.2167   0.5159   0.1531     C
O       0.2172   0.7009    0.896     O
O       0.2197   0.3133   0.5046     O
C       0.2213   0.8413   0.9802     C
C       0.2229   0.4552   0.1726     C
C       0.2236   0.1988   0.3444     C
C       0.2253   0.0511   0.6233     C
C       0.2287   0.9085   0.9546     C
C       0.2306   0.1795   0.2309     C
C       0.2339   0.1179   0.5961     C
C       0.2355   0.7823   0.3451     C
O       0.2398   0.3261   0.2449     O
C       0.2419   0.0319   0.9156     C
C       0.2436   0.1416   0.0253     C
S       0.2476  0.61212   0.3978     S
C       0.2497   0.7631   0.2329     C
C       0.2503   0.2631   0.7329     C
S       0.2524  0.11212   0.8978     S
C       0.2564   0.6416   0.5253     C
C       0.2581   0.5319   0.4156     C
O       0.2602   0.8261   0.7449     O
C       0.2645   0.2823   0.8451     C
C       0.2661   0.6179   0.0961     C
C       0.2694   0.6795   0.7309     C
C       0.2713   0.4085   0.4546     C
C       0.2747   0.5511   0.1233     C
C       0.2764   0.6988   0.8444     C
C       0.2771   0.9552   0.6726     C
C       0.2787   0.3413   0.4802     C
O       0.2803   0.8133   0.0046     O
O       0.2828   0.2009    0.396     O
C       0.2833   0.0159   0.6531     C
C       0.2846   0.8174   0.5106     C
C       0.2867   0.3178   0.0504     C
C       0.2922   0.4264   0.1624     C
C       0.2948   0.7987   0.4102     C
C       0.2968   0.1634    0.192     C
O       0.2987   0.1378   0.5852     O
C       0.2989   0.9344   0.9577     C
S       0.3001  0.34617   0.1804     S
C       0.3037   0.1458   0.0896     C
C       0.3059   0.9982   0.9386     C
O       0.3091   0.6343   0.3369     O
O         0.31   0.2517   0.6809     O
O        0.314   0.7612   0.1986     O
H       0.3186   0.9325   0.6926     H
H       0.3246   0.8297   0.5518     H
O       0.3248   0.6483   0.0815     O
C       0.3258   0.6568    0.565     C
C       0.3266   0.5049   0.4131     C
O       0.3272   0.1237   0.8624     O
Co      0.3274  0.22688  0.53151    Co
H       0.3295   0.0343   0.6606     H
C       0.3309   0.6749   0.6685     C
C       0.3335   0.4427   0.4304     C
C       0.3336   0.2824   0.8862     C
Co     0.33485  0.73629  0.03861    Co
H       0.3384   0.1642   0.2352     H
O       0.3403   0.7097   0.8833     O
H       0.3404   0.9104   0.9721     H
O       0.3419   0.3165   0.4795     O
H       0.3428   0.7966   0.3837     H
C       0.3438   0.3012   0.9902     C
C        0.345    0.524    0.115     C
H       0.3504   0.1364   0.0631     H
C       0.3505   0.4606   0.1354     C
H        0.352   0.0172   0.9413     H
H       0.3678   0.6547   0.5227     H
H       0.3686   0.5286   0.3997     H
H       0.3739   0.2701   0.8457     H
O       0.3758   0.3324   0.2115     O
H       0.3772   0.6843   0.6965     H
H       0.3797   0.4238   0.4258     H
H       0.3864   0.5471   0.0966     H
H       0.3865   0.1401   0.6923     H
H       0.3915   0.3022   0.0181     H
H       0.3968   0.4418   0.1299     H
N       0.4332   0.1466   0.6996     N
N       0.4381   0.2088   0.5464     N
N       0.4404   0.7665   0.0524     N
H       0.4496   0.2732    0.378     H
H        0.457   0.1302   0.7511     H
N       0.4584   0.8054   0.1374     N
C        0.469   0.1823    0.631     C
H       0.4698   0.7121   0.8838     H
N       0.4915   0.2705   0.4099     N
C       0.4968   0.2386   0.5017     C
C       0.5032   0.7614   0.0017     C
N       0.5085   0.7295   0.9099     N
H       0.5302   0.2879   0.3838     H
C        0.531   0.8177    0.131     C
N       0.5416   0.1946   0.6374     N
H        0.543   0.8698   0.2511     H
H       0.5504   0.7268    0.878     H
N       0.5596   0.2335   0.5524     N
N       0.5619   0.7912   0.0464     N
N       0.5668   0.8534   0.1996     N
H       0.6032   0.5582   0.6299     H
H       0.6085   0.6978   0.5181     H
H       0.6135   0.8599   0.1923     H
H       0.6136   0.4529   0.5966     H
H       0.6203   0.5762   0.9258     H
H       0.6228   0.3157   0.1965     H
O       0.6242   0.6676   0.7115     O
H       0.6261   0.7299   0.3457     H
H       0.6314   0.4714   0.8997     H
H       0.6322   0.3453   0.0227     H
H        0.648   0.9828   0.4413     H
C       0.6495   0.5394   0.6354     C
H       0.6496   0.8636   0.5631     H
C        0.655    0.476    0.615     C
C       0.6562   0.6988   0.4902     C
H       0.6572   0.2034   0.8837     H
O       0.6581   0.6835   0.9795     O
H       0.6596   0.0896   0.4721     H
O       0.6597   0.2903   0.3833     O
H       0.6616   0.8358   0.7352     H
Co     0.66515  0.26371  0.53861    Co
C       0.6664   0.7176   0.3862     C
C       0.6665   0.5573   0.9304     C
C       0.6691   0.3251   0.1685     C
H       0.6705   0.9657   0.1606     H
Co      0.6726  0.77312  0.03151    Co
O       0.6728   0.8763   0.3624     O
C       0.6734   0.4951   0.9131     C
C       0.6742   0.3432    0.065     C
O       0.6752   0.3517   0.5815     O
H       0.6754   0.1703   0.0518     H
H       0.6814   0.0675   0.1926     H
O        0.686   0.2388   0.6986     O
O         0.69   0.7483   0.1809     O
O       0.6909   0.3657   0.8369     O
C       0.6941   0.0018   0.4386     C
C       0.6963   0.8542   0.5896     C
S       0.6999  0.65383   0.6804     S
C       0.7011   0.0656   0.4577     C
O       0.7013   0.8622   0.0852     O
C       0.7032   0.8366    0.692     C
C       0.7052   0.2013   0.9102     C
C       0.7078   0.5736   0.6624     C
C       0.7133   0.6822   0.5504     C
C       0.7154   0.1826   0.0106     C
C       0.7167   0.9841   0.1531     C
O       0.7172   0.7991    0.896     O
O       0.7197   0.1867   0.5046     O
C       0.7213   0.6587   0.9802     C
C       0.7229   0.0448   0.1726     C
C       0.7236   0.3012   0.3444     C
C       0.7253   0.4489   0.6233     C
C       0.7287   0.5915   0.9546     C
C       0.7306   0.3205   0.2309     C
C       0.7339   0.3821   0.5961     C
C       0.7355   0.7177   0.3451     C
O       0.7398   0.1739   0.2449     O
C       0.7419   0.4681   0.9156     C
C       0.7436   0.3584   0.0253     C
S       0.7476  0.88788   0.3978     S
C       0.7497   0.7369   0.2329     C
C       0.7503   0.2369   0.7329     C
S       0.7524  0.38788   0.8978     S
C       0.7564   0.8584   0.5253     C
C       0.7581   0.9681   0.4156     C
O       0.7602   0.6739   0.7449     O
C       0.7645   0.2177   0.8451     C
C       0.7661   0.8821   0.0961     C
C       0.7694   0.8205   0.7309     C
C       0.7713   0.0915   0.4546     C
C       0.7747   0.9489   0.1233     C
C       0.7764   0.8012   0.8444     C
C       0.7771   0.5448   0.6726     C
C       0.7787   0.1587   0.4802     C
O       0.7803   0.6867   0.0046     O
O       0.7828   0.2991    0.396     O
C       0.7833   0.4841   0.6531     C
C       0.7846   0.6826   0.5106     C
C       0.7867   0.1822   0.0504     C
C       0.7922   0.0736   0.1624     C
C       0.7948   0.7013   0.4102     C
C       0.7968   0.3366    0.192     C
O       0.7987   0.3622   0.5852     O
C       0.7989   0.5656   0.9577     C
S       0.8001  0.15383   0.1804     S
C       0.8037   0.3542   0.0896     C
C       0.8059   0.5018   0.9386     C
O       0.8091   0.8657   0.3369     O
O         0.81   0.2483   0.6809     O
O        0.814   0.7388   0.1986     O
H       0.8186   0.5675   0.6926     H
H       0.8246   0.6703   0.5518     H
O       0.8248   0.8517   0.0815     O
C       0.8258   0.8432    0.565     C
C       0.8266   0.9951   0.4131     C
O       0.8272   0.3763   0.8624     O
Co      0.8274  0.27312  0.53151    Co
H       0.8295   0.4657   0.6606     H
C       0.8309   0.8251   0.6685     C
C       0.8335   0.0573   0.4304     C
C       0.8336   0.2176   0.8862     C
Co     0.83485  0.76371  0.03861    Co
H       0.8384   0.3358   0.2352     H
O       0.8403   0.7903   0.8833     O
H       0.8404   0.5896   0.9721     H
O       0.8419   0.1835   0.4795     O
H       0.8428   0.7034   0.3837     H
C       0.8438   0.1988   0.9902     C
C        0.845    0.976    0.115     C
H       0.8504   0.3636   0.0631     H
C       0.8505   0.0394   0.1354     C
H        0.852   0.4828   0.9413     H
H       0.8678   0.8453   0.5227     H
H       0.8686   0.9714   0.3997     H
H       0.8739   0.2299   0.8457     H
O       0.8758   0.1676   0.2115     O
H       0.8772   0.8157   0.6965     H
H       0.8797   0.0762   0.4258     H
H       0.8864   0.9529   0.0966     H
H       0.8865   0.3599   0.6923     H
H       0.8915   0.1978   0.0181     H
H       0.8968   0.0582   0.1299     H
N       0.9332   0.3534   0.6996     N
N       0.9381   0.2912   0.5464     N
N       0.9404   0.7335   0.0524     N
H       0.9496   0.2268    0.378     H
H        0.957   0.3698   0.7511     H
N       0.9584   0.6946   0.1374     N
C        0.969   0.3177    0.631     C
H       0.9698   0.7879   0.8838     H
N       0.9915   0.2295   0.4099     N
C       0.9968   0.2614   0.5017     C
