data_I
_chemical_name_common  '/home/zhangsd/repos/MofS-CGCNN/ML/data/TSD/clean_cifs/IBICON_clean'
_cell_length_a 10.48680
_cell_length_b 17.77860
_cell_length_c 17.77860
_cell_angle_alpha 120.00000
_cell_angle_beta  90.00000
_cell_angle_gamma 90.00000
_space_group_name_H-M_alt      'P 1'


loop_
_space_group_symop_operation_xyz
  'x, y, z' 

loop_
_atom_site_label
_atom_site_fract_x
_atom_site_fract_y
_atom_site_fract_z
_atom_site_type_symbol
H       0.0077   0.0701    0.397     H
H       0.0122    0.182   0.7946     H
C       0.0124    0.113   0.5649     C
H      0.01323   0.5137   0.8364     H
C      0.01827   0.7241   0.5674     C
H      0.03157   0.4267   0.3463     H
H       0.0354   0.1533   0.6256     H
H      0.04017   0.5471   0.2731     H
C      0.04713   0.5036   0.7221     C
C      0.05157   0.6531   0.5868     C
C      0.05457   0.5754   0.3346     C
O      0.06133   0.5701   0.0921     O
H       0.0623   0.1963   0.5217     H
C      0.06867   0.8507   0.5595     C
N      0.06977    0.566   0.5066     N
C      0.07213    0.526   0.8049     C
Br     0.07898  0.32053  0.45179    Br
H      0.08847   0.6325   0.3545     H
Zn     0.08943  0.47219  0.54262    Zn
H      0.09207   0.4031   0.2565     H
C      0.10177   0.7901   0.5847     C
C      0.10797   0.4287   0.3176     C
O        0.118   0.9737   0.4888     O
H      0.12397   0.8966    0.573     H
C       0.1288   0.0527   0.5218     C
H      0.12937   0.6688   0.6208     H
N      0.12953   0.5178   0.6725     N
H       0.1363    0.698   0.2211     H
H      0.14213   0.3637   0.7838     H
C      0.14897   0.5227   0.3544     C
H      0.15083   0.6217   0.9731     H
H      0.16433   0.4741   0.9204     H
H      0.17437    0.397   0.3269     H
H      0.17887   0.7946   0.6126     H
C      0.17907   0.5649   0.4519     C
H       0.1799   0.8364   0.3227     H
C      0.18493   0.5674   0.8433     C
H      0.19823   0.3463   0.9196     H
H      0.20207   0.6256   0.4723     H
H      0.20683   0.2731    0.726     H
C       0.2138   0.7221   0.2185     C
C      0.21823   0.5868   0.9337     C
C      0.22123   0.3346   0.7592     C
O        0.228   0.0921    0.522     O
H      0.22897   0.5217   0.3254     H
C      0.23533   0.5595   0.7088     C
N      0.23643   0.5066   0.9406     N
C       0.2388   0.8049   0.2789     C
Br     0.24564  0.45179  0.13126    Br
H      0.25513   0.3545    0.722     H
Zn     0.25609  0.54262  0.07043    Zn
H      0.25873   0.2565   0.8534     H
C      0.26843   0.5847   0.7946     C
C      0.27463   0.3176   0.8889     C
O      0.28467   0.4888   0.5151     O
H      0.29063    0.573   0.6764     H
C      0.29547   0.5218   0.4691     C
H      0.29603   0.6208    0.952     H
N       0.2962   0.6725   0.1547     N
H      0.30297   0.2211   0.5231     H
H       0.3088   0.7838   0.4201     H
C      0.31563   0.3544   0.8317     C
H       0.3175   0.9731   0.3514     H
H        0.331   0.9204   0.4463     H
H      0.34103   0.3269   0.9299     H
H      0.34553   0.6126    0.818     H
C      0.34573   0.4519    0.887     C
H      0.34657   0.3227   0.4863     H
C       0.3516   0.8433   0.2759     C
H       0.3649   0.9196   0.5733     H
H      0.36873   0.4723   0.8467     H
H       0.3735    0.726   0.4529     H
C      0.38047   0.2185   0.4964     C
C       0.3849   0.9337   0.3469     C
C       0.3879   0.7592   0.4246     C
O      0.39467    0.522   0.4299     O
H      0.39563   0.3254   0.8037     H
C        0.402   0.7088   0.1493     C
N       0.4031   0.9406    0.434     N
C      0.40547   0.2789    0.474     C
Br     0.41231  0.13126  0.67947    Br
H       0.4218    0.722   0.3675     H
Zn     0.42276  0.07043  0.52781    Zn
H       0.4254   0.8534   0.5969     H
C       0.4351   0.7946   0.2099     C
C       0.4413   0.8889   0.5713     C
O      0.45133   0.5151   0.0263     O
H       0.4573   0.6764   0.1034     H
C      0.46213   0.4691   0.9473     C
H       0.4627    0.952   0.3312     H
N      0.46287   0.1547   0.4822     N
H      0.46963   0.5231    0.302     H
H      0.47547   0.4201   0.6363     H
C       0.4823   0.8317   0.4773     C
H      0.48417   0.3514   0.3783     H
H      0.49767   0.4463   0.5259     H
H       0.5077   0.9299    0.603     H
H       0.5122    0.818   0.2054     H
C       0.5124    0.887   0.4351     C
H      0.51323   0.4863   0.1636     H
C      0.51827   0.2759   0.4326     C
H      0.53157   0.5733   0.6537     H
H       0.5354   0.8467   0.3744     H
H      0.54017   0.4529   0.7269     H
C      0.54713   0.4964   0.2779     C
C      0.55157   0.3469   0.4132     C
C      0.55457   0.4246   0.6654     C
O      0.56133   0.4299   0.9079     O
H       0.5623   0.8037   0.4783     H
C      0.56867   0.1493   0.4405     C
N      0.56977    0.434   0.4934     N
C      0.57213    0.474   0.1951     C
Br     0.57898  0.67947  0.54821    Br
H      0.58847   0.3675   0.6455     H
Zn     0.58943  0.52781  0.45738    Zn
H      0.59207   0.5969   0.7435     H
C      0.60177   0.2099   0.4153     C
C      0.60797   0.5713   0.6824     C
O        0.618   0.0263   0.5112     O
H      0.62397   0.1034    0.427     H
C       0.6288   0.9473   0.4782     C
H      0.62937   0.3312   0.3792     H
N      0.62953   0.4822   0.3275     N
H       0.6363    0.302   0.7789     H
H      0.64213   0.6363   0.2162     H
C      0.64897   0.4773   0.6456     C
H      0.65083   0.3783   0.0269     H
H      0.66433   0.5259   0.0796     H
H      0.67437    0.603   0.6731     H
H      0.67887   0.2054   0.3874     H
C      0.67907   0.4351   0.5481     C
H       0.6799   0.1636   0.6773     H
C      0.68493   0.4326   0.1567     C
H      0.69823   0.6537   0.0804     H
H      0.70207   0.3744   0.5277     H
H      0.70683   0.7269    0.274     H
C       0.7138   0.2779   0.7815     C
C      0.71823   0.4132   0.0663     C
C      0.72123   0.6654   0.2408     C
O        0.728   0.9079    0.478     O
H      0.72897   0.4783   0.6746     H
C      0.73533   0.4405   0.2912     C
N      0.73643   0.4934   0.0594     N
C       0.7388   0.1951   0.7211     C
Br     0.74564  0.54821  0.86874    Br
H      0.75513   0.6455    0.278     H
Zn     0.75609  0.45738  0.92957    Zn
H      0.75873   0.7435   0.1466     H
C      0.76843   0.4153   0.2054     C
C      0.77463   0.6824   0.1111     C
O      0.78467   0.5112   0.4849     O
H      0.79063    0.427   0.3236     H
C      0.79547   0.4782   0.5309     C
H      0.79603   0.3792    0.048     H
N       0.7962   0.3275   0.8453     N
H      0.80297   0.7789   0.4769     H
H       0.8088   0.2162   0.5799     H
C      0.81563   0.6456   0.1683     C
H       0.8175   0.0269   0.6486     H
H        0.831   0.0796   0.5537     H
H      0.84103   0.6731   0.0701     H
H      0.84553   0.3874    0.182     H
C      0.84573   0.5481    0.113     C
H      0.84657   0.6773   0.5137     H
C       0.8516   0.1567   0.7241     C
H       0.8649   0.0804   0.4267     H
H      0.86873   0.5277   0.1533     H
H       0.8735    0.274   0.5471     H
C      0.88047   0.7815   0.5036     C
C       0.8849   0.0663   0.6531     C
C       0.8879   0.2408   0.5754     C
O      0.89467    0.478   0.5701     O
H      0.89563   0.6746   0.1963     H
C        0.902   0.2912   0.8507     C
N       0.9031   0.0594    0.566     N
C      0.90547   0.7211    0.526     C
Br     0.91231  0.86874  0.32053    Br
H       0.9218    0.278   0.6325     H
Zn     0.92276  0.92957  0.47219    Zn
H       0.9254   0.1466   0.4031     H
C       0.9351   0.2054   0.7901     C
C       0.9413   0.1111   0.4287     C
O      0.95133   0.4849   0.9737     O
H       0.9573   0.3236   0.8966     H
C      0.96213   0.5309   0.0527     C
H       0.9627    0.048   0.6688     H
N      0.96287   0.8453   0.5178     N
H      0.96963   0.4769    0.698     H
H      0.97547   0.5799   0.3637     H
C       0.9823   0.1683   0.5227     C
H      0.98417   0.6486   0.6217     H
H      0.99767   0.5537   0.4741     H
