data_I
_chemical_name_common  '/home/zhangsd/repos/MofS-CGCNN/ML/data/TSD/clean_cifs/IBOZIK_clean'
_cell_length_a 10.01240
_cell_length_b 14.19080
_cell_length_c 21.64820
_cell_angle_alpha 90.00000
_cell_angle_beta  102.26500
_cell_angle_gamma 90.00000
_space_group_name_H-M_alt      'P 1'


loop_
_space_group_symop_operation_xyz
  'x, y, z' 

loop_
_atom_site_label
_atom_site_fract_x
_atom_site_fract_y
_atom_site_fract_z
_atom_site_type_symbol
O       0.0123   0.4112  0.00035     O
O       0.0123   0.5888  0.50035     O
Cu     0.06252  0.33362  0.44015    Cu
Cu     0.06252  0.66638  0.94015    Cu
H       0.0634    0.374    0.975     H
H       0.0634    0.626    0.475     H
H       0.0689   0.3083    0.306     H
H       0.0689   0.6917    0.806     H
H       0.0916   0.3574   0.6542     H
H       0.0916   0.6426   0.1542     H
Cu     0.12532  0.49449  0.55193    Cu
Cu     0.12532  0.50551  0.05193    Cu
C        0.137   0.2666  0.32492     C
C        0.137   0.7334  0.82492     C
O       0.1383   0.3071  0.12414     O
O       0.1383   0.6929  0.62414     O
N       0.1688   0.2618  0.38793     N
N       0.1688   0.7382  0.88793     N
C       0.1714   0.3368   0.6429     C
C       0.1714   0.6632   0.1429     C
H       0.1747   0.2179   0.2429     H
H       0.1747   0.7821   0.7429     H
H       0.1931   0.2226   0.6993     H
H       0.1931   0.7774   0.1993     H
C       0.2001   0.2129  0.28671     C
C       0.2001   0.7871  0.78671     C
N       0.2204   0.3872  0.60113     N
N       0.2204   0.6128  0.10113     N
C       0.2316   0.2561  0.67052     C
C       0.2316   0.7439  0.17052     C
C       0.2489    0.344  0.12265     C
C       0.2489    0.656  0.62265     C
O        0.265  0.42033  0.09353     O
O        0.265  0.57967  0.59353     O
C       0.2696   0.2025  0.41391     C
C       0.2696   0.7975  0.91391     C
H       0.2933   0.1985   0.4578     H
H       0.2933   0.8015   0.9578     H
H       0.3001   0.0508   0.7016     H
H       0.3001   0.9492   0.2016     H
C       0.3027    0.151  0.31473     C
C       0.3027    0.849  0.81473     C
C       0.3382   0.3589   0.5877     C
C       0.3382   0.6411   0.0877     C
C       0.3393   0.1477  0.37956     C
C       0.3393   0.8523  0.87956     C
C       0.3501   0.2257  0.65463     C
C       0.3501   0.7743  0.15463     C
H       0.3508   0.1269   0.7544     H
H       0.3508   0.8731   0.2544     H
H       0.3557   0.2411   0.1771     H
H       0.3557   0.7589   0.6771     H
O       0.3584  0.09781  0.27467     O
O       0.3584  0.90219  0.77467     O
H       0.3763   0.3952   0.5602     H
H       0.3763   0.6048   0.0602     H
C       0.3775   0.0891   0.7217     C
C       0.3775   0.9109   0.2217     C
C       0.3779   0.2976   0.1572     C
C       0.3779   0.7024   0.6572     C
C       0.4056   0.2793   0.6124     C
C       0.4056   0.7207   0.1124     C
H       0.4102   0.1089   0.3997     H
H       0.4102   0.8911   0.8997     H
O       0.4213  0.14794  0.67632     O
O       0.4213  0.85206  0.17632     O
H       0.4266   0.3399   0.1887     H
H       0.4266   0.6601   0.6887     H
H        0.434   0.0063   0.8333     H
H        0.434   0.9937   0.3333     H
H       0.4341   0.2823   0.1278     H
H       0.4341   0.7177   0.6278     H
H       0.4552   0.0681   0.1758     H
H       0.4552   0.9319   0.6758     H
C       0.4648   0.0335  0.30271     C
C       0.4648   0.9665  0.80271     C
H       0.4867   0.2614   0.6012     H
H       0.4867   0.7386   0.1012     H
C          0.5   0.0265     0.75     C
C          0.5   0.9735     0.25     C
H       0.5133   0.2614   0.8988     H
H       0.5133   0.7386   0.3988     H
C       0.5352   0.0335  0.19729     C
C       0.5352   0.9665  0.69729     C
H       0.5448   0.0681   0.3242     H
H       0.5448   0.9319   0.8242     H
H       0.5659   0.2823   0.3722     H
H       0.5659   0.7177   0.8722     H
H        0.566   0.0063   0.6667     H
H        0.566   0.9937   0.1667     H
H       0.5734   0.3399   0.3113     H
H       0.5734   0.6601   0.8113     H
O       0.5787  0.14794  0.82368     O
O       0.5787  0.85206  0.32368     O
H       0.5898   0.1089   0.1003     H
H       0.5898   0.8911   0.6003     H
C       0.5944   0.2793   0.8876     C
C       0.5944   0.7207   0.3876     C
C       0.6221   0.2976   0.3428     C
C       0.6221   0.7024   0.8428     C
C       0.6225   0.0891   0.7783     C
C       0.6225   0.9109   0.2783     C
H       0.6237   0.3952   0.9398     H
H       0.6237   0.6048   0.4398     H
O       0.6416  0.09781  0.22533     O
O       0.6416  0.90219  0.72533     O
H       0.6443   0.2411   0.3229     H
H       0.6443   0.7589   0.8229     H
H       0.6492   0.1269   0.7456     H
H       0.6492   0.8731   0.2456     H
C       0.6499   0.2257  0.84537     C
C       0.6499   0.7743  0.34537     C
C       0.6607   0.1477  0.12044     C
C       0.6607   0.8523  0.62044     C
C       0.6618   0.3589   0.9123     C
C       0.6618   0.6411   0.4123     C
C       0.6973    0.151  0.18527     C
C       0.6973    0.849  0.68527     C
H       0.6999   0.0508   0.7984     H
H       0.6999   0.9492   0.2984     H
H       0.7067   0.1985   0.0422     H
H       0.7067   0.8015   0.5422     H
C       0.7304   0.2025  0.08609     C
C       0.7304   0.7975  0.58609     C
O        0.735  0.42033  0.40647     O
O        0.735  0.57967  0.90647     O
C       0.7511    0.344  0.37735     C
C       0.7511    0.656  0.87735     C
C       0.7684   0.2561  0.82948     C
C       0.7684   0.7439  0.32948     C
N       0.7796   0.3872  0.89887     N
N       0.7796   0.6128  0.39887     N
C       0.7999   0.2129  0.21329     C
C       0.7999   0.7871  0.71329     C
H       0.8069   0.2226   0.8007     H
H       0.8069   0.7774   0.3007     H
H       0.8253   0.2179   0.2571     H
H       0.8253   0.7821   0.7571     H
C       0.8286   0.3368   0.8571     C
C       0.8286   0.6632   0.3571     C
N       0.8312   0.2618  0.11207     N
N       0.8312   0.7382  0.61207     N
O       0.8617   0.3071  0.37586     O
O       0.8617   0.6929  0.87586     O
C        0.863   0.2666  0.17508     C
C        0.863   0.7334  0.67508     C
Cu     0.87468  0.49449  0.94807    Cu
Cu     0.87468  0.50551  0.44807    Cu
H       0.9084   0.3574   0.8458     H
H       0.9084   0.6426   0.3458     H
H       0.9311   0.3083    0.194     H
H       0.9311   0.6917    0.694     H
H       0.9366    0.374    0.525     H
H       0.9366    0.626    0.025     H
Cu     0.93748  0.33362  0.05985    Cu
Cu     0.93748  0.66638  0.55985    Cu
O       0.9877   0.4112  0.49965     O
O       0.9877   0.5888  0.99965     O
