data_I
_chemical_name_common  '/home/zhangsd/repos/MofS-CGCNN/ML/data/TSD/clean_cifs/ICIZOL_clean'
_cell_length_a  9.31600
_cell_length_b 11.91700
_cell_length_c 25.51500
_cell_angle_alpha 90.00000
_cell_angle_beta  94.66300
_cell_angle_gamma 90.00000
_space_group_name_H-M_alt      'P 1'


loop_
_space_group_symop_operation_xyz
  'x, y, z' 

loop_
_atom_site_label
_atom_site_fract_x
_atom_site_fract_y
_atom_site_fract_z
_atom_site_type_symbol
C       0.0004   0.0526   0.9479     C
C       0.0004   0.9474   0.4479     C
C       0.0007   0.2323   0.2827     C
C       0.0007   0.7677   0.7827     C
H       0.0018   0.0218    0.204     H
H       0.0018   0.9782    0.704     H
C       0.0021   0.0475   0.8936     C
C       0.0021   0.9525   0.3936     C
C       0.0219   0.4132   0.9865     C
C       0.0219   0.5868   0.4865     C
C       0.0303   0.4004   0.0441     C
C       0.0303   0.5996   0.5441     C
N       0.0381   0.4019   0.8812     N
N       0.0381   0.5981   0.3812     N
C       0.0386   0.0738   0.2299     C
C       0.0386   0.9262   0.7299     C
C       0.0533   0.3774   0.1541     C
C       0.0533   0.6226   0.6541     C
H       0.0585   0.3702   0.1913     H
H       0.0585   0.6298   0.6913     H
Mn     0.07356  0.39945  0.79405    Mn
Mn     0.07356  0.60055  0.29405    Mn
H       0.0826   0.0786   0.9688     H
H       0.0826   0.9214   0.4688     H
H       0.0827   0.0748   0.8769     H
H       0.0827   0.9252   0.3769     H
C       0.1088   0.4799   0.0757     C
C       0.1088   0.5201   0.5757     C
C       0.1185    0.471   0.1302     C
C       0.1185    0.529   0.6302     C
C       0.1398   0.2254   0.3062     C
C       0.1398   0.7746   0.8062     C
C       0.1399   0.4528   0.9135     C
C       0.1399   0.5472   0.4135     C
N         0.14   0.4538   0.9665     N
N         0.14   0.5462   0.4665     N
H       0.1554   0.4598   0.5597     H
H       0.1554   0.5402   0.0597     H
O       0.1617   0.4309   0.7195     O
O       0.1617   0.5691   0.2195     O
H       0.1703   0.2766   0.3333     H
H       0.1703   0.7234   0.8333     H
C       0.1804   0.0635   0.2515     C
C       0.1804   0.9365   0.7515     C
O       0.2023   0.3283   0.6427     O
O       0.2023   0.6717   0.1427     O
S       0.2206   0.4329  0.66948     S
S       0.2206   0.5671  0.16948     S
C        0.237   0.1439   0.2904     C
C        0.237   0.8561   0.7904     C
H       0.2394   0.0042   0.2407     H
H       0.2394   0.9958   0.7407     H
C       0.2679   0.4972   0.8892     C
C       0.2679   0.5028   0.3892     C
O       0.2714   0.2116   0.9142     O
O       0.2714   0.7884   0.4142     O
N       0.2723   0.4779   0.8371     N
N       0.2723   0.5221   0.3371     N
O       0.3668   0.4762   0.6744     O
O       0.3668   0.5238   0.1744     O
H       0.3681    0.438    0.457     H
H       0.3681    0.562    0.957     H
H        0.377   0.2776    0.222     H
H        0.377   0.7224    0.722     H
C       0.3772   0.4495   0.4206     C
C       0.3772   0.5505   0.9206     C
H       0.3811   0.3122   0.0079     H
H       0.3811   0.6878   0.5079     H
C       0.3824   0.1312   0.3136     C
C       0.3824   0.8688   0.8136     C
C        0.388   0.4851   0.3147     C
C        0.388   0.5149   0.8147     C
H       0.3918   0.4967    0.278     H
H       0.3918   0.5033    0.778     H
H       0.3993   0.3056   0.1333     H
H       0.3993   0.6944   0.6333     H
N       0.3998   0.1395   0.3651     N
N       0.3998   0.8605   0.8651     N
S       0.4174   0.1621  0.92317     S
S       0.4174   0.8379  0.42317     S
O       0.4196    0.067   0.9597     O
O       0.4196    0.933   0.4597     O
C       0.4306   0.2271   0.2023     C
C       0.4306   0.7729   0.7023     C
C       0.4429   0.2413   0.1498     C
C       0.4429   0.7587   0.6498     C
C       0.4747    0.327   0.9974     C
C       0.4747    0.673   0.4974     C
O       0.4813   0.1353   0.8748     O
O       0.4813   0.8647   0.3748     O
C       0.4987   0.4138   0.3979     C
C       0.4987   0.5862   0.8979     C
C       0.5002   0.4322   0.3412     C
C       0.5002   0.5678   0.8412     C
C       0.5042   0.1301   0.2266     C
C       0.5042   0.8699   0.7266     C
C       0.5067   0.1137   0.2847     C
C       0.5067   0.8863   0.7847     C
C       0.5167   0.1663   0.1187     C
C       0.5167   0.8337   0.6187     C
H       0.5189   0.1779   0.0819     H
H       0.5189   0.8221   0.5819     H
H       0.5224   0.4527   0.0505     H
H       0.5224   0.5473   0.5505     H
C       0.5252   0.2659    0.956     C
C       0.5252   0.7341    0.456     C
N       0.5307   0.1147   0.3911     N
N       0.5307   0.8853   0.8911     N
Mn     0.55567  0.08057  0.47874    Mn
Mn     0.55567  0.91943  0.97874    Mn
C       0.5588   0.4092   0.0234     C
C       0.5588   0.5908   0.5234     C
H        0.577   0.3793    0.418     H
H        0.577   0.6207    0.918     H
H       0.5795    0.407   0.3231     H
H       0.5795    0.593   0.8231     H
C       0.5822    0.057   0.1979     C
C       0.5822    0.943   0.6979     C
C       0.5851   0.0763    0.143     C
C       0.5851   0.9237    0.643     C
O       0.6178   0.0091   0.5523     O
O       0.6178   0.9909   0.0523     O
N       0.6288   0.0835   0.3091     N
N       0.6288   0.9165   0.8091     N
H       0.6326   0.0044   0.7145     H
H       0.6326   0.9956   0.2145     H
C       0.6362    0.077   0.3618     C
C       0.6362    0.923   0.8618     C
C       0.6683   0.2821   0.9427     C
C       0.6683   0.7179   0.4427     C
O       0.6838    0.124   0.6279     O
O       0.6838    0.876   0.1279     O
S       0.6873   0.0162  0.60583     S
S       0.6873   0.9838  0.10583     S
C        0.701   0.4265   0.0083     C
C        0.701   0.5735   0.5083     C
H       0.7063   0.2367   0.9166     H
H       0.7063   0.7633   0.4166     H
O       0.7526   0.3309   0.2715     O
O       0.7526   0.6691   0.7715     O
C       0.7541    0.366   0.9685     C
C       0.7541    0.634   0.4685     C
N       0.7587   0.0207   0.4433     N
N       0.7587   0.9793   0.9433     N
H       0.7604   0.4813   0.0262     H
H       0.7604   0.5187   0.5262     H
C       0.7671    0.032   0.3908     C
C       0.7671    0.968   0.8908     C
O       0.8353   0.0243   0.1098     O
O       0.8353   0.9757   0.6098     O
H       0.8564   0.1633   0.2302     H
H       0.8564   0.8367   0.7302     H
C       0.8792   0.0196   0.9712     C
C       0.8792   0.9804   0.4712     C
H       0.8793   0.0252   0.0083     H
H       0.8793   0.9748   0.5083     H
H       0.8823   0.0061   0.3268     H
H       0.8823   0.9939   0.8268     H
C       0.8832   0.0016   0.8638     C
C       0.8832   0.9984   0.3638     C
O       0.8852   0.3366   0.3552     O
O       0.8852   0.6634   0.8552     O
S       0.8898   0.3441  0.30183     S
S       0.8898   0.6559  0.80183     S
C       0.8977   0.3843   0.9519     C
C       0.8977   0.6157   0.4519     C
N       0.9124    0.374   0.9006     N
N       0.9124    0.626   0.4006     N
H       0.9144   0.2542   0.0477     H
H       0.9144   0.7458   0.5477     H
H       0.9457   0.2356   0.1391     H
H       0.9457   0.7644   0.6391     H
C       0.9524   0.1574   0.2456     C
C       0.9524   0.8426   0.7456     C
O       0.9602    0.444   0.2869     O
O       0.9602    0.556   0.7869     O
C       0.9675   0.3089   0.0682     C
C       0.9675   0.6911   0.5682     C
C       0.9844   0.2996   0.1231     C
C       0.9844   0.7004   0.6231     C
