data_I
_chemical_name_common  '/home/zhangsd/repos/MofS-CGCNN/ML/data/TSD/clean_cifs/IGIZAA_clean'
_cell_length_a 15.19900
_cell_length_b 16.95800
_cell_length_c 19.93200
_cell_angle_alpha 90.00000
_cell_angle_beta  90.92700
_cell_angle_gamma 90.00000
_space_group_name_H-M_alt      'P 1'


loop_
_space_group_symop_operation_xyz
  'x, y, z' 

loop_
_atom_site_label
_atom_site_fract_x
_atom_site_fract_y
_atom_site_fract_z
_atom_site_type_symbol
Na      0.0006   0.9816   0.5217    Na
O       0.0014   0.8231   0.4562     O
O       0.0037   0.0814   0.6425     O
Na      0.0047   0.9333   0.5718    Na
Na      0.0169   0.7931   0.7099    Na
Na      0.0209   0.7921   0.0372    Na
O       0.0282    0.344   0.5554     O
W      0.03039  0.78377  0.23231     W
W      0.03391  0.27782  0.46272     W
O       0.0342   0.1266   0.7789     O
O       0.0378   0.2247   0.6604     O
O       0.0392   0.1992   0.4057     O
W      0.04215  0.65224  0.36464     W
P      0.04608  0.15494  0.60972     P
W      0.05098  0.01198  0.74183     W
H       0.0516   0.5451   0.5376     H
O        0.062   0.9302   0.6891     O
O       0.0698   0.6833   0.2766     O
O       0.0739   0.7665   0.1539     O
O       0.0767   0.9859   0.2614     O
O       0.0768   0.3755   0.6743     O
O       0.0809   0.2784   0.7782     O
Na      0.0848   0.4564   0.9148    Na
O       0.0911   0.7231   0.5295     O
C       0.1068   0.5241   0.5473     C
H       0.1135   0.5611   0.6425     H
O       0.1182   0.8365   0.2772     O
O        0.119    0.151   0.2626     O
O       0.1256   0.7138   0.4027     O
H       0.1297   0.4735   0.4545     H
O       0.1401    0.021   0.3875     O
Ru     0.14308  0.40902  0.58699    Ru
C       0.1435   0.5328   0.6101     C
O       0.1438   0.1392   0.5973     O
W      0.14552  0.93935  0.33296     W
O        0.147   0.8784   0.5339     O
O       0.1507   0.2646   0.4936     O
C        0.154   0.4796   0.4973     C
W      0.15448  0.79956  0.47761     W
O       0.1548    0.748   0.6643     O
O       0.1558   0.3411   0.8967     O
O       0.1602   0.4603   0.0218     O
W      0.16303  0.29538  0.70974     W
O       0.1652   0.0522   0.7246     O
O       0.1672   0.7828    0.985     O
O       0.1697    0.864   0.4009     O
H       0.1739   0.9339   0.9174     H
Na      0.1874   0.1557   0.3734    Na
O         0.19    0.673   0.8842     O
Na      0.1962    0.012   0.5064    Na
O       0.1968   0.2983   0.6172     O
Na      0.2035   0.8871   0.6462    Na
O       0.2157   0.2009   0.7203     O
C       0.2282    0.957   0.9266     C
C       0.2318   0.4986    0.626     C
H       0.2334     0.92   0.0204     H
O       0.2345   0.5167    0.882     O
O       0.2355    0.359   0.7473     O
C       0.2365   0.4476   0.5124     C
W      0.24226   0.5961   0.8251     W
H       0.2425    0.005   0.8317     H
O       0.2431   0.6392   0.0123     O
W      0.24858  0.22094  0.54104     W
W      0.25142  0.72094  0.95896     W
O       0.2569   0.1392   0.4877     O
H       0.2575    0.505   0.6683     H
W      0.25774   0.0961   0.6749     W
C       0.2635   0.9476   0.9876     C
O       0.2645    0.859   0.7527     O
O       0.2655   0.0167    0.618     O
H       0.2666     0.42   0.4796     H
C       0.2682   0.9986    0.874     C
C       0.2718    0.457   0.5734     C
O       0.2843   0.7009   0.7797     O
Na      0.2965   0.3871   0.8538    Na
O       0.3032   0.7983   0.8828     O
Na      0.3038    0.512   0.9936    Na
O         0.31    0.173   0.6158     O
Na      0.3126   0.6557   0.1266    Na
H       0.3261   0.4339   0.5826     H
O       0.3303    0.364   0.0991     O
O       0.3328   0.2828    0.515     O
O       0.3348   0.5522   0.7754     O
W      0.33697  0.79538  0.79026     W
O       0.3398   0.9603   0.4782     O
O       0.3442   0.8411   0.6033     O
O       0.3452    0.248   0.8357     O
W      0.34552  0.29956  0.02239     W
C        0.346   0.9796   0.0027     C
O       0.3493   0.7646   0.0064     O
O        0.353   0.3784   0.9661     O
W      0.35448  0.43935  0.16704     W
O       0.3562   0.6392   0.9027     O
C       0.3565   0.0328   0.8899     C
Ru     0.35692  0.90902  0.91301    Ru
O       0.3599    0.521   0.1125     O
H       0.3703   0.9735   0.0455     H
O       0.3744   0.2138   0.0973     O
O        0.381    0.651   0.2374     O
O       0.3818   0.3365   0.2228     O
H       0.3865   0.0611   0.8575     H
C       0.3932   0.0241   0.9527     C
O       0.4089   0.2231   0.9705     O
Na      0.4152   0.9564   0.5852    Na
O       0.4191   0.7784   0.7218     O
O       0.4232   0.8755   0.8257     O
O       0.4233   0.4859   0.2386     O
O       0.4261   0.2665   0.3461     O
O       0.4302   0.1833   0.2234     O
O        0.438   0.4302   0.8109     O
H       0.4484   0.0451   0.9624     H
W      0.44902  0.51198  0.75817     W
P      0.45392  0.65494  0.89028     P
W      0.45785  0.15224  0.13536     W
O       0.4608   0.6992   0.0943     O
O       0.4622   0.7247   0.8396     O
O       0.4658   0.6266   0.7211     O
W      0.46609  0.77782  0.03728     W
W      0.46961  0.28377  0.26769     W
O       0.4718    0.844   0.9446     O
Na      0.4791   0.2921   0.4628    Na
Na      0.4831   0.2931   0.7901    Na
Na      0.4953   0.4333   0.9282    Na
O       0.4963   0.5814   0.8575     O
O       0.4986   0.3231   0.0438     O
Na      0.4994   0.4816   0.9783    Na
Na      0.5006   0.5184   0.0217    Na
O       0.5014   0.6769   0.9562     O
O       0.5037   0.4186   0.1425     O
Na      0.5047   0.5667   0.0718    Na
Na      0.5169   0.7069   0.2099    Na
Na      0.5209   0.7079   0.5372    Na
O       0.5282    0.156   0.0554     O
W      0.53039  0.71623  0.73231     W
W      0.53391  0.22218  0.96272     W
O       0.5342   0.3734   0.2789     O
O       0.5378   0.2753   0.1604     O
O       0.5392   0.3008   0.9057     O
W      0.54215  0.84776  0.86464     W
P      0.54608  0.34506  0.10972     P
W      0.55098  0.48802  0.24183     W
H       0.5516   0.9549   0.0376     H
O        0.562   0.5698   0.1891     O
O       0.5698   0.8167   0.7766     O
O       0.5739   0.7335   0.6539     O
O       0.5767   0.5141   0.7614     O
O       0.5768   0.1245   0.1743     O
O       0.5809   0.2216   0.2782     O
Na      0.5848   0.0436   0.4148    Na
O       0.5911   0.7769   0.0295     O
C       0.6068   0.9759   0.0473     C
H       0.6135   0.9389   0.1425     H
O       0.6182   0.6635   0.7772     O
O        0.619    0.349   0.7626     O
O       0.6256   0.7862   0.9027     O
H       0.6297   0.0265   0.9545     H
O       0.6401    0.479   0.8875     O
Ru     0.64308  0.09098  0.08699    Ru
C       0.6435   0.9672   0.1101     C
O       0.6438   0.3608   0.0973     O
W      0.64552  0.56065  0.83296     W
O        0.647   0.6216   0.0339     O
O       0.6507   0.2354   0.9936     O
C        0.654   0.0204   0.9973     C
W      0.65448  0.70044  0.97761     W
O       0.6548    0.752   0.1643     O
O       0.6558   0.1589   0.3967     O
O       0.6602   0.0397   0.5218     O
W      0.66303  0.20462  0.20974     W
O       0.6652   0.4478   0.2246     O
O       0.6672   0.7172    0.485     O
O       0.6697    0.636   0.9009     O
H       0.6739   0.5661   0.4174     H
Na      0.6874   0.3443   0.8734    Na
O         0.69    0.827   0.3842     O
Na      0.6962    0.488   0.0064    Na
O       0.6968   0.2017   0.1172     O
Na      0.7035   0.6129   0.1462    Na
O       0.7157   0.2991   0.2203     O
C       0.7282    0.543   0.4266     C
C       0.7318   0.0014    0.126     C
H       0.7334     0.58   0.5204     H
O       0.7345   0.9833    0.382     O
O       0.7355    0.141   0.2473     O
C       0.7365   0.0524   0.0124     C
W      0.74226   0.9039   0.3251     W
H       0.7425    0.495   0.3317     H
O       0.7431   0.8608   0.5123     O
W      0.74858  0.27906  0.04104     W
W      0.75142  0.77906  0.45896     W
O       0.7569   0.3608   0.9877     O
H       0.7575    0.995   0.1683     H
W      0.75774   0.4039   0.1749     W
C       0.7635   0.5524   0.4876     C
O       0.7645    0.641   0.2527     O
O       0.7655   0.4833    0.118     O
H       0.7666     0.08   0.9796     H
C       0.7682   0.5014    0.374     C
C       0.7718    0.043   0.0734     C
O       0.7843   0.7991   0.2797     O
Na      0.7965   0.1129   0.3538    Na
O       0.8032   0.7017   0.3828     O
Na      0.8038    0.988   0.4936    Na
O         0.81    0.327   0.1158     O
Na      0.8126   0.8443   0.6266    Na
H       0.8261   0.0661   0.0826     H
O       0.8303    0.136   0.5991     O
O       0.8328   0.2172    0.015     O
O       0.8348   0.9478   0.2754     O
W      0.83697  0.70462  0.29026     W
O       0.8398   0.5397   0.9782     O
O       0.8442   0.6589   0.1033     O
O       0.8452    0.252   0.3357     O
W      0.84552  0.20044  0.52239     W
C        0.846   0.5204   0.5027     C
O       0.8493   0.7354   0.5064     O
O        0.853   0.1216   0.4661     O
W      0.85448  0.06065  0.66704     W
O       0.8562   0.8608   0.4027     O
C       0.8565   0.4672   0.3899     C
Ru     0.85692  0.59098  0.41301    Ru
O       0.8599    0.979   0.6125     O
H       0.8703   0.5265   0.5455     H
O       0.8744   0.2862   0.5973     O
O        0.881    0.849   0.7374     O
O       0.8818   0.1635   0.7228     O
H       0.8865   0.4389   0.3575     H
C       0.8932   0.4759   0.4527     C
O       0.9089   0.2769   0.4705     O
Na      0.9152   0.5436   0.0852    Na
O       0.9191   0.7216   0.2218     O
O       0.9232   0.6245   0.3257     O
O       0.9233   0.0141   0.7386     O
O       0.9261   0.2335   0.8461     O
O       0.9302   0.3167   0.7234     O
O        0.938   0.0698   0.3109     O
H       0.9484   0.4549   0.4624     H
W      0.94902  0.98802  0.25817     W
P      0.95392  0.84506  0.39028     P
W      0.95785  0.34776  0.63536     W
O       0.9608   0.8008   0.5943     O
O       0.9622   0.7753   0.3396     O
O       0.9658   0.8734   0.2211     O
W      0.96609  0.72218  0.53728     W
W      0.96961  0.21623  0.76769     W
O       0.9718    0.656   0.4446     O
Na      0.9791   0.2079   0.9628    Na
Na      0.9831   0.2069   0.2901    Na
Na      0.9953   0.0667   0.4282    Na
O       0.9963   0.9186   0.3575     O
O       0.9986   0.1769   0.5438     O
Na      0.9994   0.0184   0.4783    Na
