data_I
_chemical_name_common  '/home/zhangsd/repos/MofS-CGCNN/ML/data/TSD/clean_cifs/IGIZEF_clean'
_cell_length_a 22.55610
_cell_length_b 17.43680
_cell_length_c 10.19950
_cell_angle_alpha 90.00000
_cell_angle_beta  109.40200
_cell_angle_gamma 90.00000
_space_group_name_H-M_alt      'P 1'


loop_
_space_group_symop_operation_xyz
  'x, y, z' 

loop_
_atom_site_label
_atom_site_fract_x
_atom_site_fract_y
_atom_site_fract_z
_atom_site_type_symbol
Sr         0.0  0.48615     0.25    Sr
Sr         0.0  0.51385     0.75    Sr
P      0.02342    0.344  0.54018     P
P      0.02342    0.656  0.04018     P
O      0.04203  0.39442   0.6671     O
O      0.04203  0.60558   0.1671     O
O      0.04332  0.37111   0.4211     O
O      0.04332  0.62889   0.9211     O
O       0.0507  0.26021   0.5852     O
O       0.0507  0.73979   0.0852     O
C      0.06128  0.32587   0.0156     C
C      0.06128  0.67413   0.5156     C
H       0.0655   0.3245    0.834     H
H       0.0655   0.6755    0.334     H
O      0.07597  0.29405   0.8989     O
O      0.07597  0.70595   0.3989     O
C      0.07783  0.26612   0.1323     C
C      0.07783  0.73388   0.6323     C
H       0.0855   0.2565   0.5766     H
H       0.0855   0.7435   0.0766     H
O      0.09407  0.47218   0.9673     O
O      0.09407  0.52782   0.4673     O
C      0.09789  0.12302   0.3677     C
C      0.09789  0.87698   0.8677     C
O      0.10113  0.43312   0.2158     O
O      0.10113  0.56688   0.7158     O
P      0.10911   0.4127  0.07917     P
P      0.10911   0.5873  0.57917     P
O      0.14908  0.02083   0.0515     O
O      0.14908  0.97917   0.5515     O
H       0.1603   0.0048   0.1316     H
H       0.1603   0.9952   0.6316     H
Sr     0.16172   0.3973  0.47101    Sr
Sr     0.16172   0.6027  0.97101    Sr
O      0.16331  0.25586   0.5526     O
O      0.16331  0.74414   0.0526     O
O      0.16537  0.14785   0.7082     O
O      0.16537  0.85215   0.2082     O
C      0.16867   0.1168   0.4439     C
C      0.16867   0.8832   0.9439     C
O      0.17254  0.02035   0.8297     O
O      0.17254  0.97965   0.3297     O
H       0.1768   0.1035   0.7281     H
H       0.1768   0.8965   0.2281     H
O      0.17846  0.38421    0.104     O
O      0.17846  0.61579    0.604     O
P       0.1919  0.01526  0.47234     P
P       0.1919  0.98474  0.97234     P
H       0.1927   0.3649   0.1815     H
H       0.1927   0.6351   0.6815     H
P      0.19428  0.17905  0.59832     P
P      0.19428  0.82095  0.09832     P
O      0.20536  0.14282   0.3579     O
O      0.20536  0.85718   0.8579     O
H       0.2135     0.19    0.356     H
H       0.2135     0.81    0.856     H
O      0.23478  0.31959   0.3471     O
O      0.23478  0.68041   0.8471     O
O      0.24027  0.48863   0.4404     O
O      0.24027  0.51137   0.9404     O
O      0.25973  0.01137   0.5596     O
O      0.25973  0.98863   0.0596     O
O      0.26522  0.18041   0.6529     O
O      0.26522  0.81959   0.1529     O
H       0.2865     0.31    0.644     H
H       0.2865     0.69    0.144     H
O      0.29464  0.35718   0.6421     O
O      0.29464  0.64282   0.1421     O
P      0.30572  0.32095  0.40168     P
P      0.30572  0.67905  0.90168     P
H       0.3073   0.1351   0.8185     H
H       0.3073   0.8649   0.3185     H
P       0.3081  0.48474  0.52766     P
P       0.3081  0.51526  0.02766     P
O      0.32154  0.11579    0.896     O
O      0.32154  0.88421    0.396     O
H       0.3232   0.3965   0.2719     H
H       0.3232   0.6035   0.7719     H
O      0.32746  0.47965   0.1703     O
O      0.32746  0.52035   0.6703     O
C      0.33133   0.3832   0.5561     C
C      0.33133   0.6168   0.0561     C
O      0.33463  0.35215   0.2918     O
O      0.33463  0.64785   0.7918     O
O      0.33669  0.24414   0.4474     O
O      0.33669  0.75586   0.9474     O
Sr     0.33828   0.1027  0.52899    Sr
Sr     0.33828   0.8973  0.02899    Sr
H       0.3397   0.4952   0.8684     H
H       0.3397   0.5048   0.3684     H
O      0.35092  0.47917   0.9485     O
O      0.35092  0.52083   0.4485     O
P      0.39089   0.0873  0.92083     P
P      0.39089   0.9127  0.42083     P
O      0.39887  0.06688   0.7842     O
O      0.39887  0.93312   0.2842     O
C      0.40211  0.37698   0.6323     C
C      0.40211  0.62302   0.1323     C
O      0.40593  0.02782   0.0327     O
O      0.40593  0.97218   0.5327     O
H       0.4145   0.2435   0.4234     H
H       0.4145   0.7565   0.9234     H
C      0.42217  0.23388   0.8677     C
C      0.42217  0.76612   0.3677     C
O      0.42403  0.20595   0.1011     O
O      0.42403  0.79405   0.6011     O
H       0.4345   0.1755    0.166     H
H       0.4345   0.8245    0.666     H
C      0.43872  0.17413   0.9844     C
C      0.43872  0.82587   0.4844     C
O       0.4493  0.23979   0.4148     O
O       0.4493  0.76021   0.9148     O
O      0.45668  0.12889   0.5789     O
O      0.45668  0.87111   0.0789     O
O      0.45797  0.10558   0.3329     O
O      0.45797  0.89442   0.8329     O
P      0.47658    0.156  0.45982     P
P      0.47658    0.844  0.95982     P
Sr         0.5  0.01385     0.75    Sr
Sr         0.5  0.98615     0.25    Sr
P      0.52342    0.156  0.04018     P
P      0.52342    0.844  0.54018     P
O      0.54203  0.10558   0.1671     O
O      0.54203  0.89442   0.6671     O
O      0.54332  0.12889   0.9211     O
O      0.54332  0.87111   0.4211     O
O       0.5507  0.23979   0.0852     O
O       0.5507  0.76021   0.5852     O
C      0.56128  0.17413   0.5156     C
C      0.56128  0.82587   0.0156     C
H       0.5655   0.1755    0.334     H
H       0.5655   0.8245    0.834     H
O      0.57597  0.20595   0.3989     O
O      0.57597  0.79405   0.8989     O
C      0.57783  0.23388   0.6323     C
C      0.57783  0.76612   0.1323     C
H       0.5855   0.2435   0.0766     H
H       0.5855   0.7565   0.5766     H
O      0.59407  0.02782   0.4673     O
O      0.59407  0.97218   0.9673     O
C      0.59789  0.37698   0.8677     C
C      0.59789  0.62302   0.3677     C
O      0.60113  0.06688   0.7158     O
O      0.60113  0.93312   0.2158     O
P      0.60911   0.0873  0.57917     P
P      0.60911   0.9127  0.07917     P
O      0.64908  0.47917   0.5515     O
O      0.64908  0.52083   0.0515     O
H       0.6603   0.4952   0.6316     H
H       0.6603   0.5048   0.1316     H
Sr     0.66172   0.1027  0.97101    Sr
Sr     0.66172   0.8973  0.47101    Sr
O      0.66331  0.24414   0.0526     O
O      0.66331  0.75586   0.5526     O
O      0.66537  0.35215   0.2082     O
O      0.66537  0.64785   0.7082     O
C      0.66867   0.3832   0.9439     C
C      0.66867   0.6168   0.4439     C
O      0.67254  0.47965   0.3297     O
O      0.67254  0.52035   0.8297     O
H       0.6768   0.3965   0.2281     H
H       0.6768   0.6035   0.7281     H
O      0.67846  0.11579    0.604     O
O      0.67846  0.88421    0.104     O
P       0.6919  0.48474  0.97234     P
P       0.6919  0.51526  0.47234     P
H       0.6927   0.1351   0.6815     H
H       0.6927   0.8649   0.1815     H
P      0.69428  0.32095  0.09832     P
P      0.69428  0.67905  0.59832     P
O      0.70536  0.35718   0.8579     O
O      0.70536  0.64282   0.3579     O
H       0.7135     0.31    0.856     H
H       0.7135     0.69    0.356     H
O      0.73478  0.18041   0.8471     O
O      0.73478  0.81959   0.3471     O
O      0.74027  0.01137   0.9404     O
O      0.74027  0.98863   0.4404     O
O      0.75973  0.48863   0.0596     O
O      0.75973  0.51137   0.5596     O
O      0.76522  0.31959   0.1529     O
O      0.76522  0.68041   0.6529     O
H       0.7865     0.19    0.144     H
H       0.7865     0.81    0.644     H
O      0.79464  0.14282   0.1421     O
O      0.79464  0.85718   0.6421     O
P      0.80572  0.17905  0.90168     P
P      0.80572  0.82095  0.40168     P
H       0.8073   0.3649   0.3185     H
H       0.8073   0.6351   0.8185     H
P       0.8081  0.01526  0.02766     P
P       0.8081  0.98474  0.52766     P
O      0.82154  0.38421    0.396     O
O      0.82154  0.61579    0.896     O
H       0.8232   0.1035   0.7719     H
H       0.8232   0.8965   0.2719     H
O      0.82746  0.02035   0.6703     O
O      0.82746  0.97965   0.1703     O
C      0.83133   0.1168   0.0561     C
C      0.83133   0.8832   0.5561     C
O      0.83463  0.14785   0.7918     O
O      0.83463  0.85215   0.2918     O
O      0.83669  0.25586   0.9474     O
O      0.83669  0.74414   0.4474     O
Sr     0.83828   0.3973  0.02899    Sr
Sr     0.83828   0.6027  0.52899    Sr
H       0.8397   0.0048   0.3684     H
H       0.8397   0.9952   0.8684     H
O      0.85092  0.02083   0.4485     O
O      0.85092  0.97917   0.9485     O
P      0.89089   0.4127  0.42083     P
P      0.89089   0.5873  0.92083     P
O      0.89887  0.43312   0.2842     O
O      0.89887  0.56688   0.7842     O
C      0.90211  0.12302   0.1323     C
C      0.90211  0.87698   0.6323     C
O      0.90593  0.47218   0.5327     O
O      0.90593  0.52782   0.0327     O
H       0.9145   0.2565   0.9234     H
H       0.9145   0.7435   0.4234     H
C      0.92217  0.26612   0.3677     C
C      0.92217  0.73388   0.8677     C
O      0.92403  0.29405   0.6011     O
O      0.92403  0.70595   0.1011     O
H       0.9345   0.3245    0.666     H
H       0.9345   0.6755    0.166     H
C      0.93872  0.32587   0.4844     C
C      0.93872  0.67413   0.9844     C
O       0.9493  0.26021   0.9148     O
O       0.9493  0.73979   0.4148     O
O      0.95668  0.37111   0.0789     O
O      0.95668  0.62889   0.5789     O
O      0.95797  0.39442   0.8329     O
O      0.95797  0.60558   0.3329     O
P      0.97658    0.344  0.95982     P
P      0.97658    0.656  0.45982     P
