data_I
_chemical_name_common  '/home/zhangsd/repos/MofS-CGCNN/ML/data/TSD/clean_cifs/IGUTEK_clean'
_cell_length_a 13.54200
_cell_length_b 13.54200
_cell_length_c 15.19200
_cell_angle_alpha 90.00000
_cell_angle_beta  90.00000
_cell_angle_gamma 120.00000
_space_group_name_H-M_alt      'P 1'


loop_
_space_group_symop_operation_xyz
  'x, y, z' 

loop_
_atom_site_label
_atom_site_fract_x
_atom_site_fract_y
_atom_site_fract_z
_atom_site_type_symbol
P       0.0001  0.23329  0.10023     P
O       0.0003   0.7264   0.0008     O
Al     0.00057  0.76715  0.10044    Al
O      0.00107  0.34843  0.50023     O
O      0.01403  0.33227  0.83357     O
O       0.0151   0.6807   0.8331     O
O      0.05943  0.66637  0.66747     O
O      0.05973  0.39277  0.66587     O
O      0.09213  0.54667  0.79037     O
Al     0.09991   0.6661  0.76711    Al
P      0.10004  0.43348   0.7669     P
Si     0.10014  0.66677  0.56644    Si
Al     0.10048  0.43325  0.56623    Al
O       0.1016   0.2053   0.8867     O
O       0.1037   0.8984   0.8867     O
O         0.12   0.8788   0.1237     O
O       0.1212   0.2412   0.1237     O
O      0.12803  0.56297  0.55337     O
O       0.2053   0.1037   0.1133     O
O      0.21213  0.42547  0.54297     O
O      0.21333  0.78787  0.54297     O
O      0.22963  0.76827  0.77997     O
O      0.23173  0.46137  0.77997     O
Al     0.23285  0.23342  0.10044    Al
Si     0.23319   0.9999  0.10023    Si
P      0.23329  0.23319  0.89977     P
Al     0.23342  0.00057  0.89956    Al
O       0.2412     0.12   0.8763     O
O       0.2736   0.2739   0.0008     O
O       0.2739   0.0003   0.9992     O
O      0.31823  0.98597  0.83357     O
O       0.3193   0.3344   0.8331     O
O      0.33227  0.31823  0.16643     O
Al     0.33276  0.89952  0.56623    Al
O      0.33303  0.94027  0.66587     O
P      0.33323  0.43338  0.56644     P
P      0.33343  0.89996   0.7669     P
O      0.33363  0.39307  0.66747     O
Al      0.3339  0.43382  0.76711    Al
O       0.3344   0.0151   0.1669     O
O      0.34737  0.99893  0.50023     O
O      0.34843  0.34737  0.49977     O
O      0.39277  0.33303  0.33413     O
O      0.39307  0.05943  0.33253     O
O      0.42547  0.21333  0.45703     O
Al     0.43325  0.33276  0.43377    Al
P      0.43338  0.10014  0.43356     P
Si     0.43348  0.33343   0.2331    Si
Al     0.43382  0.09991  0.23289    Al
O      0.43493  0.87197  0.55337     O
O      0.43703  0.56507  0.55337     O
O      0.45333  0.54547  0.79037     O
O      0.45453  0.90787  0.79037     O
O      0.46137  0.22963  0.22003     O
O      0.53863  0.77037  0.77997     O
O      0.54547  0.09213  0.20963     O
O      0.54667  0.45453  0.20963     O
O      0.56297  0.43493  0.44663     O
O      0.56507  0.12803  0.44663     O
Al     0.56618  0.90009  0.76711    Al
Si     0.56652  0.66657   0.7669    Si
P      0.56662  0.89986  0.56644     P
Al     0.56675  0.66724  0.56623    Al
O      0.57453  0.78667  0.54297     O
O      0.60693  0.94057  0.66747     O
O      0.60723  0.66697  0.66587     O
O      0.65157  0.65263  0.50023     O
O      0.65263  0.00107  0.49977     O
O       0.6656   0.9849   0.8331     O
Al      0.6661  0.56618  0.23289    Al
O      0.66637  0.60693  0.33253     O
P      0.66657  0.10004   0.2331     P
P      0.66677  0.56662  0.43356     P
O      0.66697  0.05973  0.33413     O
Al     0.66724  0.10048  0.43377    Al
O      0.66773  0.68177  0.83357     O
O       0.6807   0.6656   0.1669     O
O      0.68177  0.01403  0.16643     O
O       0.7261   0.9997   0.0008     O
O       0.7264   0.7261   0.9992     O
O       0.7588     0.88   0.1237     O
Al     0.76658  0.99943  0.10044    Al
P      0.76671  0.76681  0.10023     P
Si     0.76681   0.0001  0.89977    Si
Al     0.76715  0.76658  0.89956    Al
O      0.76827  0.53863  0.22003     O
O      0.77037  0.23173  0.22003     O
O      0.78667  0.21213  0.45703     O
O      0.78787  0.57453  0.45703     O
O       0.7947   0.8963   0.8867     O
O      0.87197  0.43703  0.44663     O
O       0.8788   0.7588   0.8763     O
O         0.88   0.1212   0.8763     O
O       0.8963   0.1016   0.1133     O
O       0.8984   0.7947   0.1133     O
Al     0.89952  0.56675  0.43377    Al
Si     0.89986  0.33323  0.43356    Si
P      0.89996  0.56652   0.2331     P
Al     0.90009   0.3339  0.23289    Al
O      0.90787  0.45333  0.20963     O
O      0.94027  0.60723  0.33413     O
O      0.94057  0.33363  0.33253     O
O       0.9849   0.3193   0.1669     O
O      0.98597  0.66773  0.16643     O
O      0.99893  0.65157  0.49977     O
Al     0.99943  0.23285  0.89956    Al
O       0.9997   0.2736   0.9992     O
P       0.9999  0.76671  0.89977     P
