data_I
_chemical_name_common  '/home/zhangsd/repos/MofS-CGCNN/ML/data/TSD/clean_cifs/IGUVIR_clean'
_cell_length_a  9.72700
_cell_length_b 17.02040
_cell_length_c 15.29590
_cell_angle_alpha 90.00000
_cell_angle_beta  96.84770
_cell_angle_gamma 90.00000
_space_group_name_H-M_alt      'P 1'


loop_
_space_group_symop_operation_xyz
  'x, y, z' 

loop_
_atom_site_label
_atom_site_fract_x
_atom_site_fract_y
_atom_site_fract_z
_atom_site_type_symbol
N       0.0034  0.66606  0.45165     N
N       0.0034  0.83394  0.95165     N
C       0.0133  0.17459   0.1357     C
C       0.0133  0.32541   0.6357     C
H       0.0436    0.731   0.2572     H
H       0.0436    0.769   0.7572     H
C       0.0595  0.72767   0.3196     C
C       0.0595  0.77233   0.8196     C
O       0.0687  0.53398  0.59884     O
O       0.0687  0.96602  0.09884     O
H       0.0793   0.1421   0.1692     H
H       0.0793   0.3579   0.6692     H
H       0.0822   0.6307   0.7285     H
H       0.0822   0.8693   0.2285     H
C        0.098   0.7131   0.4977     C
C        0.098   0.7869   0.9977     C
H       0.1121   0.7083     0.56     H
H       0.1121   0.7917     0.06     H
Cd     0.13314  0.08026  0.98068    Cd
Cd     0.13314  0.41974  0.48068    Cd
H       0.1406   0.0059   0.7931     H
H       0.1406   0.4941   0.2931     H
O       0.1545  0.16152  0.85265     O
O       0.1545  0.33848  0.35265     O
C       0.1565  0.72364    0.867     C
C       0.1565  0.77636    0.367     C
C       0.1742   0.7327   0.9583     C
C       0.1742   0.7673   0.4583     C
C       0.1768  0.62247  0.74995     C
C       0.1768  0.87753  0.24995     C
C       0.1862  0.51733  0.63401     C
C       0.1862  0.98267  0.13401     C
C       0.2154   0.5237    0.322     C
C       0.2154   0.9763    0.822     C
H       0.2264   0.2358   0.7237     H
H       0.2264   0.2642   0.2237     H
C       0.2375  0.66626   0.8219     C
C       0.2375  0.83374   0.3219     C
H       0.2396    0.701   0.9933     H
H       0.2396    0.799   0.4933     H
N       0.2445  0.51573  0.40926     N
N       0.2445  0.98427  0.90926     N
C       0.2531  0.56705  0.70943     C
C       0.2531  0.93295  0.20943     C
O       0.2554   0.0389  0.11007     O
O       0.2554   0.4611  0.61007     O
H       0.2621   0.5748   0.2096     H
H       0.2621   0.9252   0.7096     H
C       0.2709   0.1846  0.88847     C
C       0.2709   0.3154  0.38847     C
C       0.2869  0.57218   0.2715     C
C       0.2869  0.92782   0.7715     C
C       0.3133   0.2452   0.2503     C
C       0.3133   0.2548   0.7503     C
O       0.3162  0.16776  0.96718     O
O       0.3162  0.33224  0.46718     O
H       0.3427   0.6757   0.1488     H
H       0.3427   0.8243   0.6488     H
C       0.3498   0.5599  0.44801     C
C       0.3498   0.9401  0.94801     C
H       0.3561   0.1831   0.1441     H
H       0.3561   0.3169   0.6441     H
C       0.3592   0.2338   0.8365     C
C       0.3592   0.2662   0.3365     C
H       0.3727   0.5558     0.51     H
H       0.3727   0.9442     0.01     H
C       0.3785   0.6545   0.8511     C
C       0.3785   0.8455   0.3511     C
C        0.391   0.1974   0.2026     C
C        0.391   0.3026   0.7026     C
C       0.3936   0.5559   0.7392     C
C       0.3936   0.9441   0.2392     C
C       0.3966   0.6176  0.31185     C
C       0.3966   0.8824  0.81185     C
H       0.4215   0.6838   0.8997     H
H       0.4215   0.8162   0.3997     H
C       0.4252     0.61  0.40286     C
C       0.4252     0.89  0.90286     C
C       0.4312   0.6928   0.1749     C
C       0.4312   0.8072   0.6749     C
H       0.4461   0.5181   0.7117     H
H       0.4461   0.9819   0.2117     H
H       0.4485   0.0938   0.6712     H
H       0.4485   0.4062   0.1712     H
C       0.4558   0.6004   0.8093     C
C       0.4558   0.8996   0.3093     C
H       0.4752   0.7443    0.569     H
H       0.4752   0.7557    0.069     H
C       0.4793  0.66963  0.26071     C
C       0.4793  0.83037  0.76071     C
C       0.4898   0.2404   0.3728     C
C       0.4898   0.2596   0.8728     C
H       0.4977     0.64   0.4338     H
H       0.4977     0.86   0.9338     H
H       0.5023     0.14   0.0662     H
H       0.5023     0.36   0.5662     H
C       0.5102   0.7404   0.1272     C
C       0.5102   0.7596   0.6272     C
C       0.5207  0.16963  0.23929     C
C       0.5207  0.33037  0.73929     C
H       0.5248   0.2443    0.931     H
H       0.5248   0.2557    0.431     H
C       0.5442   0.1004   0.6907     C
C       0.5442   0.3996   0.1907     C
H       0.5515   0.5938   0.8288     H
H       0.5515   0.9062   0.3288     H
H       0.5539   0.0181   0.7883     H
H       0.5539   0.4819   0.2883     H
C       0.5688   0.1928   0.3251     C
C       0.5688   0.3072   0.8251     C
C       0.5748     0.11  0.09714     C
C       0.5748     0.39  0.59714     C
H       0.5785   0.1838   0.6003     H
H       0.5785   0.3162   0.1003     H
C       0.6034   0.1176  0.18815     C
C       0.6034   0.3824  0.68815     C
C       0.6064   0.0559   0.7608     C
C       0.6064   0.4441   0.2608     C
C        0.609   0.6974   0.2974     C
C        0.609   0.8026   0.7974     C
C       0.6215   0.1545   0.6489     C
C       0.6215   0.3455   0.1489     C
H       0.6273   0.0558     0.99     H
H       0.6273   0.4442     0.49     H
C       0.6408   0.7338   0.6635     C
C       0.6408   0.7662   0.1635     C
H       0.6439   0.6831   0.3559     H
H       0.6439   0.8169   0.8559     H
C       0.6502   0.0599  0.05199     C
C       0.6502   0.4401  0.55199     C
H       0.6573   0.1757   0.3512     H
H       0.6573   0.3243   0.8512     H
O       0.6838  0.66776  0.53282     O
O       0.6838  0.83224  0.03282     O
C       0.6867   0.7452   0.2497     C
C       0.6867   0.7548   0.7497     C
C       0.7131  0.07218   0.2285     C
C       0.7131  0.42782   0.7285     C
C       0.7291   0.6846  0.61153     C
C       0.7291   0.8154  0.11153     C
H       0.7379   0.0748   0.2904     H
H       0.7379   0.4252   0.7904     H
O       0.7446   0.5389  0.38993     O
O       0.7446   0.9611  0.88993     O
C       0.7469  0.06705  0.79057     C
C       0.7469  0.43295  0.29057     C
N       0.7555  0.01573  0.09074     N
N       0.7555  0.48427  0.59074     N
H       0.7604    0.201   0.5067     H
H       0.7604    0.299   0.0067     H
C       0.7625  0.16626   0.6781     C
C       0.7625  0.33374   0.1781     C
H       0.7736   0.7358   0.7763     H
H       0.7736   0.7642   0.2763     H
C       0.7846   0.0237    0.178     C
C       0.7846   0.4763    0.678     C
C       0.8138  0.01733  0.86599     C
C       0.8138  0.48267  0.36599     C
C       0.8232  0.12247  0.75005     C
C       0.8232  0.37753  0.25005     C
C       0.8258   0.2327   0.5417     C
C       0.8258   0.2673   0.0417     C
C       0.8435  0.22364    0.633     C
C       0.8435  0.27636    0.133     C
O       0.8455  0.66152  0.64735     O
O       0.8455  0.83848  0.14735     O
H       0.8594   0.5059   0.7069     H
H       0.8594   0.9941   0.2069     H
Cd     0.86686  0.58026  0.51932    Cd
Cd     0.86686  0.91974  0.01932    Cd
H       0.8879   0.2083     0.94     H
H       0.8879   0.2917     0.44     H
C        0.902   0.2131   0.0023     C
C        0.902   0.2869   0.5023     C
H       0.9178   0.1307   0.7715     H
H       0.9178   0.3693   0.2715     H
H       0.9207   0.6421   0.3308     H
H       0.9207   0.8579   0.8308     H
O       0.9313  0.03398  0.90116     O
O       0.9313  0.46602  0.40116     O
C       0.9405  0.22767   0.1804     C
C       0.9405  0.27233   0.6804     C
H       0.9564    0.231   0.2428     H
H       0.9564    0.269   0.7428     H
C       0.9867  0.67459   0.3643     C
C       0.9867  0.82541   0.8643     C
N       0.9966  0.16606  0.04835     N
N       0.9966  0.33394  0.54835     N
