data_I
_chemical_name_common  '/home/zhangsd/repos/MofS-CGCNN/ML/data/TSD/clean_cifs/IGUVIR01_clean'
_cell_length_a  9.79040
_cell_length_b 17.36600
_cell_length_c 15.25690
_cell_angle_alpha 90.00000
_cell_angle_beta  95.48290
_cell_angle_gamma 90.00000
_space_group_name_H-M_alt      'P 1'


loop_
_space_group_symop_operation_xyz
  'x, y, z' 

loop_
_atom_site_label
_atom_site_fract_x
_atom_site_fract_y
_atom_site_fract_z
_atom_site_type_symbol
N       0.0019  0.66348  0.44711     N
N       0.0019  0.83652  0.94711     N
C       0.0133   0.1713   0.1397     C
C       0.0133   0.3287   0.6397     C
H       0.0424   0.7279   0.2541     H
H       0.0424   0.7721   0.7541     H
C       0.0586   0.7241    0.315     C
C       0.0586   0.7759    0.815     C
O       0.0632  0.53812  0.59785     O
O       0.0632  0.96188  0.09785     O
H       0.0758   0.1394   0.1719     H
H       0.0758   0.3606   0.6719     H
H       0.0808   0.6361   0.7248     H
H       0.0808   0.8639   0.2248     H
C       0.0955   0.7092   0.4917     C
C       0.0955   0.7908   0.9917     C
H       0.1087   0.7047   0.5526     H
H       0.1087   0.7953   0.0526     H
Cd      0.1355  0.08085  0.98071    Cd
Cd      0.1355  0.41915  0.48071    Cd
H       0.1523   0.0114   0.7904     H
H       0.1523   0.4886   0.2904     H
C       0.1543   0.7288   0.8602     C
C       0.1543   0.7712   0.3602     C
O       0.1613  0.16548  0.85984     O
O       0.1613  0.33452  0.35984     O
C       0.1725  0.62782   0.7443     C
C       0.1725   0.7378   0.9511     C
C       0.1725   0.7622   0.4511     C
C       0.1725  0.87218   0.2443     C
C       0.1784  0.52216  0.63088     C
C       0.1784  0.97784  0.13088     C
C       0.2221   0.5187   0.3182     C
C       0.2221   0.9813   0.8182     C
H       0.2305   0.2437   0.7345     H
H       0.2305   0.2563   0.2345     H
C       0.2343   0.6714   0.8141     C
C       0.2343   0.8286   0.3141     C
H       0.2368   0.7078   0.9845     H
H       0.2368   0.7922   0.4845     H
O       0.2461  0.03452  0.10773     O
O       0.2461  0.46548  0.60773     O
C       0.2467  0.57212   0.7035     C
C       0.2467  0.92788   0.2035     C
N       0.2478   0.5126   0.4051     N
N       0.2478   0.9874   0.9051     N
H       0.2698   0.5694   0.2063     H
H       0.2698   0.9306   0.7063     H
C       0.2764   0.1867   0.8946     C
C       0.2764   0.3133   0.3946     C
C       0.2928   0.5671   0.2668     C
C       0.2928   0.9329   0.7668     C
C       0.3153   0.2389   0.2594     C
C       0.3153   0.2611   0.7594     C
O       0.3217  0.16685  0.97086     O
O       0.3217  0.33315  0.47086     O
H       0.3456   0.6727   0.1467     H
H       0.3456   0.8273   0.6467     H
C       0.3497   0.5563   0.4422     C
C       0.3497   0.9437   0.9422     C
H       0.3574   0.1743   0.1555     H
H       0.3574   0.3257   0.6555     H
C       0.3626    0.238   0.8429     C
C       0.3626    0.262   0.3429     C
H       0.3706   0.5529   0.5028     H
H       0.3706   0.9471   0.0028     H
C       0.3731   0.6597   0.8408     C
C       0.3731   0.8403   0.3408     C
C       0.3857   0.5619   0.7304     C
C       0.3857   0.9381   0.2304     C
C       0.3921     0.19   0.2116     C
C       0.3921     0.31   0.7116     C
C       0.3987  0.61231   0.3059     C
C       0.3987  0.88769   0.8059     C
H       0.4153   0.6881   0.8875     H
H       0.4153   0.8119   0.3875     H
C        0.425   0.6057   0.3965     C
C        0.425   0.8943   0.8965     C
C       0.4316    0.689   0.1709     C
C       0.4316    0.811   0.6709     C
H       0.4362   0.5253   0.7028     H
H       0.4362   0.9747   0.2028     H
C       0.4486   0.6063   0.7982     C
C       0.4486   0.8937   0.2982     C
H       0.4582   0.1002   0.6848     H
H       0.4582   0.3998   0.1848     H
H       0.4725   0.7458   0.5672     H
H       0.4725   0.7542   0.0672     H
C       0.4803  0.66417    0.254     C
C       0.4803  0.83583    0.754     C
C        0.492   0.2377   0.3773     C
C        0.492   0.2623   0.8773     C
H       0.4942    0.635   0.4262     H
H       0.4942    0.865   0.9262     H
H       0.5058    0.135   0.0738     H
H       0.5058    0.365   0.5738     H
C        0.508   0.7377   0.1227     C
C        0.508   0.7623   0.6227     C
C       0.5197  0.16417    0.246     C
C       0.5197  0.33583    0.746     C
H       0.5275   0.2458   0.9328     H
H       0.5275   0.2542   0.4328     H
H       0.5418   0.6002   0.8152     H
H       0.5418   0.8998   0.3152     H
C       0.5514   0.1063   0.7018     C
C       0.5514   0.3937   0.2018     C
H       0.5638   0.0253   0.7972     H
H       0.5638   0.4747   0.2972     H
C       0.5684    0.189   0.3291     C
C       0.5684    0.311   0.8291     C
C        0.575   0.1057   0.1035     C
C        0.575   0.3943   0.6035     C
H       0.5847   0.1881   0.6125     H
H       0.5847   0.3119   0.1125     H
C       0.6013  0.11231   0.1941     C
C       0.6013  0.38769   0.6941     C
C       0.6079     0.69   0.2884     C
C       0.6079     0.81   0.7884     C
C       0.6143   0.0619   0.7696     C
C       0.6143   0.4381   0.2696     C
C       0.6269   0.1597   0.6592     C
C       0.6269   0.3403   0.1592     C
H       0.6294   0.0529   0.9972     H
H       0.6294   0.4471   0.4972     H
C       0.6374    0.738   0.6571     C
C       0.6374    0.762   0.1571     C
H       0.6426   0.6743   0.3445     H
H       0.6426   0.8257   0.8445     H
C       0.6503   0.0563   0.0578     C
C       0.6503   0.4437   0.5578     C
H       0.6544   0.1727   0.3533     H
H       0.6544   0.3273   0.8533     H
O       0.6783  0.66685  0.52914     O
O       0.6783  0.83315  0.02914     O
C       0.6847   0.7389   0.2406     C
C       0.6847   0.7611   0.7406     C
C       0.7072   0.0671   0.2332     C
C       0.7072   0.4329   0.7332     C
C       0.7236   0.6867   0.6054     C
C       0.7236   0.8133   0.1054     C
H       0.7302   0.0694   0.2937     H
H       0.7302   0.4306   0.7937     H
N       0.7522   0.0126   0.0949     N
N       0.7522   0.4874   0.5949     N
C       0.7533  0.07212   0.7965     C
C       0.7533  0.42788   0.2965     C
O       0.7539  0.53452  0.39227     O
O       0.7539  0.96548  0.89227     O
H       0.7632   0.2078   0.5155     H
H       0.7632   0.2922   0.0155     H
C       0.7657   0.1714   0.6859     C
C       0.7657   0.3286   0.1859     C
H       0.7695   0.7437   0.7655     H
H       0.7695   0.7563   0.2655     H
C       0.7779   0.0187   0.1818     C
C       0.7779   0.4813   0.6818     C
C       0.8216  0.02216  0.86912     C
C       0.8216  0.47784  0.36912     C
C       0.8275  0.12782   0.7557     C
C       0.8275   0.2378   0.5489     C
C       0.8275   0.2622   0.0489     C
C       0.8275  0.37218   0.2557     C
O       0.8387  0.66548  0.64016     O
O       0.8387  0.83452  0.14016     O
C       0.8457   0.2288   0.6398     C
C       0.8457   0.2712   0.1398     C
H       0.8477   0.5114   0.7096     H
H       0.8477   0.9886   0.2096     H
Cd      0.8645  0.58085  0.51929    Cd
Cd      0.8645  0.91915  0.01929    Cd
H       0.8913   0.2047   0.9474     H
H       0.8913   0.2953   0.4474     H
C       0.9045   0.2092   0.0083     C
C       0.9045   0.2908   0.5083     C
H       0.9192   0.1361   0.7752     H
H       0.9192   0.3639   0.2752     H
H       0.9242   0.6394   0.3281     H
H       0.9242   0.8606   0.8281     H
O       0.9368  0.03812  0.90215     O
O       0.9368  0.46188  0.40215     O
C       0.9414   0.2241    0.185     C
C       0.9414   0.2759    0.685     C
H       0.9576   0.2279   0.2459     H
H       0.9576   0.2721   0.7459     H
C       0.9867   0.6713   0.3603     C
C       0.9867   0.8287   0.8603     C
N       0.9981  0.16348  0.05289     N
N       0.9981  0.33652  0.55289     N
