data_I
_chemical_name_common  '/home/zhangsd/repos/MofS-CGCNN/ML/data/TSD/clean_cifs/IHECAB_clean'
_cell_length_a  8.91100
_cell_length_b  8.09800
_cell_length_c 10.28900
_cell_angle_alpha 90.00000
_cell_angle_beta  101.43300
_cell_angle_gamma 90.00000
_space_group_name_H-M_alt      'P 1'


loop_
_space_group_symop_operation_xyz
  'x, y, z' 

loop_
_atom_site_label
_atom_site_fract_x
_atom_site_fract_y
_atom_site_fract_z
_atom_site_type_symbol
C       0.0184   0.5916   0.0077     C
C       0.0184   0.9084   0.5077     C
O       0.0909   0.1902    0.511     O
O       0.0909   0.3098    0.011     O
O       0.1582   0.6294    0.041     O
O       0.1582   0.8706    0.541     O
H       0.1987   0.2331   0.8015     H
H       0.1987   0.2669   0.3015     H
H       0.2812   0.6666   0.2788     H
H       0.2812   0.8334   0.7788     H
C       0.2992   0.2341   0.3035     C
C       0.2992   0.2659   0.8035     C
Zn     0.31382  0.05878  0.56136    Zn
Zn     0.31382  0.44122  0.06136    Zn
N       0.3656   0.7171   0.3098     N
N       0.3656   0.7829   0.8098     N
H       0.3745   0.7253   0.8811     H
H       0.3745   0.7747   0.3811     H
N       0.3769   0.1383   0.3966     N
N       0.3769   0.3617   0.8966     N
N       0.3784   0.2205   0.7123     N
N       0.3784   0.2795   0.2123     N
N       0.4802   0.6185   0.1347     N
N       0.4802   0.8815   0.6347     N
C       0.4862   0.7056   0.2455     C
C       0.4862   0.7944   0.7455     C
C       0.5138   0.2056   0.2545     C
C       0.5138   0.2944   0.7545     C
N       0.5198   0.1185   0.3653     N
N       0.5198   0.3815   0.8653     N
N       0.6216   0.7205   0.7877     N
N       0.6216   0.7795   0.2877     N
N       0.6231   0.6383   0.1034     N
N       0.6231   0.8617   0.6034     N
H       0.6255   0.2253   0.6189     H
H       0.6255   0.2747   0.1189     H
N       0.6344   0.2171   0.1902     N
N       0.6344   0.2829   0.6902     N
Zn     0.68618  0.55878  0.93864    Zn
Zn     0.68618  0.94122  0.43864    Zn
C       0.7008   0.7341   0.1965     C
C       0.7008   0.7659   0.6965     C
H       0.7188   0.1666   0.2212     H
H       0.7188   0.3334   0.7212     H
H       0.8013   0.7331   0.6985     H
H       0.8013   0.7669   0.1985     H
O       0.8418   0.1294    0.459     O
O       0.8418   0.3706    0.959     O
O       0.9091   0.6902    0.989     O
O       0.9091   0.8098    0.489     O
C       0.9816   0.0916   0.4923     C
C       0.9816   0.4084   0.9923     C
