data_I
_chemical_name_common  '/home/zhangsd/repos/MofS-CGCNN/ML/data/TSD/clean_cifs/IJEVEA_clean'
_cell_length_a 18.84500
_cell_length_b 29.99600
_cell_length_c 12.41000
_cell_angle_alpha 90.00000
_cell_angle_beta  90.00000
_cell_angle_gamma 90.00000
_space_group_name_H-M_alt      'P 1'


loop_
_space_group_symop_operation_xyz
  'x, y, z' 

loop_
_atom_site_label
_atom_site_fract_x
_atom_site_fract_y
_atom_site_fract_z
_atom_site_type_symbol
O       0.0072  0.59885   0.6456     O
O       0.0072  0.90115   0.8544     O
C       0.0087   0.0754   0.8308     C
C       0.0087   0.4246   0.6692     C
C       0.0136  0.01289   0.9535     C
C       0.0136  0.48711   0.5465     C
H       0.0156   0.6005   0.3066     H
H       0.0156   0.8995   0.1934     H
C       0.0216   0.5503   0.4124     C
C       0.0216   0.9497   0.0876     C
C       0.0244  0.20513    0.276     C
C       0.0244  0.29487    0.224     C
H       0.0245    0.175    0.294     H
H       0.0245    0.325    0.206     H
O       0.0268  0.14765   0.0251     O
O       0.0268  0.35235   0.4749     O
C       0.0397  0.72714   0.7629     C
C       0.0397  0.77286   0.7371     C
C       0.0398   0.1155   0.0858     C
C       0.0398   0.3845   0.4142     C
H       0.0656   0.5584     0.44     H
H       0.0656   0.9416     0.06     H
N       0.0713  0.06541   0.7849     N
N       0.0713  0.43459   0.7151     N
C        0.077  0.00151   0.9028     C
C        0.077  0.49849   0.5972     C
C       0.0887  0.22742   0.2625     C
C       0.0887  0.27258   0.2375     C
Cd     0.09219  0.65333  0.56054    Cd
Cd     0.09219  0.84667  0.93946    Cd
H       0.1019   0.5237   0.5753     H
H       0.1019   0.9763   0.9247     H
C        0.103   0.0278   0.8193     C
C        0.103   0.4722   0.6807     C
H       0.1051   0.0561   0.2147     H
H       0.1051   0.4439   0.2853     H
C       0.1086  0.70348    0.787     C
C       0.1086  0.79652    0.713     C
C       0.1121   0.0943   0.0814     C
C       0.1121   0.4057   0.4186     C
O       0.1209  0.66794   0.7337     O
O       0.1209  0.83206   0.7663     O
O       0.1279  0.64475   0.3822     O
O       0.1279  0.85525   0.1178     O
Cd     0.13507  0.11401  0.67811    Cd
Cd     0.13507  0.38599  0.82189    Cd
C       0.1355  0.06414   0.1589     C
C       0.1355  0.43586   0.3411     C
H       0.1403   0.1248   0.9431     H
H       0.1403   0.3752   0.5569     H
H       0.1447   0.0189   0.7854     H
H       0.1447   0.4811   0.7146     H
H       0.1467   0.1886   0.4342     H
H       0.1467   0.3114   0.0658     H
O       0.1477  0.71807   0.8572     O
O       0.1477  0.78193   0.6428     O
O       0.1533   0.0613   0.5559     O
O       0.1533   0.4387   0.9441     O
C       0.1555  0.10446   0.9947     C
C       0.1555  0.39554   0.5053     C
C       0.1572  0.20177    0.275     C
C       0.1572  0.29823    0.225     C
O       0.1685  0.58856   0.6122     O
O       0.1685  0.91144   0.8878     O
H       0.1726   0.6408   0.1921     H
H       0.1726   0.8592   0.3079     H
Cd      0.1765   0.6102  0.81729    Cd
Cd      0.1765   0.8898  0.68271    Cd
C       0.1767   0.1849   0.3754     C
C       0.1767   0.3151   0.1246     C
O       0.1772  0.62781   0.9934     O
O       0.1772  0.87219   0.5066     O
H        0.186   0.0653    0.352     H
H        0.186   0.4347    0.148     H
C       0.1868   0.6649    0.397     C
C       0.1868   0.8351    0.103     C
H       0.1895   0.2076   0.1203     H
H       0.1895   0.2924   0.3797     H
C        0.202  0.19582    0.187     C
C        0.202  0.30418    0.313     C
C       0.2037  0.04565   0.1552     C
C       0.2037  0.45435   0.3448     C
O       0.2046  0.67765   0.4891     O
O       0.2046  0.82235   0.0109     O
H        0.208   0.5436   0.4392     H
H        0.208   0.9564   0.0608     H
C       0.2117  0.03883   0.3513     C
C       0.2117  0.46117   0.1487     C
C       0.2139   0.0441   0.5511     C
C       0.2139   0.4559   0.9489     C
C       0.2152   0.6561   0.2006     C
C       0.2152   0.8439   0.2994     C
C       0.2217  0.08442   0.9846     C
C       0.2217  0.41558   0.5154     C
O        0.222  0.15177   0.5767     O
O        0.222  0.34823   0.9233     O
C       0.2296  0.01983   0.2508     C
C       0.2296  0.48017   0.2492     C
C       0.2308   0.0199   0.4488     C
C       0.2308   0.4801   0.0512     C
O       0.2334     0.11   0.8055     O
O       0.2334     0.39   0.6945     O
C       0.2339   0.6721   0.3019     C
C       0.2339   0.8279   0.1981     C
C       0.2347    0.595    0.612     C
C       0.2347    0.905    0.888     C
C       0.2373  0.64633   0.0023     C
C       0.2373  0.85367   0.4977     C
O       0.2384  0.54759   0.8789     O
O       0.2384  0.95241   0.6211     O
C       0.2408  0.16256   0.3881     C
C       0.2408  0.33744   0.1119     C
C       0.2468   0.0558    0.066     C
C       0.2468   0.4442    0.434     C
C       0.2532   0.5558    0.434     C
C       0.2532   0.9442    0.066     C
C       0.2592  0.66256   0.1119     C
C       0.2592  0.83744   0.3881     C
O       0.2616  0.04759   0.6211     O
O       0.2616  0.45241   0.8789     O
C       0.2627  0.14633   0.4977     C
C       0.2627  0.35367   0.0023     C
C       0.2653    0.095    0.888     C
C       0.2653    0.405    0.612     C
C       0.2661   0.1721   0.1981     C
C       0.2661   0.3279   0.3019     C
O       0.2666     0.61   0.6945     O
O       0.2666     0.89   0.8055     O
C       0.2692   0.5199   0.0512     C
C       0.2692   0.9801   0.4488     C
C       0.2704  0.51983   0.2492     C
C       0.2704  0.98017   0.2508     C
O        0.278  0.65177   0.9233     O
O        0.278  0.84823   0.5767     O
C       0.2783  0.58442   0.5154     C
C       0.2783  0.91558   0.9846     C
C       0.2848   0.1561   0.2994     C
C       0.2848   0.3439   0.2006     C
C       0.2861   0.5441   0.9489     C
C       0.2861   0.9559   0.5511     C
C       0.2883  0.53883   0.1487     C
C       0.2883  0.96117   0.3513     C
H        0.292   0.0436   0.0608     H
H        0.292   0.4564   0.4392     H
O       0.2954  0.17765   0.0109     O
O       0.2954  0.32235   0.4891     O
C       0.2963  0.54565   0.3448     C
C       0.2963  0.95435   0.1552     C
C        0.298  0.69582    0.313     C
C        0.298  0.80418    0.187     C
H       0.3105   0.7076   0.3797     H
H       0.3105   0.7924   0.1203     H
C       0.3132   0.1649    0.103     C
C       0.3132   0.3351    0.397     C
H        0.314   0.5653    0.148     H
H        0.314   0.9347    0.352     H
O       0.3228  0.12781   0.5066     O
O       0.3228  0.37219   0.9934     O
C       0.3233   0.6849   0.1246     C
C       0.3233   0.8151   0.3754     C
Cd      0.3235   0.1102  0.68271    Cd
Cd      0.3235   0.3898  0.81729    Cd
H       0.3274   0.1408   0.3079     H
H       0.3274   0.3592   0.1921     H
O       0.3315  0.08856   0.8878     O
O       0.3315  0.41144   0.6122     O
C       0.3428  0.70177    0.225     C
C       0.3428  0.79823    0.275     C
C       0.3445  0.60446   0.5053     C
C       0.3445  0.89554   0.9947     C
O       0.3467   0.5613   0.9441     O
O       0.3467   0.9387   0.5559     O
O       0.3523  0.21807   0.6428     O
O       0.3523  0.28193   0.8572     O
H       0.3533   0.6886   0.0658     H
H       0.3533   0.8114   0.4342     H
H       0.3553   0.5189   0.7146     H
H       0.3553   0.9811   0.7854     H
H       0.3597   0.6248   0.5569     H
H       0.3597   0.8752   0.9431     H
C       0.3645  0.56414   0.3411     C
C       0.3645  0.93586   0.1589     C
Cd     0.36493  0.61401  0.82189    Cd
Cd     0.36493  0.88599  0.67811    Cd
O       0.3721  0.14475   0.1178     O
O       0.3721  0.35525   0.3822     O
O       0.3791  0.16794   0.7663     O
O       0.3791  0.33206   0.7337     O
C       0.3879   0.5943   0.4186     C
C       0.3879   0.9057   0.0814     C
C       0.3914  0.20348    0.713     C
C       0.3914  0.29652    0.787     C
H       0.3949   0.5561   0.2853     H
H       0.3949   0.9439   0.2147     H
C        0.397   0.5278   0.6807     C
C        0.397   0.9722   0.8193     C
H       0.3981   0.0237   0.9247     H
H       0.3981   0.4763   0.5753     H
Cd     0.40781  0.15333  0.93946    Cd
Cd     0.40781  0.34667  0.56054    Cd
C       0.4113  0.72742   0.2375     C
C       0.4113  0.77258   0.2625     C
C        0.423  0.50151   0.5972     C
C        0.423  0.99849   0.9028     C
N       0.4287  0.56541   0.7151     N
N       0.4287  0.93459   0.7849     N
H       0.4344   0.0584     0.06     H
H       0.4344   0.4416     0.44     H
C       0.4602   0.6155   0.4142     C
C       0.4602   0.8845   0.0858     C
C       0.4603  0.22714   0.7371     C
C       0.4603  0.27286   0.7629     C
O       0.4732  0.64765   0.4749     O
O       0.4732  0.85235   0.0251     O
H       0.4755    0.675    0.206     H
H       0.4755    0.825    0.294     H
C       0.4756  0.70513    0.224     C
C       0.4756  0.79487    0.276     C
C       0.4784   0.0503   0.0876     C
C       0.4784   0.4497   0.4124     C
H       0.4844   0.1005   0.1934     H
H       0.4844   0.3995   0.3066     H
C       0.4864  0.51289   0.5465     C
C       0.4864  0.98711   0.9535     C
C       0.4913   0.5754   0.6692     C
C       0.4913   0.9246   0.8308     C
O       0.4928  0.09885   0.8544     O
O       0.4928  0.40115   0.6456     O
O       0.5072  0.59885   0.3544     O
O       0.5072  0.90115   0.1456     O
C       0.5087   0.0754   0.1692     C
C       0.5087   0.4246   0.3308     C
C       0.5136  0.01289   0.0465     C
C       0.5136  0.48711   0.4535     C
H       0.5156   0.6005   0.6934     H
H       0.5156   0.8995   0.8066     H
C       0.5216   0.5503   0.5876     C
C       0.5216   0.9497   0.9124     C
C       0.5244  0.20513    0.724     C
C       0.5244  0.29487    0.776     C
H       0.5245    0.175    0.706     H
H       0.5245    0.325    0.794     H
O       0.5268  0.14765   0.9749     O
O       0.5268  0.35235   0.5251     O
C       0.5397  0.72714   0.2371     C
C       0.5397  0.77286   0.2629     C
C       0.5398   0.1155   0.9142     C
C       0.5398   0.3845   0.5858     C
H       0.5656   0.5584     0.56     H
H       0.5656   0.9416     0.94     H
N       0.5713  0.06541   0.2151     N
N       0.5713  0.43459   0.2849     N
C        0.577  0.00151   0.0972     C
C        0.577  0.49849   0.4028     C
C       0.5887  0.22742   0.7375     C
C       0.5887  0.27258   0.7625     C
Cd     0.59219  0.65333  0.43946    Cd
Cd     0.59219  0.84667  0.06054    Cd
H       0.6019   0.5237   0.4247     H
H       0.6019   0.9763   0.0753     H
C        0.603   0.0278   0.1807     C
C        0.603   0.4722   0.3193     C
H       0.6051   0.0561   0.7853     H
H       0.6051   0.4439   0.7147     H
C       0.6086  0.70348    0.213     C
C       0.6086  0.79652    0.287     C
C       0.6121   0.0943   0.9186     C
C       0.6121   0.4057   0.5814     C
O       0.6209  0.66794   0.2663     O
O       0.6209  0.83206   0.2337     O
O       0.6279  0.64475   0.6178     O
O       0.6279  0.85525   0.8822     O
Cd     0.63507  0.11401  0.32189    Cd
Cd     0.63507  0.38599  0.17811    Cd
C       0.6355  0.06414   0.8411     C
C       0.6355  0.43586   0.6589     C
H       0.6403   0.1248   0.0569     H
H       0.6403   0.3752   0.4431     H
H       0.6447   0.0189   0.2146     H
H       0.6447   0.4811   0.2854     H
H       0.6467   0.1886   0.5658     H
H       0.6467   0.3114   0.9342     H
O       0.6477  0.71807   0.1428     O
O       0.6477  0.78193   0.3572     O
O       0.6533   0.0613   0.4441     O
O       0.6533   0.4387   0.0559     O
C       0.6555  0.10446   0.0053     C
C       0.6555  0.39554   0.4947     C
C       0.6572  0.20177    0.725     C
C       0.6572  0.29823    0.775     C
O       0.6685  0.58856   0.3878     O
O       0.6685  0.91144   0.1122     O
H       0.6726   0.6408   0.8079     H
H       0.6726   0.8592   0.6921     H
Cd      0.6765   0.6102  0.18271    Cd
Cd      0.6765   0.8898  0.31729    Cd
C       0.6767   0.1849   0.6246     C
C       0.6767   0.3151   0.8754     C
O       0.6772  0.62781   0.0066     O
O       0.6772  0.87219   0.4934     O
H        0.686   0.0653    0.648     H
H        0.686   0.4347    0.852     H
C       0.6868   0.6649    0.603     C
C       0.6868   0.8351    0.897     C
H       0.6895   0.2076   0.8797     H
H       0.6895   0.2924   0.6203     H
C        0.702  0.19582    0.813     C
C        0.702  0.30418    0.687     C
C       0.7037  0.04565   0.8448     C
C       0.7037  0.45435   0.6552     C
O       0.7046  0.67765   0.5109     O
O       0.7046  0.82235   0.9891     O
H        0.708   0.5436   0.5608     H
H        0.708   0.9564   0.9392     H
C       0.7117  0.03883   0.6487     C
C       0.7117  0.46117   0.8513     C
C       0.7139   0.0441   0.4489     C
C       0.7139   0.4559   0.0511     C
C       0.7152   0.6561   0.7994     C
C       0.7152   0.8439   0.7006     C
C       0.7217  0.08442   0.0154     C
C       0.7217  0.41558   0.4846     C
O        0.722  0.15177   0.4233     O
O        0.722  0.34823   0.0767     O
C       0.7296  0.01983   0.7492     C
C       0.7296  0.48017   0.7508     C
C       0.7308   0.0199   0.5512     C
C       0.7308   0.4801   0.9488     C
O       0.7334     0.11   0.1945     O
O       0.7334     0.39   0.3055     O
C       0.7339   0.6721   0.6981     C
C       0.7339   0.8279   0.8019     C
C       0.7347    0.595    0.388     C
C       0.7347    0.905    0.112     C
C       0.7373  0.64633   0.9977     C
C       0.7373  0.85367   0.5023     C
O       0.7384  0.54759   0.1211     O
O       0.7384  0.95241   0.3789     O
C       0.7408  0.16256   0.6119     C
C       0.7408  0.33744   0.8881     C
C       0.7468   0.0558    0.934     C
C       0.7468   0.4442    0.566     C
C       0.7532   0.5558    0.566     C
C       0.7532   0.9442    0.934     C
C       0.7592  0.66256   0.8881     C
C       0.7592  0.83744   0.6119     C
O       0.7616  0.04759   0.3789     O
O       0.7616  0.45241   0.1211     O
C       0.7627  0.14633   0.5023     C
C       0.7627  0.35367   0.9977     C
C       0.7653    0.095    0.112     C
C       0.7653    0.405    0.388     C
C       0.7661   0.1721   0.8019     C
C       0.7661   0.3279   0.6981     C
O       0.7666     0.61   0.3055     O
O       0.7666     0.89   0.1945     O
C       0.7692   0.5199   0.9488     C
C       0.7692   0.9801   0.5512     C
C       0.7704  0.51983   0.7508     C
C       0.7704  0.98017   0.7492     C
O        0.778  0.65177   0.0767     O
O        0.778  0.84823   0.4233     O
C       0.7783  0.58442   0.4846     C
C       0.7783  0.91558   0.0154     C
C       0.7848   0.1561   0.7006     C
C       0.7848   0.3439   0.7994     C
C       0.7861   0.5441   0.0511     C
C       0.7861   0.9559   0.4489     C
C       0.7883  0.53883   0.8513     C
C       0.7883  0.96117   0.6487     C
H        0.792   0.0436   0.9392     H
H        0.792   0.4564   0.5608     H
O       0.7954  0.17765   0.9891     O
O       0.7954  0.32235   0.5109     O
C       0.7963  0.54565   0.6552     C
C       0.7963  0.95435   0.8448     C
C        0.798  0.69582    0.687     C
C        0.798  0.80418    0.813     C
H       0.8105   0.7076   0.6203     H
H       0.8105   0.7924   0.8797     H
C       0.8132   0.1649    0.897     C
C       0.8132   0.3351    0.603     C
H        0.814   0.5653    0.852     H
H        0.814   0.9347    0.648     H
O       0.8228  0.12781   0.4934     O
O       0.8228  0.37219   0.0066     O
C       0.8233   0.6849   0.8754     C
C       0.8233   0.8151   0.6246     C
Cd      0.8235   0.1102  0.31729    Cd
Cd      0.8235   0.3898  0.18271    Cd
H       0.8274   0.1408   0.6921     H
H       0.8274   0.3592   0.8079     H
O       0.8315  0.08856   0.1122     O
O       0.8315  0.41144   0.3878     O
C       0.8428  0.70177    0.775     C
C       0.8428  0.79823    0.725     C
C       0.8445  0.60446   0.4947     C
C       0.8445  0.89554   0.0053     C
O       0.8467   0.5613   0.0559     O
O       0.8467   0.9387   0.4441     O
O       0.8523  0.21807   0.3572     O
O       0.8523  0.28193   0.1428     O
H       0.8533   0.6886   0.9342     H
H       0.8533   0.8114   0.5658     H
H       0.8553   0.5189   0.2854     H
H       0.8553   0.9811   0.2146     H
H       0.8597   0.6248   0.4431     H
H       0.8597   0.8752   0.0569     H
C       0.8645  0.56414   0.6589     C
C       0.8645  0.93586   0.8411     C
Cd     0.86493  0.61401  0.17811    Cd
Cd     0.86493  0.88599  0.32189    Cd
O       0.8721  0.14475   0.8822     O
O       0.8721  0.35525   0.6178     O
O       0.8791  0.16794   0.2337     O
O       0.8791  0.33206   0.2663     O
C       0.8879   0.5943   0.5814     C
C       0.8879   0.9057   0.9186     C
C       0.8914  0.20348    0.287     C
C       0.8914  0.29652    0.213     C
H       0.8949   0.5561   0.7147     H
H       0.8949   0.9439   0.7853     H
C        0.897   0.5278   0.3193     C
C        0.897   0.9722   0.1807     C
H       0.8981   0.0237   0.0753     H
H       0.8981   0.4763   0.4247     H
Cd     0.90781  0.15333  0.06054    Cd
Cd     0.90781  0.34667  0.43946    Cd
C       0.9113  0.72742   0.7625     C
C       0.9113  0.77258   0.7375     C
C        0.923  0.50151   0.4028     C
C        0.923  0.99849   0.0972     C
N       0.9287  0.56541   0.2849     N
N       0.9287  0.93459   0.2151     N
H       0.9344   0.0584     0.94     H
H       0.9344   0.4416     0.56     H
C       0.9602   0.6155   0.5858     C
C       0.9602   0.8845   0.9142     C
C       0.9603  0.22714   0.2629     C
C       0.9603  0.27286   0.2371     C
O       0.9732  0.64765   0.5251     O
O       0.9732  0.85235   0.9749     O
H       0.9755    0.675    0.794     H
H       0.9755    0.825    0.706     H
C       0.9756  0.70513    0.776     C
C       0.9756  0.79487    0.724     C
C       0.9784   0.0503   0.9124     C
C       0.9784   0.4497   0.5876     C
H       0.9844   0.1005   0.8066     H
H       0.9844   0.3995   0.6934     H
C       0.9864  0.51289   0.4535     C
C       0.9864  0.98711   0.0465     C
C       0.9913   0.5754   0.3308     C
C       0.9913   0.9246   0.1692     C
O       0.9928  0.09885   0.1456     O
O       0.9928  0.40115   0.3544     O
