data_I
_chemical_name_common  '/home/zhangsd/repos/MofS-CGCNN/ML/data/TSD/clean_cifs/IJEXUR_clean'
_cell_length_a 10.78820
_cell_length_b 12.30720
_cell_length_c 14.28930
_cell_angle_alpha 83.18300
_cell_angle_beta  69.59000
_cell_angle_gamma 65.17400
_space_group_name_H-M_alt      'P 1'


loop_
_space_group_symop_operation_xyz
  'x, y, z' 

loop_
_atom_site_label
_atom_site_fract_x
_atom_site_fract_y
_atom_site_fract_z
_atom_site_type_symbol
C       0.0049   0.9929   0.1266     C
H       0.0128   0.5426   0.3258     H
N       0.0166   0.4456   0.5002     N
O       0.0217   0.8124   0.8563     O
C       0.0478   0.7964   0.0855     C
C       0.0509   0.4594   0.3227     C
C       0.0607   0.3947   0.4069     C
C       0.0621   0.0822    0.123     C
H        0.074   0.3552   0.0031     H
H       0.0917   0.4429   0.1775     H
C       0.0978   0.3995   0.2348     C
O       0.1025   0.6043   0.0311     O
C       0.1027   0.1702   0.8724     C
C        0.103   0.8774    0.085     C
C       0.1173    0.272   0.3995     C
H       0.1255   0.2264   0.4555     H
H       0.1395   0.2262   0.8726     H
C       0.1453   0.9764    0.832     C
N       0.1523   0.2806   0.2283     N
O       0.1555   0.3373   0.0099     O
C       0.1575   0.6742   0.0361     C
C       0.1602   0.2195   0.3113     C
H       0.1976   0.1363    0.307     H
C       0.1982   0.0565   0.8306     C
O       0.1997   0.0494   0.0957     O
H        0.202   0.8575   0.0582     H
H       0.2076   0.8995   0.8056     H
Zn     0.21081  0.20392  0.09321    Zn
H       0.2242   0.6398    0.812     H
Zn     0.24843  0.44568   0.9618    Zn
H       0.2498   0.6668   0.6473     H
C       0.2543   0.5735   0.7715     C
C       0.2703   0.5908   0.6736     C
N       0.2791   0.4674   0.8134     N
H        0.284   0.6392   0.3679     H
O       0.2912   0.6495   0.0041     O
C       0.3172   0.4936   0.6156     C
C       0.3279   0.3718   0.7567     C
H       0.3282   0.6586   0.1997     H
C       0.3287   0.5714   0.3261     C
N       0.3325   0.5184   0.5116     N
C       0.3477   0.3808   0.6569     C
H       0.3492   0.2969    0.785     H
N        0.352   0.4357   0.4693     N
C       0.3549   0.5825   0.2258     C
C       0.3686   0.4597   0.3646     C
H       0.3809   0.3131   0.6173     H
S       0.3961   0.0143   0.7766     S
N       0.4182   0.4868   0.1641     N
O       0.4212   0.0896   0.8255     O
O       0.4245   0.3852     0.99     O
O       0.4277   0.0459   0.6795     O
C        0.429   0.3614   0.3046     C
C       0.4514   0.3805   0.2045     C
H        0.454   0.2847   0.3297     H
O       0.4644   0.8981   0.8068     O
H       0.4931   0.3136    0.162     H
H       0.4981   0.3186   0.9777     H
Zn         0.5      0.5      0.0    Zn
H       0.5019   0.6814   0.0223     H
H       0.5069   0.6864    0.838     H
O       0.5356   0.1019   0.1932     O
H        0.546   0.7153   0.6703     H
C       0.5486   0.6195   0.7955     C
C        0.571   0.6386   0.6954     C
O       0.5723   0.9541   0.3205     O
O       0.5755   0.6148     0.01     O
O       0.5788   0.9104   0.1745     O
N       0.5818   0.5132   0.8359     N
S       0.6039   0.9857   0.2234     S
H       0.6191   0.6869   0.3827     H
C       0.6314   0.5403   0.6354     C
C       0.6451   0.4175   0.7742     C
N        0.648   0.5643   0.5307     N
H       0.6508   0.7031    0.215     H
C       0.6523   0.6192   0.3431     C
N       0.6675   0.4816   0.4884     N
C       0.6713   0.4286   0.6739     C
H       0.6718   0.3414   0.8003     H
C       0.6721   0.6282   0.2433     C
C       0.6828   0.5064   0.3844     C
O       0.7088   0.3505   0.9959     O
H        0.716   0.3608   0.6321     H
N       0.7209   0.5326   0.1866     N
C       0.7297   0.4092   0.3264     C
C       0.7457   0.4265   0.2285     C
H       0.7502   0.3332   0.3527     H
Zn     0.75157  0.55432   0.0382    Zn
H       0.7758   0.3602    0.188     H
Zn     0.78919  0.79608  0.90679    Zn
H       0.7924   0.1005   0.1944     H
H        0.798   0.1425   0.9418     H
O       0.8003   0.9506   0.9043     O
C       0.8018   0.9435   0.1694     C
H       0.8024   0.8637    0.693     H
C       0.8398   0.7805   0.6887     C
C       0.8425   0.3258   0.9639     C
O       0.8445   0.6627   0.9901     O
N       0.8477   0.7194   0.7717     N
C       0.8547   0.0236    0.168     C
H       0.8605   0.7738   0.1274     H
H       0.8745   0.7736   0.5445     H
C       0.8827    0.728   0.6005     C
C        0.897   0.1226    0.915     C
C       0.8973   0.8298   0.1276     C
O       0.8975   0.3957   0.9689     O
C       0.9022   0.6005   0.7652     C
H       0.9083   0.5571   0.8225     H
H        0.926   0.6448   0.9969     H
C       0.9379   0.9178    0.877     C
C       0.9393   0.6053   0.5931     C
C       0.9491   0.5406   0.6773     C
C       0.9522   0.2036   0.9145     C
O       0.9783   0.1876   0.1437     O
N       0.9834   0.5544   0.4998     N
H       0.9872   0.4574   0.6742     H
C       0.9951   0.0071   0.8734     C
