data_I
_chemical_name_common  '/home/zhangsd/repos/MofS-CGCNN/ML/data/TSD/clean_cifs/IJEYON_clean'
_cell_length_a  8.11560
_cell_length_b 20.38610
_cell_length_c  8.65790
_cell_angle_alpha 90.00000
_cell_angle_beta  91.19900
_cell_angle_gamma 90.00000
_space_group_name_H-M_alt      'P 1'


loop_
_space_group_symop_operation_xyz
  'x, y, z' 

loop_
_atom_site_label
_atom_site_fract_x
_atom_site_fract_y
_atom_site_fract_z
_atom_site_type_symbol
Cu         0.0      0.0      0.5    Cu
N       0.0031   0.5007   0.4274     N
H       0.0065   0.1369    0.279     H
H       0.0125   0.6633   0.1355     H
H       0.0513     0.14   0.6496     H
H       0.0598    0.349   0.1728     H
C       0.0628   0.8702   0.3583     C
N       0.0792    0.007   0.8332     N
H       0.1076    0.497    0.868     H
C       0.1178   0.1298   0.3112     C
C        0.119    0.644   0.1421     C
N        0.125   0.9241   0.4128     N
N        0.153   0.0019   0.6887     N
N       0.1552   0.5019    0.634     N
N       0.1558   0.5852   0.0972     N
N       0.1569   0.7671   0.2595     N
C       0.1678   0.3647   0.1544     C
N       0.1745   0.0763   0.3735     N
H       0.1824   0.0084    0.045     H
C       0.1873   0.4997   0.7895     C
N       0.1878   0.8308   0.3144     N
C        0.197   0.0062   0.9365     C
N       0.2037   0.4215   0.0955     N
N       0.2106   0.2368   0.2438     N
N       0.2414   0.1741    0.299     N
N       0.2586   0.6741    0.201     N
N       0.2894   0.7368   0.2562     N
N       0.2963   0.9215   0.4045     N
C        0.303   0.5062   0.5635     C
N       0.3122   0.3308   0.1856     N
C       0.3127   0.9997   0.7105     C
H       0.3176   0.5084    0.455     H
N       0.3255   0.5763   0.1265     N
C       0.3322   0.8647   0.3456     C
N       0.3431   0.2671   0.2405     N
N       0.3442   0.0852   0.4028     N
N       0.3448   0.0019    0.866     N
N        0.347   0.5019   0.8113     N
N        0.375   0.4241   0.0872     N
C        0.381    0.144   0.3579     C
C       0.3822   0.6298   0.1888     C
H       0.3924    0.997    0.632     H
N       0.4208    0.507   0.6668     N
C       0.4372   0.3702   0.1417     C
H       0.4402    0.849   0.3272     H
H       0.4487     0.64   0.8504     H
H       0.4875   0.1633   0.3645     H
H       0.4935   0.6369    0.221     H
N       0.4969   0.0007   0.0726     N
Cu         0.5      0.5      0.0    Cu
N       0.5031   0.9993   0.9274     N
H       0.5065   0.3631    0.779     H
H       0.5125   0.8367   0.6355     H
H       0.5513     0.36   0.1496     H
H       0.5598    0.151   0.6728     H
C       0.5628   0.6298   0.8583     C
N       0.5792    0.493   0.3332     N
H       0.6076    0.003    0.368     H
C       0.6178   0.3702   0.8112     C
C        0.619    0.856   0.6421     C
N        0.625   0.5759   0.9128     N
N        0.653   0.4981   0.1887     N
N       0.6552   0.9981    0.134     N
N       0.6558   0.9148   0.5972     N
N       0.6569   0.7329   0.7595     N
C       0.6678   0.1353   0.6544     C
N       0.6745   0.4237   0.8735     N
H       0.6824   0.4916    0.545     H
C       0.6873   0.0003   0.2895     C
N       0.6878   0.6692   0.8144     N
C        0.697   0.4938   0.4365     C
N       0.7037   0.0785   0.5955     N
N       0.7106   0.2632   0.7438     N
N       0.7414   0.3259    0.799     N
N       0.7586   0.8259    0.701     N
N       0.7894   0.7632   0.7562     N
N       0.7963   0.5785   0.9045     N
C        0.803   0.9938   0.0635     C
N       0.8122   0.1692   0.6856     N
C       0.8127   0.5003   0.2105     C
H       0.8176   0.9916    0.955     H
N       0.8255   0.9237   0.6265     N
C       0.8322   0.6353   0.8456     C
N       0.8431   0.2329   0.7405     N
N       0.8442   0.4148   0.9028     N
N       0.8448   0.4981    0.366     N
N        0.847   0.9981   0.3113     N
N        0.875   0.0759   0.5872     N
C        0.881    0.356   0.8579     C
C       0.8822   0.8702   0.6888     C
H       0.8924    0.503    0.132     H
N       0.9208    0.993   0.1668     N
C       0.9372   0.1298   0.6417     C
H       0.9402    0.651   0.8272     H
H       0.9487     0.86   0.3504     H
H       0.9875   0.3367   0.8645     H
H       0.9935   0.8631    0.721     H
N       0.9969   0.4993   0.5726     N
