data_I
_chemical_name_common  '/home/zhangsd/repos/MofS-CGCNN/ML/data/TSD/clean_cifs/ILIMUN_clean'
_cell_length_a  9.11300
_cell_length_b 15.90400
_cell_length_c 16.01400
_cell_angle_alpha 73.48800
_cell_angle_beta  74.01600
_cell_angle_gamma 76.26400
_space_group_name_H-M_alt      'P 1'


loop_
_space_group_symop_operation_xyz
  'x, y, z' 

loop_
_atom_site_label
_atom_site_fract_x
_atom_site_fract_y
_atom_site_fract_z
_atom_site_type_symbol
Ni         0.0      0.0      0.0    Ni
H       0.0094   0.0876   0.3503     H
N       0.0259   0.0841   0.5857     N
H       0.0312   0.1084   0.7952     H
C       0.0386   0.6695   0.4937     C
C       0.0603   0.1668   0.5486     C
H       0.0619   0.7577   0.6833     H
H       0.0621   0.3422   0.4867     H
C       0.0643   0.7544   0.4559     C
C       0.0737    0.143   0.8173     C
N       0.0753   0.1191   0.9042     N
C       0.0939   0.8863    0.634     C
H       0.1159   0.8959    0.839     H
H       0.1287   0.2291   0.6984     H
C       0.1314    0.216   0.7584     C
C       0.1345   0.1714   0.9325     C
H       0.1351   0.1574   0.9929     H
C       0.1353   0.7943   0.6534     C
H       0.1424   0.5432   0.5299     H
C        0.163   0.6005   0.5029     C
C       0.1679   0.0357     0.57     C
N       0.1686   0.9893   0.0656     N
N       0.1812    0.018    0.135     N
N        0.191   0.9141    0.934     N
C       0.1928   0.2689   0.7894     C
C       0.1946   0.2444   0.8793     C
C        0.201   0.8805   0.8651     C
C        0.203   0.9382   0.5923     C
N       0.2106   0.1702   0.5121     N
C       0.2155    0.766   0.4247     C
H       0.2366   0.2776   0.9032     H
H       0.2397   0.8223   0.3962     H
H       0.2435   0.1013   0.2361     H
C       0.2626   0.3454   0.7311     C
H       0.2721   0.3226   0.3556     H
N       0.2806   0.0822   0.5271     N
N       0.2815   0.3672   0.6434     N
C       0.2877   0.7596    0.627     C
C       0.2973   0.9312   0.0452     C
N       0.3078   0.6114   0.4757     N
C       0.3146   0.0557   0.2613     C
H       0.3155   0.3622    0.472     H
C       0.3156   0.8907   0.9719     C
H       0.3159   0.1116   0.3585     H
C       0.3189   0.9728   0.1517     C
H       0.3204   0.6982   0.6382     H
H       0.3232   0.8053   0.7825     H
C       0.3234   0.8265   0.8309     C
N       0.3258   0.3946   0.7641     N
C       0.3313   0.6932   0.4361     C
C       0.3359   0.3641   0.3449     C
N       0.3534   0.9042   0.5665     N
C       0.3584   0.0618   0.3349     C
C       0.3625   0.3882   0.4139     C
N        0.363   0.4362   0.6159     N
C       0.3741   0.9837   0.2251     C
C       0.3866   0.4496   0.6899     C
H       0.3906   0.3872   0.2099     H
C       0.3907   0.8148   0.5844     C
N       0.3948    0.918   0.0979     N
H       0.4029   0.1155   0.6399     H
C       0.4059   0.4028   0.2583     C
H       0.4333   0.7025   0.4143     H
C       0.4448   0.8359   0.9414     C
C       0.4511   0.8023   0.8682     C
N       0.4536   0.4476   0.4016     N
H       0.4546   0.5089   0.8126     H
H       0.4611   0.2353   0.1545     H
N       0.4619   0.9968   0.3736     N
H       0.4675   0.1295    0.762     H
H       0.4715   0.1793   0.0314     H
C       0.4767   0.0714   0.6645     C
C         0.48   0.5143    0.683     C
C       0.4849   0.9194   0.2624     C
H       0.4938   0.7896   0.5663     H
C       0.4981   0.4642   0.2451     C
Ni         0.5      0.0      0.5    Ni
Ni         0.5      0.5      0.5    Ni
C       0.5019   0.5358   0.7549     C
H       0.5062   0.2104   0.4337     H
C       0.5151   0.0806   0.7376     C
C         0.52   0.4857    0.317     C
C       0.5233   0.9286   0.3355     C
H       0.5285   0.8207   0.9686     H
H       0.5325   0.8705    0.238     H
N       0.5381   0.0032   0.6264     N
H       0.5389   0.7647   0.8455     H
H       0.5454   0.4911   0.1874     H
N       0.5464   0.5524   0.5984     N
C       0.5489   0.1977   0.1318     C
C       0.5552   0.1641   0.0586     C
H       0.5667   0.2975   0.5857     H
C       0.5941   0.5972   0.7417     C
H       0.5971   0.8845   0.3601     H
N       0.6052    0.082   0.9021     N
C       0.6093   0.1852   0.4156     C
H       0.6094   0.6128   0.7901     H
C       0.6134   0.5504   0.3101     C
C       0.6259   0.0163   0.7749     C
N        0.637   0.5638   0.3841     N
C       0.6375   0.6118   0.5861     C
C       0.6416   0.9382   0.6651     C
N       0.6466   0.0958   0.4335     N
C       0.6641   0.6359   0.6551     C
C       0.6687   0.3068   0.5639     C
N       0.6742   0.6054   0.2359     N
C       0.6766   0.1735   0.1691     C
H       0.6768   0.1947   0.2175     H
H       0.6796   0.3018   0.3618     H
C       0.6811   0.0272   0.8483     C
H       0.6841   0.8884   0.6415     H
C       0.6844   0.1093   0.0281     C
H       0.6845   0.6378    0.528     H
C       0.6854   0.9443   0.7387     C
N       0.6922   0.3886   0.5243     N
C       0.7027   0.0688   0.9548     C
C       0.7123   0.2404    0.373     C
N       0.7185   0.6328   0.3566     N
N       0.7194   0.9178   0.4729     N
H       0.7279   0.6774   0.6444     H
C       0.7374   0.6546   0.2689     C
H       0.7565   0.8987   0.7639     H
H       0.7603   0.1777   0.6038     H
H       0.7634   0.7224   0.0968     H
C       0.7845    0.234   0.5753     C
N       0.7894   0.8298   0.4879     N
C        0.797   0.0618   0.4077     C
C        0.799   0.1195   0.1349     C
C       0.8054   0.7556   0.1207     C
C       0.8072   0.7311   0.2106     C
N        0.809   0.0859    0.066     N
N       0.8188    0.982    0.865     N
N       0.8314   0.0107   0.9344     N
C       0.8321   0.9643     0.43     C
C        0.837   0.3995   0.4971     C
H       0.8576   0.4568   0.4701     H
C       0.8647   0.2057   0.3466     C
H       0.8649   0.8426   0.0071     H
C       0.8655   0.8286   0.0675     C
C       0.8686    0.784   0.2416     C
H       0.8713   0.7709   0.3016     H
H       0.8841   0.1041    0.161     H
C       0.9061   0.1137    0.366     C
N       0.9247   0.8809   0.0958     N
C       0.9263    0.857   0.1827     C
C       0.9357   0.2456   0.5441     C
H       0.9379   0.6578   0.5133     H
H       0.9381   0.2423   0.3167     H
C       0.9397   0.8332   0.4514     C
C       0.9614   0.3305   0.5063     C
H       0.9688   0.8916   0.2048     H
N       0.9741   0.9159   0.4143     N
H       0.9906   0.9124   0.6497     H
