data_I
_chemical_name_common  '/home/zhangsd/repos/MofS-CGCNN/ML/data/TSD/clean_cifs/ILIQIF_clean'
_cell_length_a  9.45000
_cell_length_b  9.75000
_cell_length_c 10.29000
_cell_angle_alpha 96.11000
_cell_angle_beta  90.40000
_cell_angle_gamma 116.54000
_space_group_name_H-M_alt      'P 1'


loop_
_space_group_symop_operation_xyz
  'x, y, z' 

loop_
_atom_site_label
_atom_site_fract_x
_atom_site_fract_y
_atom_site_fract_z
_atom_site_type_symbol
O        0.016   0.1304   0.9185     O
H       0.0172   0.2045   0.4446     H
H       0.0439   0.9656   0.7484     H
H       0.0477   0.6197   0.4167     H
C       0.0513   0.3836   0.9915     C
C        0.053    0.794   0.6252     C
C        0.059   0.6173    0.103     C
C        0.076    0.577   0.4886     C
C        0.089    0.894   0.7398     C
C        0.099    0.259   0.9851     C
H       0.0996   0.7002   0.1744     H
C        0.107    0.505    0.094     C
C        0.121    0.693   0.6088     C
H       0.1609    0.557   0.4647     H
H       0.1838   0.5102   0.1587     H
N       0.1886   0.8982    0.836     N
O       0.2225   0.2818     0.05     O
C        0.223    0.701   0.7075     C
Cd     0.23604  0.05758  0.02924    Cd
C        0.255    0.801   0.8184     C
H        0.271   0.6361   0.6979     H
O       0.3054    0.125   0.2604     O
H       0.3265   0.8026   0.8872     H
O       0.3627   0.9512    0.154     O
C        0.364     0.03   0.2598     C
H       0.3975   0.1723   0.4978     H
C        0.433   0.0125   0.3832     C
C        0.444    0.106   0.4987     C
H       0.4793    0.843   0.3081     H
C        0.489    0.907   0.3873     C
C        0.511    0.093   0.6127     C
H       0.5207    0.157   0.6919     H
C        0.556    0.894   0.5013     C
C        0.567   0.9875   0.6168     C
H       0.6025   0.8277   0.5022     H
C        0.636     0.97   0.7402     C
O       0.6373   0.0488    0.846     O
H       0.6735   0.1974   0.1128     H
O       0.6946    0.875   0.7396     O
H        0.729   0.3639   0.3021     H
C        0.745    0.199   0.1816     C
Cd     0.76396  0.94242  0.97076    Cd
C        0.777    0.299   0.2925     C
O       0.7775   0.7182     0.95     O
N       0.8114   0.1018    0.164     N
H       0.8162   0.4898   0.8413     H
H       0.8391    0.443   0.5353     H
C        0.879    0.307   0.3912     C
C        0.893    0.495    0.906     C
H       0.9004   0.2998   0.8256     H
C        0.901    0.741   0.0149     C
C        0.911    0.106   0.2602     C
C        0.924    0.423   0.5114     C
C        0.941   0.3827    0.897     C
C        0.947    0.206   0.3748     C
C       0.9487   0.6164   0.0085     C
H       0.9523   0.3803   0.5833     H
H       0.9561   0.0344   0.2516     H
H       0.9828   0.7955   0.5554     H
O        0.984   0.8696   0.0815     O
