data_I
_chemical_name_common  '/home/zhangsd/repos/MofS-CGCNN/ML/data/TSD/clean_cifs/ILOJOJ_clean'
_cell_length_a 11.55390
_cell_length_b 15.42280
_cell_length_c 17.68600
_cell_angle_alpha 114.09500
_cell_angle_beta  90.00000
_cell_angle_gamma 111.99800
_space_group_name_H-M_alt      'P 1'


loop_
_space_group_symop_operation_xyz
  'x, y, z' 

loop_
_atom_site_label
_atom_site_fract_x
_atom_site_fract_y
_atom_site_fract_z
_atom_site_type_symbol
C       0.0022   0.4462   0.0466     C
C       0.0156   0.3898   0.0968     C
C       0.0241   0.6424   0.3401     C
N      0.03081  0.40522   0.3007     N
C       0.0324    0.435    0.384     C
N       0.0375   0.7078   0.4711     N
O      0.04253  0.70426   0.9299     O
H       0.0458   0.6194    0.287     H
C       0.0586   0.4324   0.9761     C
C       0.0586   0.4864   0.9289     C
N       0.0767   0.5768   0.5934     N
C       0.0801    0.326   0.5631     C
N      0.08679  0.36238   0.6476     N
C       0.0883   0.6254   0.7285     C
O      0.09446  0.45152   0.1661     O
H       0.0977   0.3864   0.9597     H
N      0.10473  0.68366   0.4114     N
H       0.1065   0.4622   0.4222     H
H       0.1218   0.6506   0.7848     H
C        0.125   0.4736    0.856     C
O      0.12595   0.3831   0.8136     O
H       0.1477   0.3256   0.5346     H
N      0.15521  0.61582   0.6669     N
Cu     0.16277  0.39818  0.22981    Cu
H       0.1671   0.8498   0.4016     H
H       0.1779   0.3256   0.0346     H
O      0.17991  0.54702   0.8392     O
H       0.2092   0.7028   0.1073     H
H       0.2242   0.8028   0.6866     H
Cu     0.23541  0.39818  0.72981    Cu
C       0.2422   0.7152   0.4242     C
C       0.2459    0.326   0.0631     C
H       0.2493   0.8474    0.085     H
C       0.2529   0.8682   0.3991     C
O      0.25715   0.3831   0.3136     O
H        0.261   0.6576   0.3866     H
H       0.2721    0.731   0.4816     H
N      0.27559  0.36238   0.1476     N
H       0.2781   0.9908   0.3783     H
H       0.2831   0.5904   0.1297     H
H       0.2873   0.0092   0.1217     H
H       0.2887   0.3864   0.4597     H
C       0.2916    0.648   0.6706     C
C        0.292   0.7532    0.121     C
C       0.3015   0.8128   0.6682     C
H       0.3073   0.5904   0.6297     H
C       0.3124   0.8092   0.4086     C
C       0.3161   0.8406   0.1078     C
H       0.3173   0.1502   0.0984     H
C       0.3205   0.9536   0.3863     C
H       0.3215      0.8   0.9122     H
N       0.3297   0.2922   0.0289     N
H       0.3297   0.9484   0.6655     H
H       0.3304    0.664    0.726     H
H       0.3336    0.664    0.226     H
O      0.33827  0.29574   0.5701     O
C       0.3486   0.4736    0.356     C
C       0.3519   0.7394   0.6539     C
H        0.354   0.9468   0.8923     H
H       0.3557   0.4622   0.9222     H
C       0.3564    0.648   0.1706     C
O      0.35706  0.45152   0.6661     O
C       0.3649   0.9002   0.6554     C
C       0.3669   0.0464   0.1137     C
O      0.36711  0.54702   0.3392     O
C       0.3738   0.4324   0.4761     C
C       0.3742   0.3898   0.5968     C
N      0.37441  0.40522   0.8007     N
H       0.3813   0.0516   0.8345     H
C       0.3817   0.3576   0.1599     C
C       0.3847   0.1318   0.1009     C
C       0.3875   0.7394   0.1539     C
H       0.3966   0.6576   0.8866     H
C       0.4015    0.839    0.906     C
H       0.4019   0.1526    0.415     H
C       0.4026    0.435    0.884     C
H       0.4072   0.0532   0.6077     H
N      0.42107  0.31634   0.0886     N
C       0.4211   0.9278   0.8939     C
H       0.4214   0.1972   0.8134     H
H       0.4264   0.3806    0.213     H
C       0.4278   0.4864   0.4289     C
C       0.4369   0.9176   0.1276     C
C       0.4375    0.839    0.406     C
C        0.444   0.4462   0.5466     C
C       0.4488    0.987   0.3845     C
H       0.4589    0.731   0.9816     H
N      0.46061  0.61582   0.1669     N
C       0.4612   0.7532    0.621     C
C       0.4618    0.013   0.1155     C
C       0.4629   0.3746   0.7715     C
C       0.4647   0.0998   0.8446     C
H       0.4712   0.3494   0.7152     H
C        0.473   0.7152   0.9242     C
C       0.4755   0.1594   0.3922     C
H       0.4785      0.8   0.4122     H
C       0.4807   0.9176   0.6276     C
C       0.4887   0.1872   0.8318     C
C       0.4933   0.0722   0.6061     C
H       0.4936   0.7028   0.6073     H
C       0.4968   0.8092   0.9086     C
N       0.4999   0.4232   0.9066     N
N       0.5001   0.5768   0.0934     N
C       0.5032   0.1908   0.0914     C
H       0.5064   0.2972   0.3927     H
C       0.5067   0.9278   0.3939     C
C       0.5113   0.8128   0.1682     C
C       0.5193   0.0824   0.3724     C
H       0.5215      0.2   0.5878     H
C       0.5245   0.8406   0.6078     C
C        0.527   0.2848   0.0758     C
H       0.5288   0.6506   0.2848     H
C       0.5353   0.9002   0.1554     C
C       0.5371   0.6254   0.2285     C
C       0.5382    0.987   0.8845     C
C       0.5388   0.2468    0.379     C
N      0.53939  0.38418   0.8331     N
H       0.5411    0.269   0.0184     H
C       0.5512    0.013   0.6155     C
C        0.556   0.5538   0.4534     C
C       0.5625    0.161    0.594     C
C       0.5631   0.0824   0.8724     C
C       0.5722   0.5136   0.5711     C
H       0.5736   0.6194    0.787     H
H       0.5786   0.8028   0.1866     H
C       0.5789   0.0722   0.1061     C
N      0.57893  0.68366   0.9114     N
H       0.5928   0.9468   0.3923     H
C       0.5974    0.565    0.116     C
H       0.5981   0.8474    0.585     H
C       0.5985    0.161    0.094     C
H       0.6034   0.3424   0.1134     H
C       0.6125   0.2606   0.8461     C
C       0.6153   0.8682   0.8991     C
C       0.6183   0.6424   0.8401     C
H       0.6187   0.9484   0.1655     H
N      0.62559  0.59478   0.1993     N
C       0.6258   0.6102   0.4032     C
C       0.6262   0.5676   0.5239     C
O      0.63289  0.45298   0.6608     O
C       0.6331   0.9536   0.8863     C
C       0.6351   0.0998   0.3446     C
O      0.64294  0.54848   0.3339     O
C       0.6436    0.352   0.8294     C
H       0.6443   0.5378   0.0778     H
H        0.646   0.0532   0.1077     H
C       0.6481   0.2606   0.3461     C
C       0.6514   0.5264    0.644     C
O      0.66173  0.70426   0.4299     O
H       0.6664    0.336    0.774     H
H       0.6696    0.336    0.274     H
H       0.6703   0.0516   0.3345     H
N       0.6703   0.7078   0.9711     N
H       0.6785      0.2   0.0878     H
C       0.6795   0.0464   0.6137     C
H       0.6827   0.8498   0.9016     H
C       0.6839   0.1594   0.8922     C
C       0.6876   0.1908   0.5914     C
H       0.6927   0.4096   0.3703     H
C       0.6985   0.1872   0.3318     C
C        0.708   0.2468    0.879     C
C       0.7084    0.352   0.3294     C
H       0.7113   0.6136   0.5403     H
H       0.7127   0.9908   0.8783     H
H       0.7169   0.4096   0.8703     H
H       0.7219   0.0092   0.6217     H
N      0.72441  0.63762   0.8524     N
H       0.7279    0.269   0.5184     H
H        0.739   0.3424   0.6134     H
O      0.74285   0.6169   0.6864     O
C       0.7471   0.1318   0.6009     C
H       0.7507   0.1526    0.915     H
C       0.7541    0.674   0.9369     C
C       0.7578   0.2848   0.5758     C
Cu     0.76459  0.60182  0.27019    Cu
H       0.7758   0.1972   0.3134     H
H       0.7908   0.2972   0.8927     H
O      0.82009  0.45298   0.1608     O
H       0.8221   0.6744   0.9654     H
H       0.8329   0.1502   0.5984     H
Cu     0.83723  0.60182  0.77019    Cu
N      0.84479  0.38418   0.3331     N
H       0.8523   0.6744   0.4654     H
O      0.87405   0.6169   0.1864     O
C        0.875   0.5264    0.144     C
H       0.8782   0.3494   0.2152     H
H       0.8935   0.5378   0.5778     H
N      0.89527  0.31634   0.5886     N
H       0.9023   0.6136   0.0403     H
O      0.90554  0.54848   0.8339     O
C       0.9117   0.3746   0.2715     C
N      0.91321  0.63762   0.3524     N
C       0.9199    0.674   0.4369     C
N       0.9233   0.4232   0.4066     N
C       0.9414   0.5136   0.0711     C
C       0.9414   0.5676   0.0239     C
H       0.9542   0.3806    0.713     H
O      0.95747  0.29574   0.0701     O
N       0.9625   0.2922   0.5289     N
C       0.9676    0.565    0.616     C
N      0.96919  0.59478   0.6993     N
C       0.9759   0.3576   0.6599     C
C       0.9844   0.6102   0.9032     C
C       0.9978   0.5538   0.9534     C
