data_I
_chemical_name_common  '/home/zhangsd/repos/MofS-CGCNN/ML/data/TSD/clean_cifs/ILUHON_clean'
_cell_length_a 15.32900
_cell_length_b 15.32900
_cell_length_c 15.40300
_cell_angle_alpha 90.00000
_cell_angle_beta  90.00000
_cell_angle_gamma 120.00000
_space_group_name_H-M_alt      'P 1'


loop_
_space_group_symop_operation_xyz
  'x, y, z' 

loop_
_atom_site_label
_atom_site_fract_x
_atom_site_fract_y
_atom_site_fract_z
_atom_site_type_symbol
H        0.054   0.2863   0.3445     H
H        0.054   0.2863   0.6555     H
H        0.054   0.7677   0.1555     H
H        0.054   0.7677   0.8445     H
O       0.0603   0.4442   0.4073     O
O       0.0603   0.4442   0.5927     O
O       0.0603   0.6161   0.0927     O
O       0.0603   0.6161   0.9073     O
H      0.09925   0.1985     0.25     H
H      0.09925   0.1985     0.75     H
H      0.09925  0.90075     0.25     H
H      0.09925  0.90075     0.75     H
C       0.1072   0.3204   0.3059     C
C       0.1072   0.3204   0.6941     C
C       0.1072   0.7868   0.1941     C
C       0.1072   0.7868   0.8059     C
C      0.13425   0.2685     0.25     C
C      0.13425   0.2685     0.75     C
C      0.13425  0.86575     0.25     C
C      0.13425  0.86575     0.75     C
C       0.1365   0.4877   0.3613     C
C       0.1365   0.4877   0.6387     C
C       0.1365   0.6488   0.1387     C
C       0.1365   0.6488   0.8613     C
C         0.16   0.4231   0.3039     C
C         0.16   0.4231   0.6961     C
C         0.16   0.7369   0.1961     C
C         0.16   0.7369   0.8039     C
O       0.1963   0.5817   0.3581     O
O       0.1963   0.5817   0.6419     O
O       0.1963   0.6146   0.1419     O
O       0.1963   0.6146   0.8581     O
H       0.1985  0.09925     0.25     H
H       0.1985  0.09925     0.75     H
C       0.2132   0.3204   0.1941     C
C       0.2132   0.3204   0.8059     C
C       0.2132   0.8928   0.3059     C
C       0.2132   0.8928   0.6941     C
H       0.2323   0.2863   0.1555     H
H       0.2323   0.2863   0.8445     H
H       0.2323    0.946   0.3445     H
H       0.2323    0.946   0.6555     H
N       0.2372   0.4744     0.25     N
N       0.2372   0.4744     0.75     N
N       0.2372   0.7628     0.25     N
N       0.2372   0.7628     0.75     N
C       0.2631   0.4231   0.1961     C
C       0.2631   0.4231   0.8039     C
C       0.2631     0.84   0.3039     C
C       0.2631     0.84   0.6961     C
C       0.2685  0.13425     0.25     C
C       0.2685  0.13425     0.75     C
H       0.2863    0.054   0.1555     H
H       0.2863    0.054   0.8445     H
H       0.2863   0.2323   0.3445     H
H       0.2863   0.2323   0.6555     H
C       0.3204   0.1072   0.1941     C
C       0.3204   0.1072   0.8059     C
C       0.3204   0.2132   0.3059     C
C       0.3204   0.2132   0.6941     C
Nd     0.33333  0.66666     0.25    Nd
Nd     0.33333  0.66666     0.75    Nd
C       0.3512   0.4877   0.1387     C
C       0.3512   0.4877   0.8613     C
C       0.3512   0.8635   0.3613     C
C       0.3512   0.8635   0.6387     C
O       0.3839   0.4442   0.0927     O
O       0.3839   0.4442   0.9073     O
O       0.3839   0.9397   0.4073     O
O       0.3839   0.9397   0.5927     O
O       0.3854   0.5817   0.1419     O
O       0.3854   0.5817   0.8581     O
O       0.3854   0.8037   0.3581     O
O       0.3854   0.8037   0.6419     O
O       0.4183   0.6146   0.3581     O
O       0.4183   0.6146   0.6419     O
O       0.4183   0.8037   0.1419     O
O       0.4183   0.8037   0.8581     O
C       0.4231     0.16   0.1961     C
C       0.4231     0.16   0.8039     C
C       0.4231   0.2631   0.3039     C
C       0.4231   0.2631   0.6961     C
O       0.4442   0.0603   0.0927     O
O       0.4442   0.0603   0.9073     O
O       0.4442   0.3839   0.4073     O
O       0.4442   0.3839   0.5927     O
N       0.4744   0.2372     0.25     N
N       0.4744   0.2372     0.75     N
C       0.4877   0.1365   0.1387     C
C       0.4877   0.1365   0.8613     C
C       0.4877   0.3512   0.3613     C
C       0.4877   0.3512   0.6387     C
Fe         0.5      0.0      0.0    Fe
Fe         0.5      0.0      0.5    Fe
Fe         0.5      0.5      0.0    Fe
Fe         0.5      0.5      0.5    Fe
C       0.5123   0.6488   0.3613     C
C       0.5123   0.6488   0.6387     C
C       0.5123   0.8635   0.1387     C
C       0.5123   0.8635   0.8613     C
N       0.5256   0.7628     0.25     N
N       0.5256   0.7628     0.75     N
O       0.5558   0.6161   0.4073     O
O       0.5558   0.6161   0.5927     O
O       0.5558   0.9397   0.0927     O
O       0.5558   0.9397   0.9073     O
C       0.5769   0.7369   0.3039     C
C       0.5769   0.7369   0.6961     C
C       0.5769     0.84   0.1961     C
C       0.5769     0.84   0.8039     C
O       0.5817   0.1963   0.1419     O
O       0.5817   0.1963   0.8581     O
O       0.5817   0.3854   0.3581     O
O       0.5817   0.3854   0.6419     O
O       0.6146   0.1963   0.3581     O
O       0.6146   0.1963   0.6419     O
O       0.6146   0.4183   0.1419     O
O       0.6146   0.4183   0.8581     O
O       0.6161   0.0603   0.4073     O
O       0.6161   0.0603   0.5927     O
O       0.6161   0.5558   0.0927     O
O       0.6161   0.5558   0.9073     O
C       0.6488   0.1365   0.3613     C
C       0.6488   0.1365   0.6387     C
C       0.6488   0.5123   0.1387     C
C       0.6488   0.5123   0.8613     C
Nd     0.66667  0.33334     0.25    Nd
Nd     0.66667  0.33334     0.75    Nd
C       0.6796   0.7868   0.3059     C
C       0.6796   0.7868   0.6941     C
C       0.6796   0.8928   0.1941     C
C       0.6796   0.8928   0.8059     C
H       0.7137   0.7677   0.3445     H
H       0.7137   0.7677   0.6555     H
H       0.7137    0.946   0.1555     H
H       0.7137    0.946   0.8445     H
C       0.7315  0.86575     0.25     C
C       0.7315  0.86575     0.75     C
C       0.7369     0.16   0.3039     C
C       0.7369     0.16   0.6961     C
C       0.7369   0.5769   0.1961     C
C       0.7369   0.5769   0.8039     C
N       0.7628   0.2372     0.25     N
N       0.7628   0.2372     0.75     N
N       0.7628   0.5256     0.25     N
N       0.7628   0.5256     0.75     N
H       0.7677    0.054   0.3445     H
H       0.7677    0.054   0.6555     H
H       0.7677   0.7137   0.1555     H
H       0.7677   0.7137   0.8445     H
C       0.7868   0.1072   0.3059     C
C       0.7868   0.1072   0.6941     C
C       0.7868   0.6796   0.1941     C
C       0.7868   0.6796   0.8059     C
H       0.8015  0.90075     0.25     H
H       0.8015  0.90075     0.75     H
O       0.8037   0.3854   0.1419     O
O       0.8037   0.3854   0.8581     O
O       0.8037   0.4183   0.3581     O
O       0.8037   0.4183   0.6419     O
C         0.84   0.2631   0.1961     C
C         0.84   0.2631   0.8039     C
C         0.84   0.5769   0.3039     C
C         0.84   0.5769   0.6961     C
C       0.8635   0.3512   0.1387     C
C       0.8635   0.3512   0.8613     C
C       0.8635   0.5123   0.3613     C
C       0.8635   0.5123   0.6387     C
C      0.86575  0.13425     0.25     C
C      0.86575  0.13425     0.75     C
C      0.86575   0.7315     0.25     C
C      0.86575   0.7315     0.75     C
C       0.8928   0.2132   0.1941     C
C       0.8928   0.2132   0.8059     C
C       0.8928   0.6796   0.3059     C
C       0.8928   0.6796   0.6941     C
H      0.90075  0.09925     0.25     H
H      0.90075  0.09925     0.75     H
H      0.90075   0.8015     0.25     H
H      0.90075   0.8015     0.75     H
O       0.9397   0.3839   0.0927     O
O       0.9397   0.3839   0.9073     O
O       0.9397   0.5558   0.4073     O
O       0.9397   0.5558   0.5927     O
H        0.946   0.2323   0.1555     H
H        0.946   0.2323   0.8445     H
H        0.946   0.7137   0.3445     H
H        0.946   0.7137   0.6555     H
Fe         1.0      0.5      0.0    Fe
Fe         1.0      0.5      0.5    Fe
