data_I
_chemical_name_common  '/home/zhangsd/repos/MofS-CGCNN/ML/data/TSD/clean_cifs/ILUJEF_clean'
_cell_length_a 15.30920
_cell_length_b 15.30920
_cell_length_c 15.34600
_cell_angle_alpha 90.00000
_cell_angle_beta  90.00000
_cell_angle_gamma 120.00000
_space_group_name_H-M_alt      'P 1'


loop_
_space_group_symop_operation_xyz
  'x, y, z' 

loop_
_atom_site_label
_atom_site_fract_x
_atom_site_fract_y
_atom_site_fract_z
_atom_site_type_symbol
Co         0.0      0.5      0.0    Co
Co         0.0      0.5      0.5    Co
H       0.0535   0.2871   0.1553     H
H       0.0535   0.2871   0.8447     H
H       0.0535   0.7664   0.3447     H
H       0.0535   0.7664   0.6553     H
O       0.0593   0.4463   0.0931     O
O       0.0593   0.4463   0.9069     O
O       0.0593    0.613   0.4069     O
O       0.0593    0.613   0.5931     O
H      0.10015   0.2003     0.25     H
H      0.10015   0.2003     0.75     H
H      0.10015  0.89985     0.25     H
H      0.10015  0.89985     0.75     H
C       0.1069   0.3214   0.1939     C
C       0.1069   0.3214   0.8061     C
C       0.1069   0.7855   0.3061     C
C       0.1069   0.7855   0.6939     C
C       0.1349   0.2698     0.25     C
C       0.1349   0.2698     0.75     C
C       0.1349   0.8651     0.25     C
C       0.1349   0.8651     0.75     C
C       0.1359     0.49   0.1384     C
C       0.1359     0.49   0.8616     C
C       0.1359   0.6459   0.3616     C
C       0.1359   0.6459   0.6384     C
C         0.16   0.4248   0.1964     C
C         0.16   0.4248   0.8036     C
C         0.16   0.7352   0.3036     C
C         0.16   0.7352   0.6964     C
O       0.1969   0.5846   0.1426     O
O       0.1969   0.5846   0.8574     O
O       0.1969   0.6123   0.3574     O
O       0.1969   0.6123   0.6426     O
H       0.2003  0.10015     0.25     H
H       0.2003  0.10015     0.75     H
C       0.2145   0.3214   0.3061     C
C       0.2145   0.3214   0.6939     C
C       0.2145   0.8931   0.1939     C
C       0.2145   0.8931   0.8061     C
H       0.2336   0.2871   0.3447     H
H       0.2336   0.2871   0.6553     H
H       0.2336   0.9465   0.1553     H
H       0.2336   0.9465   0.8447     H
N       0.2379   0.4758     0.25     N
N       0.2379   0.4758     0.75     N
N       0.2379   0.7621     0.25     N
N       0.2379   0.7621     0.75     N
C       0.2648   0.4248   0.3036     C
C       0.2648   0.4248   0.6964     C
C       0.2648     0.84   0.1964     C
C       0.2648     0.84   0.8036     C
C       0.2698   0.1349     0.25     C
C       0.2698   0.1349     0.75     C
H       0.2871   0.0535   0.3447     H
H       0.2871   0.0535   0.6553     H
H       0.2871   0.2336   0.1553     H
H       0.2871   0.2336   0.8447     H
C       0.3214   0.1069   0.3061     C
C       0.3214   0.1069   0.6939     C
C       0.3214   0.2145   0.1939     C
C       0.3214   0.2145   0.8061     C
Sm     0.33333  0.66666     0.25    Sm
Sm     0.33333  0.66666     0.75    Sm
C       0.3541     0.49   0.3616     C
C       0.3541     0.49   0.6384     C
C       0.3541   0.8641   0.1384     C
C       0.3541   0.8641   0.8616     C
O        0.387   0.4463   0.4069     O
O        0.387   0.4463   0.5931     O
O        0.387   0.9407   0.0931     O
O        0.387   0.9407   0.9069     O
O       0.3877   0.5846   0.3574     O
O       0.3877   0.5846   0.6426     O
O       0.3877   0.8031   0.1426     O
O       0.3877   0.8031   0.8574     O
O       0.4154   0.6123   0.1426     O
O       0.4154   0.6123   0.8574     O
O       0.4154   0.8031   0.3574     O
O       0.4154   0.8031   0.6426     O
C       0.4248     0.16   0.3036     C
C       0.4248     0.16   0.6964     C
C       0.4248   0.2648   0.1964     C
C       0.4248   0.2648   0.8036     C
O       0.4463   0.0593   0.4069     O
O       0.4463   0.0593   0.5931     O
O       0.4463    0.387   0.0931     O
O       0.4463    0.387   0.9069     O
N       0.4758   0.2379     0.25     N
N       0.4758   0.2379     0.75     N
C         0.49   0.1359   0.3616     C
C         0.49   0.1359   0.6384     C
C         0.49   0.3541   0.1384     C
C         0.49   0.3541   0.8616     C
Co         0.5     -0.0      0.0    Co
Co         0.5     -0.0      0.5    Co
Co         0.5      0.5      0.5    Co
Co         0.5      0.5      1.0    Co
C         0.51   0.6459   0.1384     C
C         0.51   0.6459   0.8616     C
C         0.51   0.8641   0.3616     C
C         0.51   0.8641   0.6384     C
N       0.5242   0.7621     0.25     N
N       0.5242   0.7621     0.75     N
O       0.5537    0.613   0.0931     O
O       0.5537    0.613   0.9069     O
O       0.5537   0.9407   0.4069     O
O       0.5537   0.9407   0.5931     O
C       0.5752   0.7352   0.1964     C
C       0.5752   0.7352   0.8036     C
C       0.5752     0.84   0.3036     C
C       0.5752     0.84   0.6964     C
O       0.5846   0.1969   0.3574     O
O       0.5846   0.1969   0.6426     O
O       0.5846   0.3877   0.1426     O
O       0.5846   0.3877   0.8574     O
O       0.6123   0.1969   0.1426     O
O       0.6123   0.1969   0.8574     O
O       0.6123   0.4154   0.3574     O
O       0.6123   0.4154   0.6426     O
O        0.613   0.0593   0.0931     O
O        0.613   0.0593   0.9069     O
O        0.613   0.5537   0.4069     O
O        0.613   0.5537   0.5931     O
C       0.6459   0.1359   0.1384     C
C       0.6459   0.1359   0.8616     C
C       0.6459     0.51   0.3616     C
C       0.6459     0.51   0.6384     C
Sm     0.66667  0.33334     0.25    Sm
Sm     0.66667  0.33334     0.75    Sm
C       0.6786   0.7855   0.1939     C
C       0.6786   0.7855   0.8061     C
C       0.6786   0.8931   0.3061     C
C       0.6786   0.8931   0.6939     C
H       0.7129   0.7664   0.1553     H
H       0.7129   0.7664   0.8447     H
H       0.7129   0.9465   0.3447     H
H       0.7129   0.9465   0.6553     H
C       0.7302   0.8651     0.25     C
C       0.7302   0.8651     0.75     C
C       0.7352     0.16   0.1964     C
C       0.7352     0.16   0.8036     C
C       0.7352   0.5752   0.3036     C
C       0.7352   0.5752   0.6964     C
N       0.7621   0.2379     0.25     N
N       0.7621   0.2379     0.75     N
N       0.7621   0.5242     0.25     N
N       0.7621   0.5242     0.75     N
H       0.7664   0.0535   0.1553     H
H       0.7664   0.0535   0.8447     H
H       0.7664   0.7129   0.3447     H
H       0.7664   0.7129   0.6553     H
C       0.7855   0.1069   0.1939     C
C       0.7855   0.1069   0.8061     C
C       0.7855   0.6786   0.3061     C
C       0.7855   0.6786   0.6939     C
H       0.7997  0.89985     0.25     H
H       0.7997  0.89985     0.75     H
O       0.8031   0.3877   0.3574     O
O       0.8031   0.3877   0.6426     O
O       0.8031   0.4154   0.1426     O
O       0.8031   0.4154   0.8574     O
C         0.84   0.2648   0.3036     C
C         0.84   0.2648   0.6964     C
C         0.84   0.5752   0.1964     C
C         0.84   0.5752   0.8036     C
C       0.8641   0.3541   0.3616     C
C       0.8641   0.3541   0.6384     C
C       0.8641     0.51   0.1384     C
C       0.8641     0.51   0.8616     C
C       0.8651   0.1349     0.25     C
C       0.8651   0.1349     0.75     C
C       0.8651   0.7302     0.25     C
C       0.8651   0.7302     0.75     C
C       0.8931   0.2145   0.3061     C
C       0.8931   0.2145   0.6939     C
C       0.8931   0.6786   0.1939     C
C       0.8931   0.6786   0.8061     C
H      0.89985  0.10015     0.25     H
H      0.89985  0.10015     0.75     H
H      0.89985   0.7997     0.25     H
H      0.89985   0.7997     0.75     H
O       0.9407    0.387   0.4069     O
O       0.9407    0.387   0.5931     O
O       0.9407   0.5537   0.0931     O
O       0.9407   0.5537   0.9069     O
H       0.9465   0.2336   0.3447     H
H       0.9465   0.2336   0.6553     H
H       0.9465   0.7129   0.1553     H
H       0.9465   0.7129   0.8447     H
