data_I
_chemical_name_common  '/home/zhangsd/repos/MofS-CGCNN/ML/data/TSD/clean_cifs/INEBOT01_clean'
_cell_length_a 17.59100
_cell_length_b 22.78100
_cell_length_c 19.05800
_cell_angle_alpha 90.00000
_cell_angle_beta  93.22500
_cell_angle_gamma 90.00000
_space_group_name_H-M_alt      'P 1'


loop_
_space_group_symop_operation_xyz
  'x, y, z' 

loop_
_atom_site_label
_atom_site_fract_x
_atom_site_fract_y
_atom_site_fract_z
_atom_site_type_symbol
C       0.0007  0.53447   0.7435     C
C       0.0007  0.96553   0.2435     C
N       0.0074   0.1934   0.5924     N
N       0.0074   0.3066   0.0924     N
N       0.0083  0.50216  0.68473     N
N       0.0083  0.99784  0.18473     N
C       0.0119   0.2274   0.0218     C
C       0.0119   0.2726   0.5218     C
H       0.0132   0.1558   0.9563     H
H       0.0132   0.3442   0.4563     H
C       0.0155   0.0431   0.5791     C
C       0.0155   0.4569   0.0791     C
Ni     0.01775   0.6391  0.82467    Ni
Ni     0.01775   0.8609  0.32467    Ni
H       0.0188   0.5669    0.377     H
H       0.0188   0.9331    0.877     H
H       0.0281   0.0682   0.5404     H
H       0.0281   0.4318   0.0404     H
H       0.0341   0.0039     0.57     H
H       0.0341   0.4961     0.07     H
H       0.0355   0.2369   0.8325     H
H       0.0355   0.2631   0.3325     H
C       0.0356    0.173   0.9967     C
C       0.0356    0.327   0.4967     C
H        0.041   0.5173   0.1816     H
H        0.041   0.9827   0.6816     H
C       0.0416   0.5465   0.3387     C
C       0.0416   0.9535   0.8387     C
C       0.0432  0.68799   0.9607     C
C       0.0432  0.81201   0.4607     C
C       0.0434   0.2474   0.5822     C
C       0.0434   0.2526   0.0822     C
N       0.0437  0.73302  0.00546     N
N       0.0437  0.76698  0.50546     N
H       0.0455   0.5741   0.3004     H
H       0.0455   0.9259   0.8004     H
N        0.047  0.58014  0.74741     N
N        0.047  0.91986  0.24741     N
H       0.0474   0.7097    0.245     H
H       0.0474   0.7903    0.745     H
N       0.0526    0.066   0.6467     N
N       0.0526    0.434   0.1467     N
C       0.0538   0.0205   0.7025     C
C       0.0538   0.4795   0.2025     C
C       0.0628  0.52988   0.6482     C
C       0.0628  0.97012   0.1482     C
C       0.0698   0.5416    0.915     C
C       0.0698   0.9584    0.415     C
H       0.0744    0.015   0.0546     H
H       0.0744    0.485   0.5546     H
H       0.0825   0.5167   0.8761     H
H       0.0825   0.9833   0.3761     H
H       0.0826   0.6132   0.0074     H
H       0.0826   0.8868   0.5074     H
H       0.0829   0.7272   0.5936     H
H       0.0829   0.7728   0.0936     H
N       0.0861  0.15877    0.731     N
N       0.0861  0.34123    0.231     N
C       0.0874   0.2288   0.8352     C
C       0.0874   0.2712   0.3352     C
C       0.0876  0.57813   0.6865     C
C       0.0876  0.92187   0.1865     C
C       0.0929   0.5162   0.5821     C
C       0.0929   0.9838   0.0821     C
C       0.0933   0.1472   0.0351     C
C       0.0933   0.3528   0.5351     C
H       0.0943   0.5257   0.9578     H
H       0.0943   0.9743   0.4578     H
C        0.097   0.6379   0.9688     C
C        0.097   0.8621   0.4688     C
N       0.0972   0.6022  0.90346     N
N       0.0972   0.8978  0.40346     N
H       0.1001   0.0609   0.8741     H
H       0.1001   0.4391   0.3741     H
C       0.1002   0.7095   0.2511     C
C       0.1002   0.7905   0.7511     C
C       0.1004   0.7421   0.0631     C
C       0.1004   0.7579   0.5631     C
C       0.1006   0.2231   0.1216     C
C       0.1006   0.2769   0.6216     C
H       0.1048   0.0177   0.7246     H
H       0.1048   0.4823   0.2246     H
H       0.1056   0.7063   0.0905     H
H       0.1056   0.7937   0.5905     H
H       0.1122   0.1116   0.0197     H
H       0.1122   0.3884   0.5197     H
H       0.1139   0.2199   0.4167     H
H       0.1139   0.2801   0.9167     H
N       0.1155   0.6909   0.8113     N
N       0.1155   0.8091   0.3113     N
H       0.1181   0.6318   0.2066     H
H       0.1181   0.8682   0.7066     H
C       0.1189   0.1899   0.7872     C
C       0.1189   0.3101   0.2872     C
C       0.1206  0.52619   0.3631     C
C       0.1206  0.97381   0.8631     C
H       0.1208   0.2386   0.1638     H
H       0.1208   0.2614   0.6638     H
C       0.1258   0.1717    0.097     C
C       0.1258   0.3283    0.597     C
C       0.1289   0.0918   0.6406     C
C       0.1289   0.4082   0.1406     C
H       0.1305   0.1149   0.5979     H
H       0.1305   0.3851   0.0979     H
C       0.1341   0.2459    0.385     C
C       0.1341   0.2541    0.885     C
C       0.1383   0.0327   0.8779     C
C       0.1383   0.4673   0.3779     C
C       0.1399  0.74392   0.7836     C
C       0.1399  0.75608   0.2836     C
C       0.1429   0.1298   0.7038     C
C       0.1429   0.3702   0.2038     C
C        0.143   0.6633   0.2286     C
C        0.143   0.8367   0.7286     C
H       0.1434   0.7108   0.4421     H
H       0.1434   0.7892   0.9421     H
C        0.145   0.6142   0.6637     C
C        0.145   0.8858   0.1637     C
H       0.1479   0.6526   0.9802     H
H       0.1479   0.8474   0.4802     H
C       0.1498    0.551   0.5618     C
C       0.1498    0.949   0.0618     C
H       0.1615   0.6469   0.6896     H
H       0.1615   0.8531   0.1896     H
H       0.1654   0.1522   0.1216     H
H       0.1654   0.3478   0.6216     H
H       0.1672   0.0612   0.6395     H
H       0.1672   0.4388   0.1395     H
H       0.1675   0.6062   0.3595     H
H       0.1675   0.8938   0.8595     H
H       0.1722   0.5424     0.52     H
H       0.1722   0.9576     0.02     H
C       0.1734  0.60473   0.8722     C
C       0.1734  0.89527   0.3722     C
C       0.1766  0.74108   0.5379     C
C       0.1766  0.75892   0.0379     C
C       0.1769   0.5998   0.6011     C
C       0.1769   0.9002   0.1011     C
C       0.1775  0.66444   0.8373     C
C       0.1775  0.83556   0.3373     C
H       0.1781   0.5737   0.8379     H
H       0.1781   0.9263   0.3379     H
C       0.1783   0.5671   0.3697     C
C       0.1783   0.9329   0.8697     C
C       0.1856   0.7151   0.4733     C
C       0.1856   0.7849   0.9733     C
C       0.1972   0.1783   0.7937     C
C       0.1972   0.3217   0.2937     C
N       0.2108   0.1389     0.74     N
N       0.2108   0.3611     0.24     N
C       0.2122   0.0493   0.8984     C
C       0.2122   0.4507   0.3984     C
C       0.2123    0.242   0.8901     C
C       0.2123    0.258   0.3901     C
H        0.214   0.6005   0.9085     H
H        0.214   0.8995   0.4085     H
H       0.2163   0.6224   0.5849     H
H       0.2163   0.8776   0.0849     H
C       0.2197  0.74607   0.7936     C
C       0.2197  0.75393   0.2936     C
C       0.2208   0.6619   0.2374     C
C       0.2208   0.8381   0.7374     C
H       0.2235   0.0883   0.9087     H
H       0.2235   0.4117   0.4087     H
H       0.2387   0.7292   0.1225     H
H       0.2387   0.7708   0.6225     H
N        0.242  0.69538  0.82912     N
C        0.242   0.7495   0.0804     C
C        0.242   0.7505   0.5804     C
N        0.242  0.80462  0.32912     N
H       0.2426   0.2397   0.4252     H
H       0.2426   0.2603   0.9252     H
C       0.2456   0.2043   0.8454     C
C       0.2456   0.2957   0.3454     C
H       0.2467   0.6298   0.2205     H
H       0.2467   0.8702   0.7205     H
C       0.2512  0.55124    0.391     C
C       0.2512  0.94876    0.891     C
C       0.2542  0.69563   0.4543     C
C       0.2542  0.80437   0.9543     C
H       0.2583   0.6779   0.4107     H
H       0.2583   0.8221   0.9107     H
C       0.2619   0.7062   0.2703     C
C       0.2619   0.7938   0.7703     C
C       0.2697   0.0066   0.9034     C
C       0.2697   0.4934   0.4034     C
H       0.2798   0.0773   0.7036     H
H       0.2798   0.4227   0.2036     H
C       0.2849   0.1174   0.7203     C
C       0.2849   0.3826   0.2203     C
H       0.2885     0.58   0.3972     H
H       0.2885     0.92   0.8972     H
H       0.2917   0.2317   0.6974     H
H       0.2917   0.2683   0.1974     H
H       0.2976   0.1963   0.8491     H
H       0.2976   0.3037   0.3491     H
C       0.3113   0.7306   0.5616     C
C       0.3113   0.7694   0.0616     C
C       0.3126    0.212   0.6603     C
C       0.3126    0.288   0.1603     C
H       0.3145     0.68   0.7105     H
H       0.3145     0.82   0.2105     H
H       0.3147   0.7047   0.2767     H
H       0.3147   0.7953   0.7767     H
C       0.3168   0.1553   0.6632     C
C       0.3168   0.3447   0.1632     C
C       0.3184  0.70191   0.4991     C
C       0.3184  0.79809   0.9991     C
C         0.32    0.679   0.8503     C
C         0.32    0.821   0.3503     C
H       0.3202   0.1174   0.7613     H
H       0.3202   0.3826   0.2613     H
H       0.3203   0.6585   0.8949     H
H       0.3203   0.8415   0.3949     H
H       0.3297   0.2145   0.1051     H
H       0.3297   0.2855   0.6051     H
C       0.3376   0.2452   0.6047     C
C       0.3376   0.2548   0.1047     C
C       0.3453   0.1322   0.6104     C
C       0.3453   0.3678   0.1104     C
C       0.3459   0.6494   0.7265     C
C       0.3459   0.8506   0.2265     C
H       0.3484   0.0915   0.6089     H
H       0.3484   0.4085   0.1089     H
C       0.3498   0.0248   0.9239     C
C       0.3498   0.4752   0.4239     C
H       0.3501   0.7144   0.8573     H
H       0.3501   0.7856   0.3573     H
H       0.3542   0.7365   0.5917     H
H       0.3542   0.7635   0.0917     H
C        0.357   0.6401   0.7967     C
C        0.357   0.8599   0.2967     C
O        0.365  0.07894   0.9201     O
O        0.365  0.42106   0.4201     O
H       0.3716   0.6207   0.6301     H
H       0.3716   0.8793   0.1301     H
C       0.3718   0.2222   0.5518     C
C       0.3718   0.2778   0.0518     C
C       0.3737   0.1651   0.5517     C
C       0.3737   0.3349   0.0517     C
C       0.3805   0.6141    0.678     C
C       0.3805   0.8859    0.178     C
C        0.392  0.67146   0.4803     C
C        0.392  0.82854   0.9803     C
H       0.3932   0.1453    0.514     H
H       0.3932   0.3547    0.014     H
O       0.3957   0.6493  0.42145     O
O       0.3957   0.8507  0.92145     O
O      0.39783  0.51568  0.44272     O
O      0.39783  0.98432  0.94272     O
C       0.3982   0.2405   0.9934     C
C       0.3982   0.2595   0.4934     C
O       0.4002   0.1868   0.0027     O
O       0.4002   0.3132   0.5027     O
C       0.4063   0.5958   0.8199     C
C       0.4063   0.9042   0.3199     C
O       0.4155   0.2351   0.4387     O
O       0.4155   0.2649   0.9387     O
H       0.4167   0.5899   0.8678     H
H       0.4167   0.9101   0.3678     H
C       0.4279   0.5695   0.7014     C
C       0.4279   0.9305   0.2014     C
C       0.4407   0.5596   0.7705     C
C       0.4407   0.9404   0.2705     C
O       0.4437  0.67018  0.53052     O
O       0.4437  0.82982  0.03052     O
Ni     0.45885   0.5848  0.38079    Ni
Ni     0.45885   0.9152  0.88079    Ni
Ni     0.46063  0.12529  0.95041    Ni
Ni     0.46063  0.37471  0.45041    Ni
C       0.4644   0.5306   0.6467     C
C       0.4644   0.9694   0.1467     C
O       0.4696  0.07805   0.0394     O
O       0.4696  0.42195   0.5394     O
O      0.46999  0.54994  0.58636     O
O      0.46999  0.95006  0.08636     O
H       0.4722   0.5289   0.7859     H
H       0.4722   0.9711   0.2859     H
O       0.4879  0.01872  0.16931     O
O       0.4879  0.48128  0.66931     O
Ni         0.5      0.0      0.0    Ni
Ni         0.5      0.5      0.5    Ni
O       0.5121  0.51872  0.33069     O
O       0.5121  0.98128  0.83069     O
H       0.5278   0.0289   0.7141     H
H       0.5278   0.4711   0.2141     H
O      0.53001  0.04994  0.91364     O
O      0.53001  0.45006  0.41364     O
O       0.5304  0.57805   0.4606     O
O       0.5304  0.92195   0.9606     O
C       0.5356   0.0306   0.8533     C
C       0.5356   0.4694   0.3533     C
Ni     0.53937  0.62529  0.54959    Ni
Ni     0.53937  0.87471  0.04959    Ni
Ni     0.54115   0.0848  0.11921    Ni
Ni     0.54115   0.4152  0.61921    Ni
O       0.5563  0.17018  0.96948     O
O       0.5563  0.32982  0.46948     O
C       0.5593   0.0596   0.7295     C
C       0.5593   0.4404   0.2295     C
C       0.5721   0.0695   0.7986     C
C       0.5721   0.4305   0.2986     C
H       0.5833   0.0899   0.6322     H
H       0.5833   0.4101   0.1322     H
O       0.5845   0.7351   0.0613     O
O       0.5845   0.7649   0.5613     O
C       0.5937   0.0958   0.6801     C
C       0.5937   0.4042   0.1801     C
O       0.5998   0.6868   0.4973     O
O       0.5998   0.8132   0.9973     O
C       0.6018   0.7405   0.5066     C
C       0.6018   0.7595   0.0066     C
O      0.60217  0.01568  0.05728     O
O      0.60217  0.48432  0.55728     O
O       0.6043   0.1493  0.07855     O
O       0.6043   0.3507  0.57855     O
H       0.6068   0.6453    0.986     H
H       0.6068   0.8547    0.486     H
C        0.608  0.17146   0.0197     C
C        0.608  0.32854   0.5197     C
C       0.6195   0.1141    0.822     C
C       0.6195   0.3859    0.322     C
C       0.6263   0.6651   0.9483     C
C       0.6263   0.8349   0.4483     C
C       0.6282   0.7222   0.9482     C
C       0.6282   0.7778   0.4482     C
H       0.6284   0.1207   0.8699     H
H       0.6284   0.3793   0.3699     H
O        0.635  0.57894   0.5799     O
O        0.635  0.92106   0.0799     O
C        0.643   0.1401   0.7033     C
C        0.643   0.3599   0.2033     C
H       0.6458   0.2365   0.9083     H
H       0.6458   0.2635   0.4083     H
H       0.6499   0.2144   0.6427     H
H       0.6499   0.2856   0.1427     H
C       0.6502   0.5248   0.5761     C
C       0.6502   0.9752   0.0761     C
H       0.6516   0.5915   0.8911     H
H       0.6516   0.9085   0.3911     H
C       0.6541   0.1494   0.7735     C
C       0.6541   0.3506   0.2735     C
C       0.6547   0.6322   0.8896     C
C       0.6547   0.8678   0.3896     C
C       0.6624   0.7452   0.8953     C
C       0.6624   0.7548   0.3953     C
H       0.6703   0.7145   0.3949     H
H       0.6703   0.7855   0.8949     H
H       0.6797   0.1585   0.6051     H
H       0.6797   0.3415   0.1051     H
H       0.6798   0.6174   0.7387     H
H       0.6798   0.8826   0.2387     H
C         0.68    0.179   0.6497     C
C         0.68    0.321   0.1497     C
C       0.6816  0.20191   0.0009     C
C       0.6816  0.29809   0.5009     C
C       0.6832   0.6553   0.8368     C
C       0.6832   0.8447   0.3368     C
H       0.6853   0.2047   0.2233     H
H       0.6853   0.2953   0.7233     H
H       0.6855     0.18   0.7895     H
H       0.6855     0.32   0.2895     H
C       0.6874    0.712   0.8397     C
C       0.6874    0.788   0.3397     C
C       0.6887   0.2306   0.9384     C
C       0.6887   0.2694   0.4384     C
H       0.7024   0.6963   0.6509     H
H       0.7024   0.8037   0.1509     H
H       0.7083   0.7317   0.8026     H
H       0.7083   0.7683   0.3026     H
H       0.7115     0.08   0.1028     H
H       0.7115     0.42   0.6028     H
C       0.7151   0.6174   0.7797     C
C       0.7151   0.8826   0.2797     C
H       0.7202   0.5773   0.7964     H
H       0.7202   0.9227   0.2964     H
C       0.7303   0.5066   0.5966     C
C       0.7303   0.9934   0.0966     C
C       0.7381   0.2062   0.2297     C
C       0.7381   0.2938   0.7297     C
H       0.7417   0.1779   0.0893     H
H       0.7417   0.3221   0.5893     H
C       0.7458  0.19563   0.0457     C
C       0.7458  0.30437   0.5457     C
C       0.7488  0.05124    0.109     C
C       0.7488  0.44876    0.609     C
H       0.7533   0.1298   0.2795     H
H       0.7533   0.3702   0.7795     H
C       0.7544   0.7043   0.6546     C
C       0.7544   0.7957   0.1546     C
H       0.7574   0.7397   0.0748     H
H       0.7574   0.7603   0.5748     H
N        0.758  0.19538  0.67088     N
C        0.758   0.2495   0.4196     C
C        0.758   0.2505   0.9196     C
N        0.758  0.30462  0.17088     N
H       0.7613   0.2292   0.3775     H
H       0.7613   0.2708   0.8775     H
H       0.7765   0.5883   0.5913     H
H       0.7765   0.9117   0.0913     H
C       0.7792   0.1619   0.2626     C
C       0.7792   0.3381   0.7626     C
C       0.7803  0.24607   0.7064     C
C       0.7803  0.25393   0.2064     C
H       0.7837   0.1224   0.9151     H
H       0.7837   0.3776   0.4151     H
H        0.786   0.1005   0.5915     H
H        0.786   0.3995   0.0915     H
C       0.7877    0.742   0.6099     C
C       0.7877    0.758   0.1099     C
C       0.7878   0.5493   0.6016     C
C       0.7878   0.9507   0.1016     C
N       0.7892   0.6389     0.76     N
N       0.7892   0.8611     0.26     N
C       0.8028   0.6783   0.7063     C
C       0.8028   0.8217   0.2063     C
C       0.8144   0.2151   0.0267     C
C       0.8144   0.2849   0.5267     C
C       0.8217   0.0671   0.1303     C
C       0.8217   0.4329   0.6303     C
H       0.8219   0.0737   0.6621     H
H       0.8219   0.4263   0.1621     H
C       0.8225  0.16444   0.6627     C
C       0.8225  0.33556   0.1627     C
C       0.8231   0.0998   0.8989     C
C       0.8231   0.4002   0.3989     C
C       0.8234  0.24108   0.9621     C
C       0.8234  0.25892   0.4621     C
C       0.8266  0.10473   0.6278     C
C       0.8266  0.39527   0.1278     C
H       0.8278   0.0424     0.98     H
H       0.8278   0.4576     0.48     H
H       0.8325   0.1062   0.1405     H
H       0.8325   0.3938   0.6405     H
H       0.8328   0.5612   0.8605     H
H       0.8328   0.9388   0.3605     H
H       0.8346   0.6522   0.3784     H
H       0.8346   0.8478   0.8784     H
H       0.8385   0.1469   0.8104     H
H       0.8385   0.3531   0.3104     H
C       0.8502    0.051   0.9382     C
C       0.8502    0.449   0.4382     C
H       0.8521   0.1526   0.5198     H
H       0.8521   0.3474   0.0198     H
C        0.855   0.1142   0.8363     C
C        0.855   0.3858   0.3363     C
H       0.8566   0.2108   0.0579     H
H       0.8566   0.2892   0.5579     H
C        0.857   0.1633   0.2714     C
C        0.857   0.3367   0.7714     C
C       0.8571   0.6298   0.7962     C
C       0.8571   0.8702   0.2962     C
C       0.8601  0.24392   0.7164     C
C       0.8601  0.25608   0.2164     C
C       0.8617   0.5327   0.6221     C
C       0.8617   0.9673   0.1221     C
C       0.8659   0.7459    0.115     C
C       0.8659   0.7541    0.615     C
H       0.8695   0.6149   0.9021     H
H       0.8695   0.8851   0.4021     H
C       0.8711   0.5918   0.8594     C
C       0.8711   0.9082   0.3594     C
C       0.8742   0.6717    0.403     C
C       0.8742   0.8283    0.903     C
H       0.8792   0.7386   0.3362     H
H       0.8792   0.7614   0.8362     H
C       0.8794  0.02619   0.1369     C
C       0.8794  0.47381   0.6369     C
C       0.8811   0.6899   0.7128     C
C       0.8811   0.8101   0.2128     C
H       0.8819   0.1318   0.2934     H
H       0.8819   0.3682   0.7934     H
N       0.8845   0.1909   0.6887     N
N       0.8845   0.3091   0.1887     N
H       0.8861   0.7199   0.0833     H
H       0.8861   0.7801   0.5833     H
H       0.8878   0.6116   0.4803     H
H       0.8878   0.8884   0.9803     H
H       0.8944   0.2063   0.4095     H
H       0.8944   0.2937   0.9095     H
H       0.8952   0.5177   0.7754     H
H       0.8952   0.9823   0.2754     H
C       0.8994   0.7231   0.3784     C
C       0.8994   0.7769   0.8784     C
C       0.8996   0.2421   0.4369     C
C       0.8996   0.2579   0.9369     C
C       0.8998   0.2095   0.2489     C
C       0.8998   0.2905   0.7489     C
H       0.8999   0.5609   0.6259     H
H       0.8999   0.9391   0.1259     H
N       0.9028   0.1022  0.59654     N
N       0.9028   0.3978  0.09654     N
C        0.903   0.1379   0.5312     C
C        0.903   0.3621   0.0312     C
H       0.9057   0.0257   0.5422     H
H       0.9057   0.4743   0.0422     H
C       0.9067   0.6472   0.4649     C
C       0.9067   0.8528   0.9649     C
C       0.9071   0.0162   0.9179     C
C       0.9071   0.4838   0.4179     C
C       0.9124  0.07813   0.8135     C
C       0.9124  0.42187   0.3135     C
C       0.9126   0.7288   0.6648     C
C       0.9126   0.7712   0.1648     C
N       0.9139  0.65877    0.769     N
N       0.9139  0.84123    0.269     N
H       0.9171   0.2272   0.9064     H
H       0.9171   0.2728   0.4064     H
H       0.9174   0.1132   0.4926     H
H       0.9174   0.3868   0.9926     H
H       0.9175   0.0167   0.6239     H
H       0.9175   0.4833   0.1239     H
H       0.9256    0.515   0.4454     H
H       0.9256    0.985   0.9454     H
C       0.9302   0.0416    0.585     C
C       0.9302   0.4584    0.085     C
C       0.9372  0.02988   0.8518     C
C       0.9372  0.47012   0.3518     C
C       0.9462   0.5205   0.7975     C
C       0.9462   0.9795   0.2975     C
N       0.9474    0.566   0.8533     N
N       0.9474    0.934   0.3533     N
H       0.9526   0.2097    0.255     H
H       0.9526   0.2903    0.755     H
N        0.953  0.08014  0.75259     N
N        0.953  0.41986  0.25259     N
H       0.9545   0.0741   0.1996     H
H       0.9545   0.4259   0.6996     H
N       0.9563  0.23302  0.49454     N
N       0.9563  0.26698  0.99454     N
C       0.9566   0.7474   0.9178     C
C       0.9566   0.7526   0.4178     C
C       0.9568  0.18799   0.5393     C
C       0.9568  0.31201   0.0393     C
C       0.9584   0.0465   0.1613     C
C       0.9584   0.4535   0.6613     C
H        0.959   0.0173   0.3184     H
H        0.959   0.4827   0.8184     H
C       0.9644    0.673   0.5033     C
C       0.9644    0.827   0.0033     C
H       0.9645   0.7369   0.6675     H
H       0.9645   0.7631   0.1675     H
H       0.9659   0.5039     0.93     H
H       0.9659   0.9961     0.43     H
H       0.9719   0.5682   0.9596     H
H       0.9719   0.9318   0.4596     H
H       0.9812   0.0669    0.123     H
H       0.9812   0.4331    0.623     H
Ni     0.98225   0.1391  0.67533    Ni
Ni     0.98225   0.3609  0.17533    Ni
C       0.9845   0.5431   0.9209     C
C       0.9845   0.9569   0.4209     C
H       0.9868   0.6558   0.5437     H
H       0.9868   0.8442   0.0437     H
C       0.9881   0.7274   0.4782     C
C       0.9881   0.7726   0.9782     C
N       0.9917  0.00216  0.81527     N
N       0.9917  0.49784  0.31527     N
N       0.9926   0.6934   0.9076     N
N       0.9926   0.8066   0.4076     N
C       0.9993  0.03447   0.7565     C
C       0.9993  0.46553   0.2565     C
