data_I
_chemical_name_common  '/home/zhangsd/repos/MofS-CGCNN/ML/data/TSD/clean_cifs/INIRII_clean'
_cell_length_a 12.87120
_cell_length_b 21.65520
_cell_length_c 23.50520
_cell_angle_alpha 106.27500
_cell_angle_beta  101.46000
_cell_angle_gamma 94.90900
_space_group_name_H-M_alt      'P 1'


loop_
_space_group_symop_operation_xyz
  'x, y, z' 

loop_
_atom_site_label
_atom_site_fract_x
_atom_site_fract_y
_atom_site_fract_z
_atom_site_type_symbol
O       0.0006    0.692   0.3514     O
H       0.0026   0.3681   0.8196     H
H        0.013   0.2801   0.0543     H
H       0.0183   0.7083   0.5416     H
H       0.0218   0.3256   0.2351     H
H       0.0227   0.7019   0.8356     H
H       0.0232   0.4427   0.8291     H
H       0.0235   0.6768   0.0852     H
C       0.0254    0.389   0.7439     C
C        0.032   0.3222   0.7055     C
Ge       0.032   0.8128   0.5228    Ge
O       0.0342   0.1349   0.6875     O
O       0.0382   0.9688    0.279     O
O       0.0403   0.9057   0.7045     O
O       0.0412   0.4443   0.9579     O
C       0.0424    0.312   0.1965     C
O       0.0455   0.8955   0.5604     O
H       0.0459   0.6014   0.2695     H
C       0.0475   0.4018    0.812     C
C       0.0533   0.5826    0.064     C
Tb      0.0551   0.2027   0.6259    Tb
H       0.0565   0.8645   0.1838     H
H       0.0611   0.4255   0.0827     H
O       0.0622   0.2086   0.2092     O
Tb      0.0627   0.0584   0.3746    Tb
H       0.0628   0.4043   0.1896     H
H       0.0676   0.7629   0.6036     H
O       0.0677   0.0015   0.2013     O
O       0.0698   0.2804   0.7283     O
C       0.0702   0.7475    0.561     C
C       0.0709   0.9614   0.2305     C
H       0.0715   0.6574   0.0276     H
H       0.0756   0.4196   0.7357     H
O        0.077   0.2771   0.0589     O
C       0.0774    0.654   0.0684     C
O        0.087   0.8014   0.4571     O
Tb      0.0905   0.1194   0.2419    Tb
O        0.093   0.0157   0.6359     O
H       0.0949   0.8792   0.8894     H
O       0.0964    0.566   0.7742     O
O       0.1013   0.2047   0.5287     O
C        0.102   0.2552   0.1951     C
Ge      0.1053   0.8973   0.3302    Ge
O       0.1059    0.177   0.4055     O
C       0.1065   0.3698   0.1885     C
N       0.1103   0.8961    0.814     N
C       0.1149   0.8984   0.2091     C
H        0.125   0.2472   0.9578     H
O       0.1261   0.4117   0.0775     O
O       0.1289   0.5546   0.0824     O
O       0.1339   0.8381   0.3705     O
O       0.1387   0.2153   0.3312     O
C       0.1421   0.9114   0.7213     C
O       0.1445   0.9708   0.3883     O
C       0.1451   0.8903    0.869     C
Ge       0.147   0.0895   0.6929    Ge
H       0.1483   0.2089   0.8956     H
Ge      0.1529   0.3491   0.1137    Ge
C       0.1557   0.2165   0.3857     C
H         0.16   0.0678   0.7897     H
O       0.1629   0.7451   0.9616     O
H       0.1648   0.9041   0.1844     H
H       0.1688    0.386   0.2223     H
C       0.1716   0.8771   0.2619     C
H       0.1719   0.8305   0.2479     H
H       0.1737   0.4943   0.6866     H
C       0.1756    0.537   0.7754     C
H       0.1817   0.7077   0.5147     H
C       0.1818   0.2339   0.9375     C
C       0.1832   0.7315   0.5566     C
O       0.1837   0.0856   0.3207     O
H        0.184   0.1432   0.8018     H
C       0.1847   0.9098   0.7847     C
H       0.1863   0.6965   0.1497     H
C       0.1873   0.6877   0.1071     C
O       0.1898   0.2569   0.1782     O
H       0.1917   0.1592   0.9765     H
Ge      0.1919   0.4064   0.8577    Ge
O       0.1955   0.3321   0.8748     O
O       0.1975    0.096   0.4629     O
C       0.1987   0.1015   0.7787     C
H       0.2001   0.7003   0.8039     H
H       0.2027   0.7291   0.0999     H
Ge      0.2031   0.8462   0.4466    Ge
H       0.2036   0.7036   0.5815     H
H       0.2055   0.3032   0.4537     H
O        0.206   0.9188   0.6898     O
Tb      0.2104   0.4722    0.018    Tb
N       0.2149   0.7483   0.7426     N
O        0.216   0.1463   0.6634     O
O       0.2168   0.5184   0.8205     O
Tb       0.217   0.9541   0.5985    Tb
Ge      0.2191   0.1782    0.505    Ge
O       0.2205   0.9243   0.4967     O
C       0.2268   0.5215   0.7221     C
H       0.2303   0.5186    0.215     H
O       0.2322   0.8423   0.5699     O
O       0.2362   0.4725   0.9235     O
C         0.24   0.2678   0.4341     C
C       0.2427   0.1896   0.9687     C
H       0.2455   0.8983   0.2752     H
H       0.2476   0.5618    0.714     H
C       0.2487   0.7164   0.7852     C
C       0.2528      0.9   0.8976     C
C       0.2544   0.7393   0.9861     C
C       0.2666   0.7919   0.5773     C
O       0.2677   0.0436   0.5689     O
O       0.2689   0.1467   0.2415     O
Ge      0.2691   0.3108   0.9375    Ge
H       0.2734    0.795   0.6903     H
H       0.2737   0.8961   0.9365     H
H       0.2824   0.1647   0.9416     H
O       0.2831   0.6857   0.9865     O
O       0.2836   0.5746   0.0237     O
Tb      0.2859   0.0114   0.4693    Tb
O       0.2868   0.3417   0.1215     O
H       0.2885   0.0123   0.2227     H
H       0.2901   0.2853   0.4146     H
O       0.2901   0.3816   0.9993     O
C        0.292   0.7719   0.7178     C
C       0.2925   0.9193   0.8101     C
O       0.2946   0.4023   0.8155     O
Tb      0.2958   0.5786   0.9283    Tb
O       0.2978   0.0421   0.6919     O
H       0.2982   0.4801   0.2912     H
Ge      0.2998   0.6377   0.0906    Ge
O       0.3006   0.1813   0.5778     O
C       0.3022   0.2418   0.4825     C
C       0.3043   0.5375   0.2347     C
H       0.3046    0.581    0.261     H
H       0.3084   0.4459   0.6986     H
H       0.3101   0.7635    0.462     H
Ge      0.3119   0.1226   0.6174    Ge
C       0.3184   0.0991   0.7961     C
Ge      0.3189   0.0812   0.3275    Ge
C       0.3192   0.2284   0.0278     C
C       0.3218   0.7983   0.4445     C
C       0.3233   0.4878   0.7298     C
H       0.3238   0.7786   0.4023     H
H       0.3265   0.8328   0.0056     H
O       0.3267   0.2106   0.0748     O
O       0.3267   0.6511   0.8667     O
N        0.328   0.9152   0.8681     N
H       0.3284   0.8115   0.0642     H
H       0.3334   0.2782   0.5187     H
H       0.3349   0.0872   0.8333     H
C       0.3381   0.7975   0.0228     C
H       0.3416   0.9285   0.7883     H
C       0.3444   0.1373   0.2143     C
O       0.3444   0.4863   0.1011     O
C       0.3528   0.4964   0.2738     C
C       0.3529   0.0501   0.7457     C
O       0.3534   0.0375   0.3822     O
C       0.3538    0.037   0.2513     C
C       0.3544   0.7089   0.7991     C
H        0.358   0.1419   0.8037     H
H       0.3608   0.2225   0.4676     H
O       0.3623   0.7908   0.5991     O
O       0.3625   0.6194   0.1575     O
Tb      0.3677   0.2792     0.18    Tb
Ge      0.3678   0.4739   0.8077    Ge
O       0.3728   0.1709   0.1834     O
O       0.3738   0.2782   0.0258     O
O       0.3783   0.9214   0.4337     O
Ge      0.3807   0.5433   0.1733    Ge
H       0.3828   0.5132    0.723     H
O       0.3884    0.293   0.9114     O
C       0.3922   0.6742   0.8444     C
O       0.3949   0.3868   0.2501     O
O        0.395   0.1597   0.3638     O
C        0.396   0.7616   0.7334     C
C       0.3968   0.4395   0.2369     C
H       0.3999   0.8001   0.3099     H
H       0.4017   0.0064   0.2585     H
C       0.4063   0.0824   0.2223     C
H       0.4101   0.5237   0.3071     H
H       0.4144    0.057   0.1828     H
H       0.4146   0.0187   0.3771     H
Tb      0.4194   0.3923   0.0869    Tb
O       0.4206   0.6902   0.0969     O
O       0.4208   0.5315    0.879     O
N       0.4299   0.7304   0.7744     N
O       0.4301   0.0219   0.7563     O
C       0.4304   0.8396   0.4786     C
H       0.4346   0.8501    0.522     H
O       0.4364   0.4498   0.1953     O
Tb      0.4437   0.3348   0.8311    Tb
H       0.4458   0.7768   0.7148     H
H       0.4485   0.1571   0.3882     H
O       0.4514   0.2978   0.7227     O
C       0.4525   0.7851   0.0251     C
O       0.4529   0.0685   0.5162     O
C        0.453   0.9017   0.4641     C
H         0.46   0.1249   0.7006     H
C         0.46   0.1347   0.6628     C
O       0.4681     0.63    0.981     O
H       0.4697   0.7861   0.9869     H
C       0.4758    0.798   0.3219     C
H       0.4775   0.1012   0.2475     H
O       0.4785   0.4277   0.7999     O
Ge      0.4814   0.7034   0.0383    Ge
H       0.4862   0.8136   0.4697     H
H       0.4877   0.7829   0.3575     H
C       0.4905    0.248   0.7287     C
O       0.4932   0.6722   0.8561     O
H       0.4968   0.1032   0.6394     H
O       0.4995   0.7641   0.2206     O
H       0.4998   0.8202   0.0574     H
H       0.5002   0.1798   0.9426     H
O       0.5005   0.2359   0.7794     O
H       0.5032   0.8968   0.3606     H
O       0.5068   0.3278   0.1439     O
C       0.5095    0.752   0.2713     C
H       0.5123   0.2171   0.6425     H
H       0.5138   0.1864   0.5303     H
Ge      0.5186   0.2966   0.9617    Ge
O       0.5215   0.5723   0.2001     O
H       0.5225   0.8988   0.7525     H
C       0.5242    0.202   0.6781     C
H       0.5303   0.2139   0.0131     H
O       0.5319     0.37    0.019     O
C         0.54   0.8653   0.3372     C
H         0.54   0.8751   0.2994     H
C        0.547   0.0983   0.5359     C
O       0.5471   0.9315   0.4838     O
C       0.5475   0.2149   0.9749     C
O       0.5486   0.7022   0.2773     O
H       0.5515   0.8429   0.6118     H
H       0.5542   0.2232   0.2852     H
Tb      0.5563   0.6652   0.1689    Tb
O       0.5636   0.5502   0.8047     O
H       0.5654   0.1499    0.478     H
C       0.5696   0.1604   0.5214     C
O       0.5699   0.9781   0.2437     O
N       0.5701   0.2696   0.2256     N
O       0.5792   0.4685    0.121     O
O       0.5794   0.3098   0.9031     O
Tb      0.5806   0.6077   0.9131    Tb
H       0.5854   0.9813   0.6229     H
H       0.5856    0.943   0.8172     H
H       0.5899   0.4763   0.6929     H
C       0.5937   0.9176   0.7777     C
H       0.5983   0.9936   0.7415     H
H       0.6001   0.1999   0.6901     H
C       0.6032   0.5605   0.7631     C
C        0.604   0.2384   0.2666     C
O        0.605   0.8403   0.6362     O
O       0.6051   0.6132   0.7499     O
C       0.6078   0.3258   0.1556     C
O       0.6116    0.707   0.0886     O
H       0.6172   0.4868    0.277     H
Ge      0.6193   0.4567   0.8267    Ge
O       0.6217   0.0786   0.5663     O
O       0.6262   0.7218   0.9742     O
O       0.6272   0.8291   0.8166     O
Ge      0.6322   0.5261   0.1923    Ge
Tb      0.6323   0.7208     0.82    Tb
O       0.6375   0.3806   0.8425     O
O       0.6377   0.2092   0.4009     O
H       0.6392   0.7775   0.5324     H
H        0.642   0.8581   0.1963     H
C       0.6456   0.2911   0.2009     C
C       0.6462    0.963   0.7487     C
O       0.6466   0.9625   0.6178     O
C       0.6471   0.9499   0.2543     C
C       0.6472   0.5036   0.7262     C
O       0.6556   0.5137   0.8989     O
C       0.6556   0.8627   0.7857     C
H       0.6584   0.0715   0.2117     H
C       0.6619   0.2025   0.9772     C
H       0.6651   0.9128   0.1667     H
H       0.6666   0.7218   0.4813     H
H       0.6716   0.1885   0.9358     H
N        0.672   0.0848   0.1319     N
O       0.6733   0.3489   0.1333     O
O       0.6733   0.7894   0.9252     O
H       0.6735   0.1672   0.9944     H
H       0.6762   0.2214   0.5977     H
C       0.6767   0.5122   0.2702     C
C       0.6782   0.2017   0.5555     C
C       0.6808   0.7716   0.9722     C
Ge      0.6811   0.9188   0.6725    Ge
C       0.6816   0.9009   0.2039     C
Ge      0.6881   0.8774   0.3826    Ge
H       0.6899   0.2365    0.538     H
H       0.6916   0.5541   0.3014     H
H       0.6954    0.419    0.739     H
C       0.6957   0.4625   0.7653     C
C       0.6978   0.7582   0.5175     C
O       0.6994   0.8187   0.4222     O
Ge      0.7002   0.3623   0.9094    Ge
H       0.7018   0.5199   0.7088     H
O       0.7022   0.9579   0.3081     O
Tb      0.7042   0.4214   0.0717    Tb
O       0.7054   0.5977   0.1845     O
C       0.7075   0.0807   0.1899     C
C        0.708   0.2281   0.2822     C
O       0.7099   0.6184   0.0007     O
H       0.7099   0.7147   0.5854     H
H       0.7115   0.9877   0.7773     H
O       0.7132   0.6583   0.8785     O
Tb      0.7141   0.9886   0.5307    Tb
O       0.7164   0.4254   0.9763     O
O       0.7169   0.3143   0.0135     O
H       0.7176   0.8353   0.0584     H
H       0.7263   0.1039   0.0635     H
H       0.7266    0.205   0.3097     H
Ge      0.7309   0.6892   0.0625    Ge
O       0.7311   0.8533   0.7585     O
O       0.7323   0.9564   0.4311     O
C       0.7334   0.2081   0.4227     C
C       0.7456   0.2607   0.0139     C
C       0.7472      0.1   0.1024     C
C       0.7513   0.2836   0.2148     C
H       0.7524   0.4382    0.286     H
H       0.7545   0.1017   0.7248     H
C       0.7573   0.8104   0.0313     C
C         0.76   0.7322   0.5659     C
O       0.7638   0.5275   0.0765     O
O       0.7678   0.1577   0.4301     O
H       0.7697   0.4814    0.785     H
C       0.7732   0.4785   0.2779     C
O       0.7795   0.0757   0.5033     O
Ge      0.7809   0.8218    0.495    Ge
Tb       0.783   0.0459   0.4015    Tb
O       0.7832   0.4816   0.1795     O
O        0.784   0.8537   0.3366     O
N       0.7851   0.2517   0.2574     N
Tb      0.7896   0.5278    0.982    Tb
O        0.794   0.0812   0.3102     O
H       0.7945   0.6968   0.5463     H
H       0.7964   0.2964   0.4185     H
Ge      0.7969   0.1538   0.5534    Ge
H       0.7973   0.2709   0.9001     H
H       0.7999   0.2997   0.1961     H
C       0.8013   0.8985   0.2213     C
O       0.8025    0.904   0.5371     O
O       0.8045   0.6679   0.1252     O
Ge      0.8081   0.5936   0.1423    Ge
H       0.8083   0.8408   0.0235     H
O       0.8102   0.7431   0.8218     O
C       0.8127   0.3123   0.8929     C
H       0.8137   0.3035   0.8503     H
C       0.8153   0.0902   0.2153     C
H        0.816   0.8568   0.1982     H
O       0.8163   0.9144   0.6793     O
C       0.8168   0.2685   0.4434     C
C       0.8182   0.7661   0.0625     C
H       0.8183   0.2923   0.4853     H
C       0.8244    0.463   0.2246     C
H       0.8263   0.5057   0.3134     H
H       0.8281   0.1695   0.7521     H
C       0.8284   0.1229   0.7381     C
H       0.8312    0.614   0.7777     H
H       0.8352   0.0959   0.8156     H
O       0.8371   0.2549   0.0384     O
H         0.84   0.9322   0.2103     H
C       0.8443   0.7835   0.6143     C
Ge      0.8471   0.6509   0.8863    Ge
H       0.8517   0.7911   0.1044     H
Ge       0.853   0.9105   0.3071    Ge
C       0.8549   0.1097    0.131     C
O       0.8555   0.0292   0.6117     O
C       0.8579   0.0886   0.2787     C
O       0.8613   0.7847   0.6688     O
O       0.8661   0.1619   0.6295     O
O       0.8711   0.4454   0.9176     O
O       0.8739   0.5883   0.9225     O
H        0.875   0.7528   0.0422     H
C       0.8851   0.1016   0.7909     C
N       0.8897   0.1039    0.186     N
C       0.8935   0.6302   0.8115     C
O       0.8941    0.823   0.5945     O
Ge      0.8947   0.1027   0.6698    Ge
C        0.898   0.7448   0.8049     C
O       0.8987   0.7953   0.4713     O
O       0.9036    0.434   0.2258     O
H       0.9051   0.1208   0.1106     H
O        0.907   0.9843   0.3641     O
Tb      0.9095   0.8806   0.7581    Tb
O        0.913   0.1986   0.5429     O
C       0.9226    0.346   0.9316     C
O        0.923   0.7229   0.9411     O
H       0.9244   0.5804   0.2643     H
H       0.9285   0.3426   0.9724     H
C       0.9291   0.0386   0.7695     C
C       0.9298   0.2525    0.439     C
O       0.9302   0.7196   0.2717     O
O       0.9323   0.9985   0.7987     O
H       0.9324   0.2371   0.3964     H
H       0.9372   0.5957   0.8104     H
Tb      0.9373   0.9416   0.6254    Tb
O       0.9378   0.7914   0.7908     O
H       0.9389   0.5745   0.9173     H
H       0.9435   0.1355   0.8162     H
Tb      0.9449   0.7973   0.3741    Tb
C       0.9467   0.4174    0.936     C
C       0.9525   0.5982    0.188     C
H       0.9541   0.3986   0.7305     H
O       0.9545   0.1045   0.4396     O
C       0.9576    0.688   0.8035     C
O       0.9588   0.5557   0.0421     O
O       0.9597   0.0943   0.2955     O
O       0.9618   0.0312    0.721     O
O       0.9658   0.8651   0.3125     O
Ge       0.968   0.1872   0.4772    Ge
C        0.968   0.6778   0.2945     C
C       0.9746    0.611   0.2561     C
H       0.9765   0.3232   0.9148     H
H       0.9768   0.5573   0.1709     H
H       0.9773   0.2981   0.1644     H
H       0.9782   0.6744   0.7649     H
H       0.9817   0.2917   0.4584     H
H        0.987   0.7199   0.9457     H
H       0.9974   0.6319   0.1804     H
O       0.9994    0.308   0.6486     O
