data_I
_chemical_name_common  '/home/zhangsd/repos/MofS-CGCNN/ML/data/TSD/clean_cifs/IQECIS_clean'
_cell_length_a 23.77730
_cell_length_b 23.77730
_cell_length_c 23.77730
_cell_angle_alpha 90.00000
_cell_angle_beta  90.00000
_cell_angle_gamma 90.00000
_space_group_name_H-M_alt      'P 1'


loop_
_space_group_symop_operation_xyz
  'x, y, z' 

loop_
_atom_site_label
_atom_site_fract_x
_atom_site_fract_y
_atom_site_fract_z
_atom_site_type_symbol
C       0.0002   0.7823    0.903     C
F      0.00179  0.08925  0.55212     F
C       0.0029   0.9804   0.7342     C
Co      0.0066  0.55986  0.86587    Co
H        0.008   0.7974   0.8677     H
O      0.00866   0.6257  0.06173     O
Co     0.01127  0.51127  0.98873    Co
H       0.0119   0.9237   0.7971     H
H        0.012   0.1533   0.7263     H
C       0.0124   0.4502   0.7184     C
C      0.01502  0.08451  0.41442     C
H        0.018   0.3396   0.0671     H
O      0.01863  0.03543  0.43396     O
C       0.0196   0.2342   0.4971     C
N      0.02006  0.71173  0.97139     N
H       0.0236   0.1795   0.3584     H
H       0.0278   0.2173   0.4628     H
N      0.02861  0.52006  0.78827     N
C       0.0293   0.7356   0.9227     C
O      0.03543  0.43396  0.01863     O
H       0.0372   0.9722   0.7173     H
H       0.0384   0.2542   0.1088     H
C      0.04008  0.30532  0.56365     C
C       0.0406   0.1511   0.3375     C
C      0.04109  0.09673  0.35791     C
C      0.04221   0.1597  0.70226     C
C       0.0498   0.2816   0.5124     C
N       0.0506  0.12347   0.6598     N
F      0.05212  0.49821  0.91075     F
N      0.05337  0.38209  0.62904     N
C      0.05479   0.3263   0.0667     C
H       0.0572   0.7204   0.8998     H
Co     0.05986  0.63413   0.9934    Co
O      0.06173  0.00866   0.6257     O
C      0.06365  0.45992  0.69468     C
H       0.0647   0.2005   0.2725     H
C       0.0655   0.1638   0.2859     C
O      0.06604  0.98137  0.53543     O
C       0.0667  0.05479   0.3263     C
H       0.0671    0.018   0.3396     H
C       0.0671   0.2747   0.0919     C
O      0.06759  0.61959  0.85001     O
H        0.068   0.2303   0.7419     H
C       0.0728  0.35616  0.58337     C
H       0.0745    0.204   0.1806     H
C      0.07591   0.2059   0.7123     C
H       0.0763   0.2971   0.4881     H
C       0.0773   0.5293   0.7644     C
C      0.08337   0.4272  0.64384     C
C      0.08451  0.41442  0.01502     C
C      0.08558  0.98498  0.58451     C
F      0.08925  0.55212  0.00179     F
C       0.0919   0.0671   0.2747     C
C        0.092   0.1214   0.2536     C
C       0.0956   0.1331    0.626     C
C      0.09673  0.35791  0.04109     C
H       0.0968   0.3973   0.8919     H
C        0.097   0.5002   0.7177     C
H       0.1002   0.5572   0.7796     H
H       0.1027   0.1081   0.5968     H
C       0.1061   0.1836   0.1696     C
H       0.1081   0.5968   0.1027     H
H       0.1087   0.3389   0.8163     H
H       0.1088   0.0384   0.2542     H
N      0.11791  0.37096  0.55337     N
O      0.11959  0.64999  0.93241     O
C       0.1214   0.2536    0.092     C
C      0.12177  0.21513  0.67748     C
C       0.1221   0.1366  0.20078     C
N      0.12347   0.6598   0.0506     N
S      0.12508  0.62508  0.87492     S
O       0.1257  0.43827  0.99134     O
C        0.126   0.4044   0.8669     C
N      0.12904  0.44663  0.61791     N
C       0.1311   0.1781   0.6332     C
H       0.1323    0.508   0.7026     H
C       0.1331    0.626   0.0956     C
C       0.1332   0.3689   0.8219     C
Co     0.13413   0.5066  0.94014    Co
C       0.1366  0.20078   0.1221     C
H       0.1416   0.9764   0.6795     H
C      0.14209  0.95891  0.59673     C
C      0.14384  0.41663   0.5728     C
N      0.14983  0.29712  0.72971     N
O      0.14999  0.56759  0.88041     O
C       0.1511   0.3375   0.0406     C
H       0.1533   0.7263    0.012     H
C       0.1597  0.70226  0.04221     C
N       0.1598   0.4494  0.87653     N
C      0.16021    0.264  0.68688     C
O      0.16031  0.66031  0.83969     O
H       0.1604   0.9329    0.518     H
H       0.1611   0.1837   0.6087     H
C       0.1625   0.9594   0.6511     C
C       0.1638   0.2859   0.0655     C
C       0.1696   0.1061   0.1836     C
C       0.1737   0.9333  0.55479     C
C      0.17748  0.37823  0.78487     C
C       0.1781   0.6332   0.1311     C
H       0.1795   0.3584   0.0236     H
H       0.1806   0.0745    0.204     H
C       0.1836   0.1696   0.1061     C
H       0.1837   0.6087   0.1611     H
C      0.18688  0.33979    0.736     C
C      0.19468  0.43635  0.54008     C
H       0.2005   0.2725   0.0647     H
C      0.20078   0.1221   0.1366     C
C      0.20226  0.45779   0.8403     C
H       0.2026   0.3677    0.492     H
N      0.20288  0.27029  0.64983     N
H       0.2029   0.5119   0.5763     H
H        0.204   0.1806   0.0745     H
C       0.2059   0.7123  0.07591     C
N      0.21173  0.52861  0.97994     N
C       0.2123  0.42409   0.7941     C
C       0.2141   0.9345   0.6638     C
C      0.21513  0.67748  0.12177     C
H       0.2173   0.4628   0.0278     H
C       0.2177    0.403   0.4998     C
C       0.2184   0.4876   0.5498     C
H       0.2204   0.6002   0.9428     H
C       0.2253   0.9081   0.5671     C
H       0.2263    0.488   0.8467     H
H       0.2275   0.9353   0.7005     H
N      0.22971  0.35017  0.70288     N
H       0.2303   0.7419    0.068     H
C       0.2342   0.4971   0.0196     C
C       0.2356   0.5773   0.9707     C
C        0.236  0.31312  0.66021     C
H       0.2419    0.432   0.7697     H
H       0.2458   0.8912   0.5384     H
C       0.2464    0.908   0.6214     C
C       0.2536    0.092   0.1214     C
H       0.2542   0.1088   0.0384     H
H       0.2581    0.568   0.2697     H
C        0.264  0.68688  0.16021     C
C       0.2644   0.4227   0.4707     C
C       0.2658   0.5029   0.5196     C
H       0.2697   0.2581    0.568     H
N      0.27029  0.64983  0.20288     N
H       0.2725   0.0647   0.2005     H
H       0.2737    0.512   0.3467     H
C       0.2747   0.0919   0.0671     C
H       0.2796   0.3998   0.4428     H
C       0.2816   0.5124   0.0498     C
C       0.2823    0.597   0.9998     C
H       0.2827   0.5372   0.5278     H
C      0.28487  0.32252  0.62177     C
C       0.2859   0.0655   0.1638     C
C       0.2877  0.57591   0.2941     C
N      0.28827  0.47139  0.47994     N
C       0.2941   0.2877  0.57591     C
H        0.296   0.8194   0.5745     H
H       0.2971   0.4881   0.0763     H
N      0.29712  0.72971  0.14983     N
H       0.2974   0.6323    0.992     H
C      0.29774  0.54221   0.3403     C
C      0.29922   0.8779   0.6366     C
H       0.2995   0.7275   0.5647     H
C      0.30532  0.56365  0.04008     C
C      0.31312  0.66021    0.236     C
H       0.3163   0.3913   0.6611     H
C       0.3164   0.8304   0.6061     C
H       0.3194   0.9255    0.704     H
H       0.3205   0.6416   0.5236     H
C       0.3219   0.3668   0.6311     C
C      0.32252  0.62177  0.28487     C
C       0.3263   0.0667  0.05479     C
C       0.3304   0.8939   0.6836     C
C       0.3362   0.7141   0.5655     C
C       0.3375   0.0406   0.1511     C
H       0.3389   0.8163   0.1087     H
H       0.3396   0.0671    0.018     H
O      0.33969  0.33969  0.33969     O
C      0.33979    0.736  0.18688     C
N       0.3402   0.5506  0.37653     N
C       0.3403  0.29774  0.54221     C
H       0.3467   0.2737    0.512     H
C       0.3489   0.6625   0.5406     C
O      0.35001  0.43241  0.38041     O
N      0.35017  0.70288  0.22971     N
C      0.35616  0.58337   0.0728     C
C      0.35791  0.04109  0.09673     C
H       0.3584   0.0236   0.1795     H
C       0.3634  0.79922   0.6221     C
Co     0.36587   0.4934  0.44014    Co
C       0.3668   0.6311   0.3219     C
C       0.3669    0.374   0.5956     C
H       0.3677    0.492   0.2026     H
C       0.3689   0.8219   0.1332     C
N      0.37096  0.55337  0.11791     N
C        0.374   0.5956   0.3669     C
O       0.3743  0.56173  0.49134     O
S      0.37492  0.37492  0.37492     S
N      0.37653   0.3402   0.5506     N
C       0.3779   0.8634  0.70078     C
C      0.37823  0.78487  0.17748     C
C       0.3786   0.7464    0.592     C
O      0.38041  0.35001  0.43241     O
N      0.38209  0.62904  0.05337     N
H       0.3912   0.9616   0.7542     H
H       0.3913   0.6611   0.3163     H
H       0.3919   0.4032   0.6027     H
C       0.3939   0.8164   0.6696     C
H       0.3973   0.8919   0.0968     H
H       0.3998   0.4428   0.2796     H
C        0.403   0.4998   0.2177     C
H       0.4032   0.6027   0.3919     H
C      0.40327  0.64209  0.54109     C
C       0.4044   0.8669    0.126     C
C        0.408   0.8786   0.7536     C
C       0.4081   0.9329   0.7747     C
F      0.41075  0.44788  0.50179     F
C      0.41442  0.01502  0.08451     C
C      0.41549  0.58558  0.51502     C
C      0.41663   0.5728  0.14384     C
C       0.4227   0.4707   0.2644     C
H       0.4237   0.7029   0.9881     H
C      0.42409   0.7941   0.2123     C
H       0.4255    0.796   0.6806     H
C       0.4272  0.64384  0.08337     C
H        0.432   0.7697   0.2419     H
O      0.43241  0.38041  0.35001     O
C       0.4329   0.7253   0.5919     C
H       0.4329    0.982   0.8396     H
C       0.4333  0.94521   0.8263     C
O      0.43396  0.01863  0.03543     O
C       0.4345   0.8362   0.7859     C
H       0.4353   0.7995   0.7725     H
C      0.43635  0.54008  0.19468     C
O      0.43827  0.99134   0.1257     O
Co     0.44014  0.36587   0.4934    Co
H       0.4428   0.2796   0.3998     H
C      0.44521   0.6737   0.5667     C
N      0.44663  0.61791  0.12904     N
F      0.44788  0.50179  0.41075     F
N       0.4494  0.87653   0.1598     N
C       0.4502   0.7184   0.0124     C
C      0.45779   0.8403  0.20226     C
C      0.45891  0.90327  0.85791     C
C       0.4594   0.8489   0.8375     C
C      0.45992  0.69468  0.06365     C
H       0.4616   0.7458   0.6088     H
H       0.4628   0.0278   0.2173     H
O      0.46457  0.56604  0.51863     O
C       0.4707   0.2644   0.4227     C
N      0.47139  0.47994  0.28827     N
H       0.4722   0.7827   0.9628     H
H       0.4764   0.8205   0.8584     H
N      0.47994  0.28827  0.47139     N
C       0.4804   0.7658   0.9971     C
O      0.48137  0.96457  0.93396     O
H        0.482   0.6604   0.5671     H
C      0.48498  0.91549  0.91442     C
C       0.4876   0.5498   0.2184     C
H        0.488   0.8467   0.2263     H
H       0.4881   0.0763   0.2971     H
Co     0.48873  0.48873  0.48873    Co
O      0.49134   0.3743  0.56173     O
H        0.492   0.2026   0.3677     H
Co      0.4934  0.44014  0.36587    Co
C       0.4971   0.0196   0.2342     C
F      0.49821  0.91075  0.05212     F
C       0.4998   0.2177    0.403     C
C       0.5002   0.7177    0.097     C
F      0.50179  0.41075  0.44788     F
C       0.5029   0.5196   0.2658     C
Co      0.5066  0.94014  0.13413    Co
H        0.508   0.7026   0.1323     H
O      0.50866   0.8743  0.93827     O
Co     0.51127  0.98873  0.01127    Co
H       0.5119   0.5763   0.2029     H
H        0.512   0.3467   0.2737     H
C       0.5124   0.0498   0.2816     C
C      0.51502  0.41549  0.58558     C
H        0.518   0.1604   0.9329     H
O      0.51863  0.46457  0.56604     O
C       0.5196   0.2658   0.5029     C
N      0.52006  0.78827  0.02861     N
H       0.5236   0.3205   0.6416     H
H       0.5278   0.2827   0.5372     H
N      0.52861  0.97994  0.21173     N
C       0.5293   0.7644   0.0773     C
O      0.53543  0.06604  0.98137     O
H       0.5372   0.5278   0.2827     H
H       0.5384   0.2458   0.8912     H
C      0.54008  0.19468  0.43635     C
C       0.5406   0.3489   0.6625     C
C      0.54109  0.40327  0.64209     C
C      0.54221   0.3403  0.29774     C
C       0.5498   0.2184   0.4876     C
N       0.5506  0.37653   0.3402     N
F      0.55212  0.00179  0.08925     F
N      0.55337  0.11791  0.37096     N
C      0.55479   0.1737   0.9333     C
H       0.5572   0.7796   0.1002     H
Co     0.55986  0.86587   0.0066    Co
O      0.56173  0.49134   0.3743     O
C      0.56365  0.04008  0.30532     C
H       0.5647   0.2995   0.7275     H
C       0.5655   0.3362   0.7141     C
O      0.56604  0.51863  0.46457     O
C       0.5667  0.44521   0.6737     C
C       0.5671   0.2253   0.9081     C
H       0.5671    0.482   0.6604     H
O      0.56759  0.88041  0.14999     O
H        0.568   0.2697   0.2581     H
C       0.5728  0.14384  0.41663     C
H       0.5745    0.296   0.8194     H
C      0.57591   0.2941   0.2877     C
H       0.5763   0.2029   0.5119     H
C       0.5773   0.9707   0.2356     C
C      0.58337   0.0728  0.35616     C
C      0.58451  0.08558  0.98498     C
C      0.58558  0.51502  0.41549     C
F      0.58925  0.94788  0.99821     F
C       0.5919   0.4329   0.7253     C
C        0.592   0.3786   0.7464     C
C       0.5956   0.3669    0.374     C
C      0.59673  0.14209  0.95891     C
H       0.5968   0.1027   0.1081     H
C        0.597   0.9998   0.2823     C
H       0.6002   0.9428   0.2204     H
H       0.6027   0.3919   0.4032     H
C       0.6061   0.3164   0.8304     C
H       0.6081   0.9032   0.8973     H
H       0.6087   0.1611   0.1837     H
H       0.6088   0.4616   0.7458     H
N      0.61791  0.12904  0.44663     N
O      0.61959  0.85001  0.06759     O
C       0.6214   0.2464    0.908     C
C      0.62177  0.28487  0.32252     C
C       0.6221   0.3634  0.79922     C
N      0.62347   0.8402   0.9494     N
S      0.62508  0.87492  0.12508     S
O       0.6257  0.06173  0.00866     O
C        0.626   0.0956   0.1331     C
N      0.62904  0.05337  0.38209     N
C       0.6311   0.3219   0.3668     C
H       0.6323    0.992   0.2974     H
C       0.6331    0.874   0.9044     C
C       0.6332   0.1311   0.1781     C
Co     0.63413   0.9934  0.05986    Co
C       0.6366  0.29922   0.8779     C
H       0.6416   0.5236   0.3205     H
C      0.64209  0.54109  0.40327     C
C      0.64384  0.08337   0.4272     C
N      0.64983  0.20288  0.27029     N
O      0.64999  0.93241  0.11959     O
C       0.6511   0.1625   0.9594     C
H       0.6533   0.7737    0.988     H
C       0.6597  0.79774  0.95779     C
N       0.6598   0.0506  0.12347     N
C      0.66021    0.236  0.31312     C
O      0.66031  0.83969  0.16031     O
H       0.6604   0.5671    0.482     H
H       0.6611   0.3163   0.3913     H
C       0.6625   0.5406   0.3489     C
C       0.6638   0.2141   0.9345     C
C       0.6696   0.3939   0.8164     C
C       0.6737   0.5667  0.44521     C
C      0.67748  0.12177  0.21513     C
C       0.6781   0.8668   0.8689     C
H       0.6795   0.1416   0.9764     H
H       0.6806   0.4255    0.796     H
C       0.6836   0.3304   0.8939     C
H       0.6837   0.8913   0.8389     H
C      0.68688  0.16021    0.264     C
C      0.69468  0.06365  0.45992     C
H       0.7005   0.2275   0.9353     H
C      0.70078   0.3779   0.8634     C
C      0.70226  0.04221   0.1597     C
H       0.7026   0.1323    0.508     H
N      0.70288  0.22971  0.35017     N
H       0.7029   0.9881   0.4237     H
H        0.704   0.3194   0.9255     H
C       0.7059   0.7877  0.92409     C
N      0.71173  0.97139  0.02006     N
C       0.7123  0.07591   0.2059     C
C       0.7141   0.5655   0.3362     C
C      0.71513  0.82252  0.87823     C
H       0.7173   0.0372   0.9722     H
C       0.7177    0.097   0.5002     C
C       0.7184   0.0124   0.4502     C
H       0.7204   0.8998   0.0572     H
C       0.7253   0.5919   0.4329     C
H       0.7263    0.012   0.1533     H
H       0.7275   0.5647   0.2995     H
N      0.72971  0.14983  0.29712     N
H       0.7303   0.7581    0.932     H
C       0.7342   0.0029   0.9804     C
C       0.7356   0.9227   0.0293     C
C        0.736  0.18688  0.33979     C
H       0.7419    0.068   0.2303     H
H       0.7458   0.6088   0.4616     H
C       0.7464    0.592   0.3786     C
C       0.7536    0.408   0.8786     C
H       0.7542   0.3912   0.9616     H
H       0.7581    0.932   0.7303     H
C        0.764  0.81312  0.83979     C
C       0.7644   0.0773   0.5293     C
C       0.7658   0.9971   0.4804     C
H       0.7697   0.2419    0.432     H
N      0.77029  0.85017  0.79712     N
H       0.7725   0.4353   0.7995     H
H       0.7737    0.988   0.6533     H
C       0.7747   0.4081   0.9329     C
H       0.7796   0.1002   0.5572     H
C       0.7816   0.9876   0.9502     C
C       0.7823    0.903   0.0002     C
H       0.7827   0.9628   0.4722     H
C      0.78487  0.17748  0.37823     C
C       0.7859   0.4345   0.8362     C
C       0.7877  0.92409   0.7059     C
N      0.78827  0.02861  0.52006     N
C       0.7941   0.2123  0.42409     C
H        0.796   0.6806   0.4255     H
H       0.7971   0.0119   0.9237     H
N      0.79712  0.77029  0.85017     N
H       0.7974   0.8677    0.008     H
C      0.79774  0.95779   0.6597     C
C      0.79922   0.6221   0.3634     C
H       0.7995   0.7725   0.4353     H
C      0.80532  0.93635  0.95992     C
C      0.81312  0.83979    0.764     C
H       0.8163   0.1087   0.3389     H
C       0.8164   0.6696   0.3939     C
H       0.8194   0.5745    0.296     H
H       0.8205   0.8584   0.4764     H
C       0.8219   0.1332   0.3689     C
C      0.82252  0.87823  0.71513     C
C       0.8263   0.4333  0.94521     C
C       0.8304   0.6061   0.3164     C
C       0.8362   0.7859   0.4345     C
C       0.8375   0.4594   0.8489     C
H       0.8389   0.6837   0.8913     H
H       0.8396   0.4329    0.982     H
O      0.83969  0.16031  0.66031     O
C      0.83979    0.764  0.81312     C
N       0.8402   0.9494  0.62347     N
C       0.8403  0.20226  0.45779     C
H       0.8467   0.2263    0.488     H
C       0.8489   0.8375   0.4594     C
O      0.85001  0.06759  0.61959     O
N      0.85017  0.79712  0.77029     N
C      0.85616  0.91663   0.9272     C
C      0.85791  0.45891  0.90327     C
H       0.8584   0.4764   0.8205     H
C       0.8634  0.70078   0.3779     C
Co     0.86587   0.0066  0.55986    Co
C       0.8668   0.8689   0.6781     C
C       0.8669    0.126   0.4044     C
H       0.8677    0.008   0.7974     H
C       0.8689   0.6781   0.8668     C
N      0.87096  0.94663  0.88209     N
C        0.874   0.9044   0.6331     C
O       0.8743  0.93827  0.50866     O
S      0.87492  0.12508  0.62508     S
N      0.87653   0.1598   0.4494     N
C       0.8779   0.6366  0.29922     C
C      0.87823  0.71513  0.82252     C
C       0.8786   0.7536    0.408     C
O      0.88041  0.14999  0.56759     O
N      0.88209  0.87096  0.94663     N
H       0.8912   0.5384   0.2458     H
H       0.8913   0.8389   0.6837     H
H       0.8919   0.0968   0.3973     H
C       0.8939   0.6836   0.3304     C
H       0.8973   0.6081   0.9032     H
H       0.8998   0.0572   0.7204     H
C        0.903   0.0002   0.7823     C
H       0.9032   0.8973   0.6081     H
C      0.90327  0.85791  0.45891     C
C       0.9044   0.6331    0.874     C
C        0.908   0.6214   0.2464     C
C       0.9081   0.5671   0.2253     C
F      0.91075  0.05212  0.49821     F
C      0.91442  0.48498  0.91549     C
C      0.91549  0.91442  0.48498     C
C      0.91663   0.9272  0.85616     C
C       0.9227   0.0293   0.7356     C
H       0.9237   0.7971   0.0119     H
C      0.92409   0.7059   0.7877     C
H       0.9255    0.704   0.3194     H
C       0.9272  0.85616  0.91663     C
H        0.932   0.7303   0.7581     H
O      0.93241  0.11959  0.64999     O
H       0.9329    0.518   0.1604     H
C       0.9329   0.7747   0.4081     C
C       0.9333  0.55479   0.1737     C
O      0.93396  0.48137  0.96457     O
C       0.9345   0.6638   0.2141     C
H       0.9353   0.7005   0.2275     H
C      0.93635  0.95992  0.80532     C
O      0.93827  0.50866   0.8743     O
Co     0.94014  0.13413   0.5066    Co
H       0.9428   0.2204   0.6002     H
C      0.94521   0.8263   0.4333     C
N      0.94663  0.88209  0.87096     N
F      0.94788  0.99821  0.58925     F
N       0.9494  0.62347   0.8402     N
C       0.9502   0.7816   0.9876     C
C      0.95779   0.6597  0.79774     C
C      0.95891  0.59673  0.14209     C
C       0.9594   0.6511   0.1625     C
C      0.95992  0.80532  0.93635     C
H       0.9616   0.7542   0.3912     H
H       0.9628   0.4722   0.7827     H
O      0.96457  0.93396  0.48137     O
C       0.9707   0.2356   0.5773     C
N      0.97139  0.02006  0.71173     N
H       0.9722   0.7173   0.0372     H
H       0.9764   0.6795   0.1416     H
N      0.97994  0.21173  0.52861     N
C       0.9804   0.7342   0.0029     C
O      0.98137  0.53543  0.06604     O
H        0.982   0.8396   0.4329     H
C      0.98498  0.58451  0.08558     C
C       0.9876   0.9502   0.7816     C
H        0.988   0.6533   0.7737     H
H       0.9881   0.4237   0.7029     H
Co     0.98873  0.01127  0.51127    Co
O      0.99134   0.1257  0.43827     O
H        0.992   0.2974   0.6323     H
Co      0.9934  0.05986  0.63413    Co
C       0.9971   0.4804   0.7658     C
F      0.99821  0.58925  0.94788     F
C       0.9998   0.2823    0.597     C
