data_I
_chemical_name_common  '/home/zhangsd/repos/MofS-CGCNN/ML/data/TSD/clean_cifs/IQEWOQ_clean'
_cell_length_a 10.24800
_cell_length_b 11.71500
_cell_length_c 15.15900
_cell_angle_alpha 91.81000
_cell_angle_beta  90.00000
_cell_angle_gamma 90.00000
_space_group_name_H-M_alt      'P 1'


loop_
_space_group_symop_operation_xyz
  'x, y, z' 

loop_
_atom_site_label
_atom_site_fract_x
_atom_site_fract_y
_atom_site_fract_z
_atom_site_type_symbol
Mn         0.0      0.0      0.0    Mn
Mn         0.0      0.5     -0.0    Mn
O       0.0118   0.3724  0.78529     O
O       0.0144   0.5365  0.86213     O
C       0.0242   0.4796   0.7941     C
O       0.0254   0.3125  0.98059     O
H       0.0429   0.5193   0.7426     H
O       0.0614   0.8067  0.36569     O
Mn     0.07694  0.75691  0.13214    Mn
O       0.0845   0.1496  0.80496     O
C       0.0909   0.2582   0.0367     C
O       0.0989   0.1546   0.0419     O
Mn     0.11206  0.26155  0.69035    Mn
O       0.1182    0.994   0.8828     O
H       0.1253   0.0531   0.5542     H
O       0.1338   0.3982  0.60213     O
H       0.1381   0.3023   0.0786     H
C        0.141   0.0562   0.8213     C
O       0.1554    0.902  0.06488     O
C       0.1681   0.8235   0.3309     C
O       0.1955   0.8061  0.24953     O
H       0.2072   0.0322    0.782     H
O       0.2088   0.5148    0.013     O
H       0.2109   0.4998   0.5262     H
C       0.2142   0.0724   0.5583     C
C       0.2276   0.4375   0.5622     C
H       0.2354   0.8517   0.3676     H
O       0.2446    0.156  0.61025     O
O       0.2554    0.656  0.11025     O
H       0.2646   0.3517   0.8676     H
C       0.2724   0.9375   0.0622     C
C       0.2858   0.5724   0.0583     C
H       0.2891   0.9998   0.0262     H
O       0.2912   0.0148    0.513     O
H       0.2928   0.5322    0.282     H
O       0.3045   0.3061  0.74953     O
C       0.3319   0.3235   0.8309     C
O       0.3446    0.402  0.56488     O
C        0.359   0.5562   0.3213     C
H       0.3619   0.8023   0.5786     H
O       0.3662   0.8982  0.10213     O
H       0.3747   0.5531   0.0542     H
O       0.3818    0.494   0.3828     O
Mn     0.38794  0.76155  0.19035    Mn
O       0.4011   0.6546   0.5419     O
C       0.4091   0.7582   0.5367     C
O       0.4155   0.6496  0.30496     O
Mn     0.42306  0.25691  0.63214    Mn
O       0.4386   0.3067  0.86569     O
H       0.4571   0.0193   0.2426     H
O       0.4746   0.8125  0.48059     O
C       0.4758   0.9796   0.2941     C
O       0.4856   0.0365  0.36213     O
O       0.4882   0.8724  0.28529     O
Mn         0.5      0.0      0.5    Mn
Mn         0.5      0.5      0.5    Mn
O       0.5118   0.1276  0.71471     O
O       0.5144   0.9635  0.63787     O
C       0.5242   0.0204   0.7059     C
O       0.5254   0.1875  0.51941     O
H       0.5429   0.9807   0.7574     H
O       0.5614   0.6933  0.13431     O
Mn     0.57694  0.74309  0.36786    Mn
O       0.5845   0.3504  0.69504     O
C       0.5909   0.2418   0.4633     C
O       0.5989   0.3454   0.4581     O
Mn     0.61206  0.23845  0.80965    Mn
O       0.6182    0.506   0.6172     O
H       0.6253   0.4469   0.9458     H
O       0.6338   0.1018  0.89787     O
H       0.6381   0.1977   0.4214     H
C        0.641   0.4438   0.6787     C
O       0.6554    0.598  0.43512     O
C       0.6681   0.6765   0.1691     C
O       0.6955   0.6939  0.25047     O
H       0.7072   0.4678    0.718     H
O       0.7088   0.9852    0.487     O
H       0.7109   0.0002   0.9738     H
C       0.7142   0.4276   0.9417     C
C       0.7276   0.0625   0.9378     C
H       0.7354   0.6483   0.1324     H
O       0.7446    0.344  0.88975     O
O       0.7554    0.844  0.38975     O
H       0.7646   0.1483   0.6324     H
C       0.7724   0.5625   0.4378     C
C       0.7858   0.9276   0.4417     C
H       0.7891   0.5002   0.4738     H
O       0.7912   0.4852    0.987     O
H       0.7928   0.9678    0.218     H
O       0.8045   0.1939  0.75047     O
C       0.8319   0.1765   0.6691     C
O       0.8446    0.098  0.93512     O
C        0.859   0.9438   0.1787     C
H       0.8619   0.6977   0.9214     H
O       0.8662   0.6018  0.39787     O
H       0.8747   0.9469   0.4458     H
O       0.8818    0.006   0.1172     O
Mn     0.88794  0.73845  0.30965    Mn
O       0.9011   0.8454   0.9581     O
C       0.9091   0.7418   0.9633     C
O       0.9155   0.8504  0.19504     O
Mn     0.92306  0.24309  0.86786    Mn
O       0.9386   0.1933  0.63431     O
H       0.9571   0.4807   0.2574     H
O       0.9746   0.6875  0.01941     O
C       0.9758   0.5204   0.2059     C
O       0.9856   0.4635  0.13787     O
O       0.9882   0.6276  0.21471     O
