data_I
_chemical_name_common  '/home/zhangsd/repos/MofS-CGCNN/ML/data/TSD/clean_cifs/IQIJIC_clean'
_cell_length_a 13.64400
_cell_length_b 13.64400
_cell_length_c 26.60900
_cell_angle_alpha 99.28860
_cell_angle_beta  99.28860
_cell_angle_gamma 104.46400
_space_group_name_H-M_alt      'P 1'


loop_
_space_group_symop_operation_xyz
  'x, y, z' 

loop_
_atom_site_label
_atom_site_fract_x
_atom_site_fract_y
_atom_site_fract_z
_atom_site_type_symbol
Co         0.0      0.5      0.5    Co
C       0.0093   0.2467   0.7612     C
C        0.011    0.784     0.19     C
H       0.0135   0.3077   0.6684     H
H       0.0137   0.4893   0.9062     H
C       0.0143   0.5669  0.61822     C
H       0.0148   0.6016   0.6944     H
C       0.0183   0.6017   0.9594     C
H       0.0214   0.8448   0.1069     H
O       0.0251   0.7473  0.49459     O
H       0.0359   0.8589   0.1959     H
C       0.0364   0.9048   0.7235     C
O       0.0454   0.1672  0.27064     O
H       0.0498   0.2056   0.7458     H
H       0.0528   0.2388   0.8363     H
H       0.0535   0.9161   0.6921     H
H       0.0536   0.4756   0.3908     H
C       0.0556   0.6116   0.6698     C
H       0.0559   0.7667   0.2633     H
C        0.059   0.5442   0.9314     C
H         0.06   0.1742   0.3698     H
H       0.0638    0.655   0.9854     H
N      0.06594  0.58066  0.58038     N
O       0.0665   0.3587  0.77093     O
H       0.0751   0.2715   0.9991     H
C         0.08   0.7076   0.4706     C
C       0.0818    0.348   0.6804     C
O       0.0823   0.7417   0.1728     O
H       0.0839   0.9465   0.8079     H
C       0.0859   0.8359   0.1045     C
H       0.0865   0.8919   0.4524     H
C       0.0915   0.4077   0.0451     C
O      0.09357  0.61923  0.47223     O
C       0.0952   0.9636   0.7765     C
H       0.1081   0.9135   0.0476     H
C       0.1138   0.2232   0.3626     C
H       0.1139   0.3515   0.6108     H
C       0.1172   0.2296    0.313     C
C       0.1214    0.382   0.7329     C
C       0.1229   0.8617   0.4308     C
C       0.1239   0.3305     0.02     C
C       0.1292   0.7824   0.1354     C
C       0.1341   0.7665   0.4349     C
C       0.1383   0.8771   0.0692     C
H       0.1411   0.9641   0.3041     H
C       0.1422   0.3734   0.6464     C
H       0.1514    0.548   0.0915     H
H       0.1552   0.9786   0.3931     H
H       0.1557   0.4493   0.8699     H
C       0.1571   0.6715   0.6853     C
C       0.1641   0.9141   0.3955     C
C       0.1648   0.6404   0.5949     C
O       0.1672   0.0454  0.77064     O
C       0.1683   0.4913   0.0739     C
C       0.1703   0.5563    0.935     C
H       0.1721   0.6853   0.7647     H
H       0.1742     0.06   0.8698     H
H       0.1888   0.2836   0.4373     H
C       0.1903   0.2895   0.4031     C
C       0.1911   0.7237   0.4038     C
C       0.1945   0.3033   0.3021     C
H       0.1968   0.3082   0.2678     H
H       0.2006   0.6596   0.4068     H
H       0.2032   0.6522   0.5695     H
C       0.2034   0.4968   0.8974     C
C       0.2034   0.7172   0.7407     C
H       0.2056   0.0498   0.2458     H
C        0.211   0.6844   0.6464     C
C        0.216    0.989     0.31     C
C       0.2176   0.8708   0.3646     C
C       0.2212   0.4444   0.7501     C
C       0.2232   0.1138   0.8626     C
C       0.2252   0.7652   0.1322     C
C       0.2284   0.3386   0.0254     C
H       0.2293   0.6679     -0.0     H
C       0.2296   0.1172    0.813     C
H       0.2333   0.9441   0.2367     H
C       0.2335   0.8659   0.0651     C
C       0.2348   0.7748   0.3678     C
H       0.2388   0.0528   0.3363     H
C       0.2456   0.4312  0.66267     C
C       0.2467   0.0093   0.2612     C
H       0.2472   0.4724   0.7854     H
C       0.2472   0.6252   0.9743     C
H       0.2474   0.2842   0.0071     H
O       0.2527   0.9749  0.00541     O
H       0.2536   0.7264    0.153     H
O       0.2583   0.9177   0.3272     O
C       0.2679   0.3633   0.3928     C
C       0.2692   0.3702   0.3428     C
H       0.2715   0.0751   0.4991     H
C       0.2721   0.4937   0.0778     C
H       0.2736   0.7464    0.347     H
O      0.27406  0.43088  0.57758     O
C       0.2763   0.8089   0.0962     C
H       0.2764     0.72    0.845     H
H         0.28   0.7236    0.655     H
C       0.2808   0.4648   0.7155     C
C       0.2828   0.7966   0.7593     C
H       0.2836   0.1888   0.9373     H
H       0.2842   0.2474   0.5071     H
C       0.2895   0.1903   0.9031     C
C       0.2924     0.92   0.0294     C
N      0.30275  0.41825  0.05446     N
C       0.3033   0.1945   0.8021     C
C       0.3072   0.5092  0.90148     C
H       0.3077   0.0135   0.1684     H
H       0.3082   0.1968   0.7678     H
C       0.3135   0.4495   0.6257     C
H       0.3147   0.8279   0.7353     H
C       0.3156    0.789   0.8536     C
H       0.3216    0.421   0.3357     H
H       0.3221   0.6013    0.497     H
H       0.3225   0.5523    0.098     H
H       0.3279   0.4699   0.8755     H
C       0.3285   0.8429   0.8147     C
C       0.3305   0.1239     0.52     C
H       0.3321   0.7707      0.5     H
C       0.3386   0.2284   0.5254     C
H       0.3404   0.7994   0.0932     H
H        0.345   0.9362   0.5146     H
H       0.3478   0.7968   0.9305     H
C        0.348   0.0818   0.1804     C
C       0.3491   0.6313   0.9758     C
H       0.3496   0.5036   0.7279     H
H       0.3515   0.1139   0.1108     H
O      0.35312  0.41504  0.48074     O
C        0.355   0.4318   0.4361     C
O       0.3587   0.0665  0.27093     O
C       0.3596   0.8352   0.9051     C
C       0.3633   0.2679   0.8928     C
C       0.3687   0.6509   0.5242     C
C       0.3702   0.2692   0.8428     C
C       0.3734   0.1422   0.1464     C
C       0.3748   0.7528   0.5257     C
N      0.38019  0.57321  0.93996     N
O      0.38077  0.90643  0.02777     O
C        0.382   0.1214   0.2329     C
C       0.3884   0.9444   0.8302     C
C       0.3983   0.9817   0.5406     C
H       0.3984   0.9852   0.8056     H
H       0.3987   0.6779    0.003     H
C       0.4077   0.0915   0.5451     C
O      0.40937  0.48203  0.64149     O
O      0.41504  0.35312  0.98074     O
N      0.41825  0.30275  0.55446     N
N      0.41934  0.93406  0.91962     N
H        0.421   0.3216   0.8357     H
Co     0.42232  0.46084  0.55695    Co
O      0.42327  0.49965  0.42456     O
N      0.42679  0.61981  0.56004     N
O      0.43088  0.27406  0.07758     O
C       0.4312   0.2456  0.16267     C
C       0.4318    0.355   0.9361     C
C       0.4331   0.9857  0.88178     C
C       0.4437   0.8297    0.565     C
C       0.4444   0.2212   0.2501     C
H       0.4477   0.6775    0.402     H
H       0.4493   0.1557   0.3699     H
C       0.4495   0.3135   0.1257     C
H        0.452   0.8486   0.4085     H
C       0.4558    0.941   0.5686     C
Co     0.46084  0.42232  0.05695    Co
C       0.4648   0.2808   0.2155     C
H       0.4699   0.3279   0.3755     H
H       0.4724   0.2472   0.2854     H
H       0.4756   0.0536   0.8908     H
O      0.48203  0.40937  0.14149     O
H       0.4893   0.0137   0.4062     H
C       0.4908   0.6928  0.59852     C
C       0.4913   0.1683   0.5739     C
C       0.4937   0.2721   0.5778     C
H       0.4964   0.6504   0.7721     H
C       0.4968   0.2034   0.3974     C
O      0.49965  0.42327  0.92456     O
Co         0.5      0.0      0.0    Co
O      0.50035  0.57673  0.07544     O
C       0.5032   0.7966   0.6026     C
H       0.5036   0.3496   0.2279     H
C       0.5063   0.7279   0.4222     C
C       0.5087   0.8317   0.4261     C
C       0.5092   0.3072  0.40148     C
H       0.5107   0.9863   0.5938     H
O      0.51797  0.59063  0.85851     O
H       0.5244   0.9464   0.1092     H
H       0.5276   0.7528   0.7146     H
H       0.5301   0.6721   0.6245     H
C       0.5352   0.7192   0.7845     C
Co     0.53916  0.57768  0.94305    Co
C       0.5442    0.059   0.4314     C
H        0.548   0.1514   0.5915     H
C       0.5505   0.6865   0.8743     C
H       0.5507   0.8443   0.6301     H
H       0.5523   0.3225    0.598     H
C       0.5556   0.7788   0.7499     C
C       0.5563   0.1703    0.435     C
C       0.5669   0.0143  0.11822     C
C       0.5682    0.645   0.0639     C
C       0.5688   0.7544  0.83733     C
O      0.56912  0.72594  0.92242     O
N      0.57321  0.38019  0.43996     N
O      0.57673  0.50035  0.57544     O
Co     0.57768  0.53916  0.44305    Co
H        0.579   0.6784   0.1643     H
N      0.58066  0.06594  0.08038     N
N      0.58175  0.69725  0.44554     N
O      0.58496  0.64688  0.01926     O
O      0.59063  0.51797  0.35851     O
C       0.5923   0.9085   0.4549     C
H       0.6013   0.3221    0.997     H
H       0.6016   0.0148   0.1944     H
C       0.6017   0.0183   0.4594     C
C       0.6116   0.0556   0.1698     C
C        0.618   0.8786   0.7671     C
O      0.61923  0.09357  0.97223     O
N      0.61981  0.42679  0.06004     N
C       0.6252   0.2472   0.4743     C
C       0.6266   0.8578   0.8536     C
C       0.6298   0.7308   0.1572     C
C       0.6313   0.3491   0.4758     C
C       0.6367   0.7321   0.1072     C
C       0.6404   0.1648   0.0949     C
O       0.6413   0.9335  0.72907     O
C        0.645   0.5682   0.5639     C
O      0.64688  0.58496  0.51926     O
H       0.6485   0.8861   0.8892     H
H       0.6504   0.4964   0.2721     H
C       0.6509   0.3687   0.0242     C
C        0.652   0.9182   0.8196     C
H       0.6522   0.2032   0.0695     H
H        0.655   0.0638   0.4854     H
H       0.6596   0.2006   0.9068     H
C       0.6614   0.7716   0.4746     C
H       0.6679   0.2293      0.5     H
C       0.6695   0.8761     0.48     C
C       0.6715   0.1571   0.1853     C
H       0.6721   0.5301   0.1245     H
H       0.6775   0.4477    0.902     H
H       0.6779   0.3987    0.503     H
H       0.6784    0.579   0.6643     H
C       0.6844    0.211   0.1464     C
H       0.6853   0.1721   0.2647     H
C       0.6865   0.5505   0.3743     C
H       0.6918   0.8032   0.2322     H
H       0.6923   0.9865   0.8316     H
C       0.6928   0.4908  0.09852     C
C       0.6967   0.8055   0.1979     C
N      0.69725  0.58175  0.94554     N
C       0.7076     0.08   0.9706     C
C       0.7105   0.8097   0.0969     C
H       0.7158   0.7526   0.4929     H
H       0.7164   0.8112   0.0627     H
C       0.7172   0.2034   0.2407     C
C       0.7192   0.5352   0.2845     C
H         0.72   0.2764    0.345     H
H       0.7236     0.28    0.155     H
C       0.7237   0.1911   0.9038     C
O      0.72594  0.56912  0.42242     O
H       0.7264   0.2536    0.653     H
C       0.7279   0.5063   0.9222     C
H       0.7285   0.9249   0.5009     H
C       0.7308   0.6298   0.6572     C
C       0.7321   0.6367   0.6072     C
O       0.7417   0.0823   0.6728     O
H       0.7464   0.2736    0.847     H
O       0.7473   0.0251  0.99459     O
H       0.7526   0.7158   0.9929     H
C       0.7528   0.3748   0.0257     C
H       0.7528   0.5276   0.2146     H
C       0.7533   0.9907   0.7388     C
C       0.7544   0.5688  0.33733     C
H       0.7612   0.9472   0.6637     H
C       0.7652   0.2252   0.6322     C
C       0.7665   0.1341   0.9349     C
H       0.7667   0.0559   0.7633     H
C       0.7704   0.8828    0.187     C
H       0.7707   0.3321      0.0     H
C       0.7716   0.6614   0.9746     C
C       0.7748   0.2348   0.8678     C
C       0.7768   0.8862   0.1374     C
C       0.7788   0.5556   0.2499     C
C       0.7824   0.1292   0.6354     C
C        0.784    0.011     0.69     C
C        0.789   0.3156   0.3536     C
H       0.7944   0.9502   0.7542     H
C       0.7966   0.2828   0.2593     C
C       0.7966   0.5032   0.1026     C
H       0.7968   0.3478   0.4305     H
H       0.7994   0.3404   0.5932     H
H       0.8032   0.6918   0.7322     H
C       0.8055   0.6967   0.6979     C
C       0.8089   0.2763   0.5962     C
C       0.8097   0.7105   0.5969     C
H       0.8112   0.7164   0.5627     H
H       0.8258     0.94   0.1302     H
H       0.8279   0.3147   0.2353     H
C       0.8297   0.4437    0.065     C
C       0.8317   0.5087   0.9261     C
O       0.8328   0.9546  0.22936     O
C       0.8352   0.3596   0.4051     C
C       0.8359   0.0859   0.6045     C
C       0.8429   0.3285   0.3147     C
H       0.8443   0.5507   0.1301     H
H       0.8448   0.0214   0.6069     H
H       0.8486    0.452   0.9085     H
C       0.8578   0.6266   0.3536     C
H       0.8589   0.0359   0.6959     H
C       0.8617   0.1229   0.9308     C
C       0.8659   0.2335   0.5651     C
C       0.8708   0.2176   0.8646     C
C       0.8761   0.6695     0.98     C
C       0.8771   0.1383   0.5692     C
C       0.8786    0.618   0.2671     C
C       0.8828   0.7704    0.687     C
H       0.8861   0.6485   0.3892     H
C       0.8862   0.7768   0.6374     C
H       0.8919   0.0865   0.9524     H
C       0.9048   0.0364   0.2235     C
O      0.90643  0.38077  0.52777     O
C       0.9085   0.5923   0.9549     C
H       0.9135   0.1081   0.5476     H
C       0.9141   0.1641   0.8955     C
H       0.9161   0.0535   0.1921     H
O       0.9177   0.2583   0.8272     O
C       0.9182    0.652   0.3196     C
C         0.92   0.2924   0.5294     C
H       0.9249   0.7285   0.0009     H
O       0.9335   0.6413  0.22907     O
N      0.93406  0.41934  0.41962     N
H       0.9362    0.345   0.0146     H
H         0.94   0.8258   0.6302     H
C        0.941   0.4558   0.0686     C
H       0.9441   0.2333   0.7367     H
C       0.9444   0.3884   0.3302     C
H       0.9464   0.5244   0.6092     H
H       0.9465   0.0839   0.3079     H
H       0.9472   0.7612   0.1637     H
H       0.9502   0.7944   0.2542     H
O       0.9546   0.8328  0.72936     O
C       0.9636   0.0952   0.2765     C
H       0.9641   0.1411   0.8041     H
O       0.9749   0.2527  0.50541     O
H       0.9786   0.1552   0.8931     H
C       0.9817   0.3983   0.0406     C
H       0.9852   0.3984   0.3056     H
C       0.9857   0.4331  0.38178     C
H       0.9863   0.5107   0.0938     H
H       0.9865   0.6923   0.3316     H
C        0.989    0.216     0.81     C
C       0.9907   0.7533   0.2388     C
