data_I
_chemical_name_common  '/home/zhangsd/repos/MofS-CGCNN/ML/data/TSD/clean_cifs/IQILIF_clean'
_cell_length_a 32.07910
_cell_length_b 11.90480
_cell_length_c 37.73840
_cell_angle_alpha 90.00000
_cell_angle_beta  99.26900
_cell_angle_gamma 90.00000
_space_group_name_H-M_alt      'P 1'


loop_
_space_group_symop_operation_xyz
  'x, y, z' 

loop_
_atom_site_label
_atom_site_fract_x
_atom_site_fract_y
_atom_site_fract_z
_atom_site_type_symbol
C       0.0054   0.1556  0.54282     C
C       0.0054   0.8444  0.04282     C
H       0.0079     0.22   0.8858     H
H       0.0079     0.78   0.3858     H
H       0.0099   0.0358   0.4214     H
H       0.0099   0.9642   0.9214     H
C      0.01765   0.0079  0.08723     C
C      0.01765   0.9921  0.58723     C
H       0.0221   0.3553   0.5127     H
H       0.0221   0.6447   0.0127     H
C      0.02945   0.1863  0.51312     C
C      0.02945   0.8137  0.01312     C
C      0.03093   0.0889   0.5722     C
C      0.03093   0.9111   0.0722     C
H       0.0324    0.132   0.1234     H
H       0.0324    0.868   0.6234     H
C       0.0342    0.189  0.95659     C
C       0.0342    0.811  0.45659     C
C      0.03549   0.2953   0.5023     C
C      0.03549   0.7047   0.0023     C
C      0.03638   0.1947  0.88993     C
C      0.03638   0.8053  0.38993     C
C      0.04265   0.0652  0.11405     C
C      0.04265   0.9348  0.61405     C
H       0.0438   0.1969   0.8373     H
H       0.0438   0.8031   0.3373     H
H       0.0454   0.1613   0.0294     H
H       0.0454   0.8387   0.5294     H
H       0.0467   0.0248   0.5045     H
H       0.0467   0.9752   0.0045     H
C      0.04977   0.1004  0.49723     C
C      0.04977   0.8996  0.99723     C
C      0.05571   0.1704  0.92468     C
C      0.05571   0.8296  0.42468     C
C      0.05808   0.1826  0.86098     C
C      0.05808   0.8174  0.36098     C
C      0.05969   0.2522  0.98762     C
C      0.05969   0.7478  0.48762     C
C       0.0607   0.3185  0.47659     C
C       0.0607   0.6815  0.97659     C
C      0.06086   0.2245  0.02332     C
C      0.06086   0.7755  0.52332     C
H       0.0646   0.3942   0.4698     H
H       0.0646   0.6058   0.9698     H
C       0.0716    0.125  0.58532     C
C       0.0716    0.875  0.08532     C
C      0.07409   0.1234  0.47141     C
C      0.07409   0.8766  0.97141     C
C      0.08018   0.2329  0.46069     C
C      0.08018   0.7671  0.96069     C
H       0.0818   0.1418   0.3967     H
H       0.0818   0.8582   0.8967     H
H       0.0822     0.19   0.5752     H
H       0.0822     0.81   0.0752     H
C      0.08298   0.0267  0.12775     C
C      0.08298   0.9733  0.62775     C
H       0.0837   0.2425   0.1506     H
H       0.0837   0.7575   0.6506     H
C       0.0842   0.2873  0.05037     C
C       0.0842   0.7127  0.55037     C
C       0.0843   0.3421  0.97975     C
C       0.0843   0.6579  0.47975     C
H       0.0847   0.2663   0.0747     H
H       0.0847   0.7337   0.5747     H
H       0.0851   0.3605   0.9554     H
H       0.0851   0.6395   0.4554     H
H        0.087   0.0634   0.4607     H
H        0.087   0.9366   0.9607     H
H       0.0941   0.2742   0.8074     H
H       0.0941   0.7258   0.3074     H
C       0.0972   0.0695  0.61265     C
C       0.0972   0.9305  0.11265     C
C      0.09775   0.1391     0.93     C
C      0.09775   0.8609     0.43     C
C       0.1003   0.1498  0.86609     C
C       0.1003   0.8502  0.36609     C
C        0.104    0.195  0.40194     C
C        0.104    0.805  0.90194     C
C       0.1049   0.1998  0.16524     C
C       0.1049   0.8002  0.66524     C
C       0.1068   0.3802  0.04239     C
C       0.1068   0.6198  0.54239     C
C       0.1073   0.4048  0.00643     C
C       0.1073   0.5952  0.50643     C
C      0.10841   0.2557  0.43364     C
C      0.10841   0.7443  0.93364     C
C      0.11016   0.0843  0.15757     C
C      0.11016   0.9157  0.65757     C
H       0.1118   0.1248   0.9537     H
H       0.1118   0.8752   0.4537     H
H       0.1156      0.4   0.5421     H
H       0.1156      0.6   0.0421     H
C       0.1165   0.2218  0.80796     C
C       0.1165   0.7782  0.30796     C
C         0.12    0.128  0.90115     C
C         0.12    0.872  0.40115     C
H       0.1239   0.4657   0.0003     H
H       0.1239   0.5343   0.5003     H
C       0.1244    0.145  0.83587     C
C       0.1244    0.855  0.33587     C
H       0.1248   0.0973   0.6212     H
H       0.1248   0.9027   0.1212     H
H       0.1259   0.3271   0.1982     H
H       0.1259   0.6729   0.6982     H
H       0.1284   0.1699    0.356     H
H       0.1284   0.8301    0.856     H
C      0.12987   0.4567  0.07063     C
C      0.12987   0.5433  0.57063     C
C      0.13007   0.2498  0.19343     C
C      0.13007   0.7502  0.69343     C
C       0.1301   0.4287  0.56421     C
C       0.1301   0.5713  0.06421     C
C       0.1319   0.2112  0.37783     C
C       0.1319   0.7888  0.87783     C
H       0.1346   0.2745   0.7614     H
H       0.1346   0.7255   0.2614     H
C       0.1404   0.3349  0.44055     C
C       0.1404   0.6651  0.94055     C
C      0.14103   0.2231  0.78081     C
C      0.14103   0.7769  0.28081     C
C       0.1424   0.0254   0.1799     C
C       0.1424   0.9746   0.6799     C
H       0.1429   0.3796   0.4617     H
H       0.1429   0.6204   0.9617     H
H       0.1468   0.0519   0.6755     H
H       0.1468   0.9481   0.1755     H
H       0.1488   0.1053   0.9055     H
H       0.1488   0.8947   0.4055     H
H       0.1501   0.2771   0.5847     H
H       0.1501   0.7229   0.0847     H
C       0.1509   0.3556  0.58936     C
C       0.1509   0.6444  0.08936     C
C       0.1514   0.4155  0.10293     C
C       0.1514   0.5845  0.60293     C
H       0.1516   0.3372   0.1078     H
H       0.1516   0.6628   0.6078     H
C       0.1575   0.0699  0.83596     C
C       0.1575   0.9301  0.33596     C
C      0.16146    0.191  0.21531     C
C      0.16146    0.809  0.71531     C
H       0.1633   0.0167   0.8549     H
H       0.1633   0.9833   0.3549     H
C      0.16425   0.2864  0.38536     C
C      0.16425   0.7136  0.88536     C
C       0.1675   0.0782  0.20805     C
C       0.1675   0.9218  0.70805     C
C       0.1687   0.3492  0.41663     C
C       0.1687   0.6508  0.91663     C
C       0.1729   0.4894  0.12811     C
C       0.1729   0.5106  0.62811     C
C      0.17296   0.3963  0.62172     C
C      0.17296   0.6037  0.12172     C
C      0.17488   0.1498  0.78174     C
C      0.17488   0.8502  0.28174     C
O       0.1797   0.3429  0.25607     O
O       0.1797   0.6571  0.75607     O
C       0.1824   0.0708  0.80903     C
C       0.1824   0.9292  0.30903     C
O      0.18649   0.2117  0.64479     O
O      0.18649   0.7883  0.14479     O
H       0.1877   0.4608   0.1501     H
H       0.1877   0.5392   0.6501     H
C      0.18801   0.2455  0.24639     C
C      0.18801   0.7545  0.74639     C
H       0.1892   0.0372   0.2227     H
H       0.1892   0.9628   0.7227     H
O      0.18944   0.2516  0.33032     O
O      0.18944   0.7484  0.83032     O
H       0.1911   0.4019   0.4217     H
H       0.1911   0.5981   0.9217     H
O      0.19318   0.2229   0.7277     O
O      0.19318   0.7771   0.2277     O
C      0.19576   0.3134  0.64716     C
C      0.19576   0.6866  0.14716     C
C      0.19598   0.3004  0.36018     C
C      0.19598   0.6996  0.86018     C
C      0.20347   0.1572  0.75386     C
C      0.20347   0.8428  0.25386     C
K      0.20417  0.44892  0.73411     K
K      0.20417  0.55108  0.23411     K
H       0.2044   0.0174   0.8093     H
H       0.2044   0.9826   0.3093     H
O      0.21919   0.1898  0.26345     O
O      0.21919   0.8102  0.76345     O
O      0.22549   0.3503  0.67149     O
O      0.22549   0.6497  0.17149     O
O      0.22821   0.3591  0.36965     O
O      0.22821   0.6409  0.86965     O
O      0.23606   0.0987  0.75755     O
O      0.23606   0.9013  0.25755     O
Bi     0.24682  0.31581  0.30493    Bi
Bi     0.24682  0.68419  0.80493    Bi
Bi     0.25318  0.18419  0.69507    Bi
Bi     0.25318  0.81581  0.19507    Bi
O      0.26394   0.4013  0.24245     O
O      0.26394   0.5987  0.74245     O
O      0.27179   0.1409  0.63035     O
O      0.27179   0.8591  0.13035     O
O      0.27451   0.1497  0.32851     O
O      0.27451   0.8503  0.82851     O
O      0.28081   0.3102  0.73655     O
O      0.28081   0.6898  0.23655     O
H       0.2956   0.4826   0.1907     H
H       0.2956   0.5174   0.6907     H
K      0.29583  0.05108  0.26589     K
K      0.29583  0.94892  0.76589     K
C      0.29653   0.3428  0.24614     C
C      0.29653   0.6572  0.74614     C
C      0.30402   0.1996  0.63982     C
C      0.30402   0.8004  0.13982     C
C      0.30424   0.1866  0.35284     C
C      0.30424   0.8134  0.85284     C
O      0.30682   0.2771   0.2723     O
O      0.30682   0.7229   0.7723     O
H       0.3089   0.0981   0.5783     H
H       0.3089   0.9019   0.0783     H
O      0.31056   0.2484  0.66968     O
O      0.31056   0.7516  0.16968     O
H       0.3108   0.4628   0.7773     H
H       0.3108   0.5372   0.2773     H
C      0.31199   0.2545  0.75361     C
C      0.31199   0.7455  0.25361     C
H       0.3123   0.0392   0.8499     H
H       0.3123   0.9608   0.3499     H
O      0.31351   0.2883  0.35521     O
O      0.31351   0.7117  0.85521     O
C       0.3176   0.4292  0.19097     C
C       0.3176   0.5708  0.69097     C
O       0.3203   0.1571  0.74393     O
O       0.3203   0.8429  0.24393     O
C      0.32512   0.3502  0.21826     C
C      0.32512   0.6498  0.71826     C
C      0.32704   0.1037  0.37828     C
C      0.32704   0.8963  0.87828     C
C       0.3271   0.0106  0.87189     C
C       0.3271   0.9894  0.37189     C
C       0.3313   0.1508  0.58337     C
C       0.3313   0.8492  0.08337     C
C       0.3325   0.4218  0.79195     C
C       0.3325   0.5782  0.29195     C
C      0.33575   0.2136  0.61464     C
C      0.33575   0.7864  0.11464     C
H       0.3367   0.4833   0.1451     H
H       0.3367   0.5167   0.6451     H
C      0.33854    0.309  0.78469     C
C      0.33854    0.691  0.28469     C
C       0.3425   0.4301  0.16404     C
C       0.3425   0.5699  0.66404     C
H       0.3484   0.1628   0.8922     H
H       0.3484   0.8372   0.3922     H
C       0.3486   0.0845  0.89707     C
C       0.3486   0.9155  0.39707     C
C       0.3491   0.1444  0.41064     C
C       0.3491   0.8556  0.91064     C
H       0.3499   0.2229   0.4153     H
H       0.3499   0.7771   0.9153     H
H       0.3512   0.3947   0.0945     H
H       0.3512   0.6053   0.5945     H
H       0.3532   0.4481   0.3245     H
H       0.3532   0.5519   0.8245     H
H       0.3571   0.1204   0.5383     H
H       0.3571   0.8796   0.0383     H
C       0.3576   0.4746   0.8201     C
C       0.3576   0.5254   0.3201     C
C      0.35897   0.2769  0.21919     C
C      0.35897   0.7231  0.71919     C
C       0.3596   0.1651  0.55945     C
C       0.3596   0.8349  0.05945     C
H       0.3654   0.2255   0.2386     H
H       0.3654   0.7745   0.7386     H
C       0.3681   0.2888  0.62217     C
C       0.3681   0.7112  0.12217     C
C       0.3699   0.0713  0.43579     C
C       0.3699   0.9287  0.93579     C
C      0.36993   0.2502  0.80657     C
C      0.36993   0.7498  0.30657     C
C      0.37013   0.0433  0.92937     C
C      0.37013   0.9567  0.42937     C
H       0.3716   0.3301    0.644     H
H       0.3716   0.6699    0.144     H
H       0.3741   0.1729   0.8018     H
H       0.3741   0.8271   0.3018     H
H       0.3752   0.4027   0.3788     H
H       0.3752   0.5973   0.8788     H
C       0.3756    0.355  0.16413     C
C       0.3756    0.645  0.66413     C
H       0.3761   0.0343   0.9997     H
H       0.3761   0.9657   0.4997     H
C         0.38    0.372  0.09885     C
C         0.38    0.628  0.59885     C
C       0.3835   0.2782  0.19204     C
C       0.3835   0.7218  0.69204     C
H       0.3844      0.1   0.4579     H
H       0.3844      0.9   0.9579     H
H       0.3882   0.3752   0.0463     H
H       0.3882   0.6248   0.5463     H
C      0.38984   0.4157  0.84243     C
C      0.38984   0.5843  0.34243     C
C      0.39159   0.2443  0.56636     C
C      0.39159   0.7557  0.06636     C
C       0.3927   0.0952  0.99357     C
C       0.3927   0.9048  0.49357     C
C       0.3932   0.1198  0.95761     C
C       0.3932   0.8802  0.45761     C
C       0.3951   0.3002  0.83476     C
C       0.3951   0.6998  0.33476     C
C        0.396    0.305  0.59806     C
C        0.396    0.695  0.09806     C
C       0.3997   0.3502  0.13391     C
C       0.3997   0.6498  0.63391     C
C      0.40225   0.3609     0.07     C
C      0.40225   0.6391     0.57     C
C       0.4028   0.4305  0.38735     C
C       0.4028   0.5695  0.88735     C
H       0.4059   0.2258   0.1926     H
H       0.4059   0.7742   0.6926     H
H        0.413   0.4366   0.5393     H
H        0.413   0.5634   0.0393     H
H       0.4149   0.1395   0.0446     H
H       0.4149   0.8605   0.5446     H
H       0.4153   0.2337   0.9253     H
H       0.4153   0.7663   0.4253     H
C       0.4157   0.1579  0.02025     C
C       0.4157   0.8421  0.52025     C
C       0.4158   0.2127  0.94963     C
C       0.4158   0.7873  0.44963     C
H       0.4163   0.2575   0.8494     H
H       0.4163   0.7425   0.3494     H
C      0.41702   0.4733  0.87225     C
C      0.41702   0.5267  0.37225     C
H       0.4178     0.31   0.4248     H
H       0.4178     0.69   0.9248     H
H       0.4182   0.3582   0.6033     H
H       0.4182   0.6418   0.1033     H
C      0.41982   0.2671  0.53931     C
C      0.41982   0.7329  0.03931     C
C      0.42591   0.3766  0.52859     C
C      0.42591   0.6234  0.02859     C
C       0.4284    0.375  0.41468     C
C       0.4284    0.625  0.91468     C
H       0.4354   0.1058   0.5302     H
H       0.4354   0.8942   0.0302     H
C      0.43914   0.2755  0.97668     C
C      0.43914   0.7245  0.47668     C
C       0.4393   0.1815  0.52341     C
C       0.4393   0.8185  0.02341     C
C      0.44031   0.2478  0.01238     C
C      0.44031   0.7522  0.51238     C
C      0.44192   0.3174  0.13902     C
C      0.44192   0.6826  0.63902     C
C      0.44429   0.3296  0.07532     C
C      0.44429   0.6704  0.57532     C
C      0.45023   0.3996  0.50277     C
C      0.45023   0.6004  0.00277     C
H       0.4533   0.4752   0.4955     H
H       0.4533   0.5248   0.9955     H
H       0.4546   0.3387   0.9706     H
H       0.4546   0.6613   0.4706     H
H       0.4562   0.3031   0.1627     H
H       0.4562   0.6969   0.6627     H
C      0.45735   0.4348  0.88595     C
C      0.45735   0.5652  0.38595     C
C      0.46362   0.3053  0.11007     C
C      0.46362   0.6947  0.61007     C
C      0.46451   0.2047   0.4977     C
C      0.46451   0.7953   0.9977     C
C       0.4658    0.311  0.04341     C
C       0.4658    0.689  0.54341     C
H       0.4676    0.368   0.8766     H
H       0.4676    0.632   0.3766     H
C      0.46907   0.4111   0.4278     C
C      0.46907   0.5889   0.9278     C
C      0.47055   0.3137  0.48688     C
C      0.47055   0.6863  0.98688     C
H       0.4779   0.1447   0.4873     H
H       0.4779   0.8553   0.9873     H
C      0.48235   0.4921  0.91277     C
C      0.48235   0.5079  0.41277     C
H       0.4901   0.4642   0.5786     H
H       0.4901   0.5358   0.0786     H
H       0.4921     0.28   0.1142     H
H       0.4921     0.72   0.6142     H
C       0.4946   0.3444  0.45718     C
C       0.4946   0.6556  0.95718     C
C       0.5054   0.3444  0.04282     C
C       0.5054   0.6556  0.54282     C
H       0.5079     0.28   0.3858     H
H       0.5079     0.72   0.8858     H
H       0.5099   0.4642   0.9214     H
H       0.5099   0.5358   0.4214     H
C      0.51765   0.4921  0.58723     C
C      0.51765   0.5079  0.08723     C
H       0.5221   0.1447   0.0127     H
H       0.5221   0.8553   0.5127     H
C      0.52945   0.3137  0.01312     C
C      0.52945   0.6863  0.51312     C
C      0.53093   0.4111   0.0722     C
C      0.53093   0.5889   0.5722     C
H       0.5324    0.368   0.6234     H
H       0.5324    0.632   0.1234     H
C       0.5342    0.311  0.45659     C
C       0.5342    0.689  0.95659     C
C      0.53549   0.2047   0.0023     C
C      0.53549   0.7953   0.5023     C
C      0.53638   0.3053  0.38993     C
C      0.53638   0.6947  0.88993     C
C      0.54265   0.4348  0.61405     C
C      0.54265   0.5652  0.11405     C
H       0.5438   0.3031   0.3373     H
H       0.5438   0.6969   0.8373     H
H       0.5454   0.3387   0.5294     H
H       0.5454   0.6613   0.0294     H
H       0.5467   0.4752   0.0045     H
H       0.5467   0.5248   0.5045     H
C      0.54977   0.3996  0.99723     C
C      0.54977   0.6004  0.49723     C
C      0.55571   0.3296  0.42468     C
C      0.55571   0.6704  0.92468     C
C      0.55808   0.3174  0.36098     C
C      0.55808   0.6826  0.86098     C
C      0.55969   0.2478  0.48762     C
C      0.55969   0.7522  0.98762     C
C       0.5607   0.1815  0.97659     C
C       0.5607   0.8185  0.47659     C
C      0.56086   0.2755  0.52332     C
C      0.56086   0.7245  0.02332     C
H       0.5646   0.1058   0.9698     H
H       0.5646   0.8942   0.4698     H
C       0.5716    0.375  0.08532     C
C       0.5716    0.625  0.58532     C
C      0.57409   0.3766  0.97141     C
C      0.57409   0.6234  0.47141     C
C      0.58018   0.2671  0.96069     C
C      0.58018   0.7329  0.46069     C
H       0.5818   0.3582   0.8967     H
H       0.5818   0.6418   0.3967     H
H       0.5822     0.31   0.0752     H
H       0.5822     0.69   0.5752     H
C      0.58298   0.4733  0.62775     C
C      0.58298   0.5267  0.12775     C
H       0.5837   0.2575   0.6506     H
H       0.5837   0.7425   0.1506     H
C       0.5842   0.2127  0.55037     C
C       0.5842   0.7873  0.05037     C
C       0.5843   0.1579  0.47975     C
C       0.5843   0.8421  0.97975     C
H       0.5847   0.2337   0.5747     H
H       0.5847   0.7663   0.0747     H
H       0.5851   0.1395   0.4554     H
H       0.5851   0.8605   0.9554     H
H        0.587   0.4366   0.9607     H
H        0.587   0.5634   0.4607     H
H       0.5941   0.2258   0.3074     H
H       0.5941   0.7742   0.8074     H
C       0.5972   0.4305  0.11265     C
C       0.5972   0.5695  0.61265     C
C      0.59775   0.3609     0.43     C
C      0.59775   0.6391     0.93     C
C       0.6003   0.3502  0.36609     C
C       0.6003   0.6498  0.86609     C
C        0.604    0.305  0.90194     C
C        0.604    0.695  0.40194     C
C       0.6049   0.3002  0.66524     C
C       0.6049   0.6998  0.16524     C
C       0.6068   0.1198  0.54239     C
C       0.6068   0.8802  0.04239     C
C       0.6073   0.0952  0.50643     C
C       0.6073   0.9048  0.00643     C
C      0.60841   0.2443  0.93364     C
C      0.60841   0.7557  0.43364     C
C      0.61016   0.4157  0.65757     C
C      0.61016   0.5843  0.15757     C
H       0.6118   0.3752   0.4537     H
H       0.6118   0.6248   0.9537     H
H       0.6156      0.1   0.0421     H
H       0.6156      0.9   0.5421     H
C       0.6165   0.2782  0.30796     C
C       0.6165   0.7218  0.80796     C
C         0.62    0.372  0.40115     C
C         0.62    0.628  0.90115     C
H       0.6239   0.0343   0.5003     H
H       0.6239   0.9657   0.0003     H
C       0.6244    0.355  0.33587     C
C       0.6244    0.645  0.83587     C
H       0.6248   0.4027   0.1212     H
H       0.6248   0.5973   0.6212     H
H       0.6259   0.1729   0.6982     H
H       0.6259   0.8271   0.1982     H
H       0.6284   0.3301    0.856     H
H       0.6284   0.6699    0.356     H
C      0.62987   0.0433  0.57063     C
C      0.62987   0.9567  0.07063     C
C      0.63007   0.2502  0.69343     C
C      0.63007   0.7498  0.19343     C
C       0.6301   0.0713  0.06421     C
C       0.6301   0.9287  0.56421     C
C       0.6319   0.2888  0.87783     C
C       0.6319   0.7112  0.37783     C
H       0.6346   0.2255   0.2614     H
H       0.6346   0.7745   0.7614     H
C       0.6404   0.1651  0.94055     C
C       0.6404   0.8349  0.44055     C
C      0.64103   0.2769  0.28081     C
C      0.64103   0.7231  0.78081     C
C       0.6424   0.4746   0.6799     C
C       0.6424   0.5254   0.1799     C
H       0.6429   0.1204   0.9617     H
H       0.6429   0.8796   0.4617     H
H       0.6468   0.4481   0.1755     H
H       0.6468   0.5519   0.6755     H
H       0.6488   0.3947   0.4055     H
H       0.6488   0.6053   0.9055     H
H       0.6501   0.2229   0.0847     H
H       0.6501   0.7771   0.5847     H
C       0.6509   0.1444  0.08936     C
C       0.6509   0.8556  0.58936     C
C       0.6514   0.0845  0.60293     C
C       0.6514   0.9155  0.10293     C
H       0.6516   0.1628   0.6078     H
H       0.6516   0.8372   0.1078     H
C       0.6575   0.4301  0.33596     C
C       0.6575   0.5699  0.83596     C
C      0.66146    0.309  0.71531     C
C      0.66146    0.691  0.21531     C
H       0.6633   0.4833   0.3549     H
H       0.6633   0.5167   0.8549     H
C      0.66425   0.2136  0.88536     C
C      0.66425   0.7864  0.38536     C
C       0.6675   0.4218  0.70805     C
C       0.6675   0.5782  0.20805     C
C       0.6687   0.1508  0.91663     C
C       0.6687   0.8492  0.41663     C
C       0.6729   0.0106  0.62811     C
C       0.6729   0.9894  0.12811     C
C      0.67296   0.1037  0.12172     C
C      0.67296   0.8963  0.62172     C
C      0.67488   0.3502  0.28174     C
C      0.67488   0.6498  0.78174     C
O       0.6797   0.1571  0.75607     O
O       0.6797   0.8429  0.25607     O
C       0.6824   0.4292  0.30903     C
C       0.6824   0.5708  0.80903     C
O      0.68649   0.2883  0.14479     O
O      0.68649   0.7117  0.64479     O
H       0.6877   0.0392   0.6501     H
H       0.6877   0.9608   0.1501     H
C      0.68801   0.2545  0.74639     C
C      0.68801   0.7455  0.24639     C
H       0.6892   0.4628   0.7227     H
H       0.6892   0.5372   0.2227     H
O      0.68944   0.2484  0.83032     O
O      0.68944   0.7516  0.33032     O
H       0.6911   0.0981   0.9217     H
H       0.6911   0.9019   0.4217     H
O      0.69318   0.2771   0.2277     O
O      0.69318   0.7229   0.7277     O
C      0.69576   0.1866  0.14716     C
C      0.69576   0.8134  0.64716     C
C      0.69598   0.1996  0.86018     C
C      0.69598   0.8004  0.36018     C
C      0.70347   0.3428  0.25386     C
C      0.70347   0.6572  0.75386     C
K      0.70417  0.05108  0.23411     K
K      0.70417  0.94892  0.73411     K
H       0.7044   0.4826   0.3093     H
H       0.7044   0.5174   0.8093     H
O      0.71919   0.3102  0.76345     O
O      0.71919   0.6898  0.26345     O
O      0.72549   0.1497  0.17149     O
O      0.72549   0.8503  0.67149     O
O      0.72821   0.1409  0.86965     O
O      0.72821   0.8591  0.36965     O
O      0.73606   0.4013  0.25755     O
O      0.73606   0.5987  0.75755     O
Bi     0.74682  0.18419  0.80493    Bi
Bi     0.74682  0.81581  0.30493    Bi
Bi     0.75318  0.31581  0.19507    Bi
Bi     0.75318  0.68419  0.69507    Bi
O      0.76394   0.0987  0.74245     O
O      0.76394   0.9013  0.24245     O
O      0.77179   0.3591  0.13035     O
O      0.77179   0.6409  0.63035     O
O      0.77451   0.3503  0.82851     O
O      0.77451   0.6497  0.32851     O
O      0.78081   0.1898  0.23655     O
O      0.78081   0.8102  0.73655     O
H       0.7956   0.0174   0.6907     H
H       0.7956   0.9826   0.1907     H
K      0.79583  0.44892  0.76589     K
K      0.79583  0.55108  0.26589     K
C      0.79653   0.1572  0.74614     C
C      0.79653   0.8428  0.24614     C
C      0.80402   0.3004  0.13982     C
C      0.80402   0.6996  0.63982     C
C      0.80424   0.3134  0.85284     C
C      0.80424   0.6866  0.35284     C
O      0.80682   0.2229   0.7723     O
O      0.80682   0.7771   0.2723     O
H       0.8089   0.4019   0.0783     H
H       0.8089   0.5981   0.5783     H
O      0.81056   0.2516  0.16968     O
O      0.81056   0.7484  0.66968     O
H       0.8108   0.0372   0.2773     H
H       0.8108   0.9628   0.7773     H
C      0.81199   0.2455  0.25361     C
C      0.81199   0.7545  0.75361     C
H       0.8123   0.4608   0.3499     H
H       0.8123   0.5392   0.8499     H
O      0.81351   0.2117  0.85521     O
O      0.81351   0.7883  0.35521     O
C       0.8176   0.0708  0.69097     C
C       0.8176   0.9292  0.19097     C
O       0.8203   0.3429  0.24393     O
O       0.8203   0.6571  0.74393     O
C      0.82512   0.1498  0.71826     C
C      0.82512   0.8502  0.21826     C
C      0.82704   0.3963  0.87828     C
C      0.82704   0.6037  0.37828     C
C       0.8271   0.4894  0.37189     C
C       0.8271   0.5106  0.87189     C
C       0.8313   0.3492  0.08337     C
C       0.8313   0.6508  0.58337     C
C       0.8325   0.0782  0.29195     C
C       0.8325   0.9218  0.79195     C
C      0.83575   0.2864  0.11464     C
C      0.83575   0.7136  0.61464     C
H       0.8367   0.0167   0.6451     H
H       0.8367   0.9833   0.1451     H
C      0.83854    0.191  0.28469     C
C      0.83854    0.809  0.78469     C
C       0.8425   0.0699  0.66404     C
C       0.8425   0.9301  0.16404     C
H       0.8484   0.3372   0.3922     H
H       0.8484   0.6628   0.8922     H
C       0.8486   0.4155  0.39707     C
C       0.8486   0.5845  0.89707     C
C       0.8491   0.3556  0.91064     C
C       0.8491   0.6444  0.41064     C
H       0.8499   0.2771   0.9153     H
H       0.8499   0.7229   0.4153     H
H       0.8512   0.1053   0.5945     H
H       0.8512   0.8947   0.0945     H
H       0.8532   0.0519   0.8245     H
H       0.8532   0.9481   0.3245     H
H       0.8571   0.3796   0.0383     H
H       0.8571   0.6204   0.5383     H
C       0.8576   0.0254   0.3201     C
C       0.8576   0.9746   0.8201     C
C      0.85897   0.2231  0.71919     C
C      0.85897   0.7769  0.21919     C
C       0.8596   0.3349  0.05945     C
C       0.8596   0.6651  0.55945     C
H       0.8654   0.2745   0.7386     H
H       0.8654   0.7255   0.2386     H
C       0.8681   0.2112  0.12217     C
C       0.8681   0.7888  0.62217     C
C       0.8699   0.4287  0.93579     C
C       0.8699   0.5713  0.43579     C
C      0.86993   0.2498  0.30657     C
C      0.86993   0.7502  0.80657     C
C      0.87013   0.4567  0.42937     C
C      0.87013   0.5433  0.92937     C
H       0.8716   0.1699    0.144     H
H       0.8716   0.8301    0.644     H
H       0.8741   0.3271   0.3018     H
H       0.8741   0.6729   0.8018     H
H       0.8752   0.0973   0.8788     H
H       0.8752   0.9027   0.3788     H
C       0.8756    0.145  0.66413     C
C       0.8756    0.855  0.16413     C
H       0.8761   0.4657   0.4997     H
H       0.8761   0.5343   0.9997     H
C         0.88    0.128  0.59885     C
C         0.88    0.872  0.09885     C
C       0.8835   0.2218  0.69204     C
C       0.8835   0.7782  0.19204     C
H       0.8844      0.4   0.9579     H
H       0.8844      0.6   0.4579     H
H       0.8882   0.1248   0.5463     H
H       0.8882   0.8752   0.0463     H
C      0.88984   0.0843  0.34243     C
C      0.88984   0.9157  0.84243     C
C      0.89159   0.2557  0.06636     C
C      0.89159   0.7443  0.56636     C
C       0.8927   0.4048  0.49357     C
C       0.8927   0.5952  0.99357     C
C       0.8932   0.3802  0.45761     C
C       0.8932   0.6198  0.95761     C
C       0.8951   0.1998  0.33476     C
C       0.8951   0.8002  0.83476     C
C        0.896    0.195  0.09806     C
C        0.896    0.805  0.59806     C
C       0.8997   0.1498  0.63391     C
C       0.8997   0.8502  0.13391     C
C      0.90225   0.1391     0.57     C
C      0.90225   0.8609     0.07     C
C       0.9028   0.0695  0.88735     C
C       0.9028   0.9305  0.38735     C
H       0.9059   0.2742   0.6926     H
H       0.9059   0.7258   0.1926     H
H        0.913   0.0634   0.0393     H
H        0.913   0.9366   0.5393     H
H       0.9149   0.3605   0.5446     H
H       0.9149   0.6395   0.0446     H
H       0.9153   0.2663   0.4253     H
H       0.9153   0.7337   0.9253     H
C       0.9157   0.3421  0.52025     C
C       0.9157   0.6579  0.02025     C
C       0.9158   0.2873  0.44963     C
C       0.9158   0.7127  0.94963     C
H       0.9163   0.2425   0.3494     H
H       0.9163   0.7575   0.8494     H
C      0.91702   0.0267  0.37225     C
C      0.91702   0.9733  0.87225     C
H       0.9178     0.19   0.9248     H
H       0.9178     0.81   0.4248     H
H       0.9182   0.1418   0.1033     H
H       0.9182   0.8582   0.6033     H
C      0.91982   0.2329  0.03931     C
C      0.91982   0.7671  0.53931     C
C      0.92591   0.1234  0.02859     C
C      0.92591   0.8766  0.52859     C
C       0.9284    0.125  0.91468     C
C       0.9284    0.875  0.41468     C
H       0.9354   0.3942   0.0302     H
H       0.9354   0.6058   0.5302     H
C      0.93914   0.2245  0.47668     C
C      0.93914   0.7755  0.97668     C
C       0.9393   0.3185  0.02341     C
C       0.9393   0.6815  0.52341     C
C      0.94031   0.2522  0.51238     C
C      0.94031   0.7478  0.01238     C
C      0.94192   0.1826  0.63902     C
C      0.94192   0.8174  0.13902     C
C      0.94429   0.1704  0.57532     C
C      0.94429   0.8296  0.07532     C
C      0.95023   0.1004  0.00277     C
C      0.95023   0.8996  0.50277     C
H       0.9533   0.0248   0.9955     H
H       0.9533   0.9752   0.4955     H
H       0.9546   0.1613   0.4706     H
H       0.9546   0.8387   0.9706     H
H       0.9562   0.1969   0.6627     H
H       0.9562   0.8031   0.1627     H
C      0.95735   0.0652  0.38595     C
C      0.95735   0.9348  0.88595     C
C      0.96362   0.1947  0.61007     C
C      0.96362   0.8053  0.11007     C
C      0.96451   0.2953   0.9977     C
C      0.96451   0.7047   0.4977     C
C       0.9658    0.189  0.54341     C
C       0.9658    0.811  0.04341     C
H       0.9676    0.132   0.3766     H
H       0.9676    0.868   0.8766     H
C      0.96907   0.0889   0.9278     C
C      0.96907   0.9111   0.4278     C
C      0.97055   0.1863  0.98688     C
C      0.97055   0.8137  0.48688     C
H       0.9779   0.3553   0.9873     H
H       0.9779   0.6447   0.4873     H
C      0.98235   0.0079  0.41277     C
C      0.98235   0.9921  0.91277     C
H       0.9901   0.0358   0.0786     H
H       0.9901   0.9642   0.5786     H
H       0.9921     0.22   0.6142     H
H       0.9921     0.78   0.1142     H
C       0.9946   0.1556  0.95718     C
C       0.9946   0.8444  0.45718     C
