data_I
_chemical_name_common  '/home/zhangsd/repos/MofS-CGCNN/ML/data/TSD/clean_cifs/IQINAZ_clean'
_cell_length_a  9.81550
_cell_length_b 10.18840
_cell_length_c 12.87100
_cell_angle_alpha 69.00200
_cell_angle_beta  69.67600
_cell_angle_gamma 63.28100
_space_group_name_H-M_alt      'P 1'


loop_
_space_group_symop_operation_xyz
  'x, y, z' 

loop_
_atom_site_label
_atom_site_fract_x
_atom_site_fract_y
_atom_site_fract_z
_atom_site_type_symbol
C       0.0144   0.5525    0.577     C
O       0.0166   0.8296   0.7661     O
H       0.0231   0.5878   0.6309     H
C       0.0345   0.3469   0.5182     C
C       0.0419   0.5936   0.8929     C
O       0.0491   0.1336   0.4709     O
C         0.05   0.3457   0.0135     C
C       0.0516   0.3993   0.5958     C
C       0.0745   0.1808   0.5368     C
H        0.084   0.2421   0.0214     H
C       0.0873   0.6886    0.782     C
H       0.0878   0.3321   0.6604     H
C       0.0918   0.4373   0.9084     C
H       0.1178   0.8426   0.0212     H
O       0.1451   0.0909   0.6119     O
H       0.1542   0.3939    0.847     H
Cd     0.16071  0.87344   0.5826    Cd
H       0.1808   0.9631   0.8314     H
C       0.1934   0.8849   0.9969     C
O       0.1982   0.6293   0.7062     O
C       0.2316   0.9576   0.8828     C
H       0.2412   0.8272   0.1495     H
H       0.2521   0.0241   0.3021     H
C       0.2674   0.8757   0.0732     C
N       0.3053   0.8259   0.4135     N
C       0.3139   0.9214   0.3144     C
C       0.3392   0.0194   0.8455     C
H       0.3605   0.0693    0.769     H
C       0.3825   0.9383   0.0384     C
C       0.4094   0.6913   0.3932     C
N       0.4218   0.8552   0.2322     N
C       0.4223   0.0106   0.9205     C
H       0.4283   0.6008    0.449     H
H       0.4428    0.375   0.7504     H
C       0.4641   0.9287   0.1133     C
C        0.482   0.7027   0.2839     C
C        0.518   0.2973   0.7161     C
C       0.5359   0.0713   0.8867     C
H       0.5572    0.625   0.2496     H
H       0.5717   0.3992    0.551     H
C       0.5777   0.9894   0.0795     C
N       0.5782   0.1448   0.7678     N
C       0.5906   0.3087   0.6068     C
C       0.6175   0.0617   0.9616     C
H       0.6395   0.9307    0.231     H
C       0.6608   0.9806   0.1545     C
C       0.6861   0.0786   0.6856     C
N       0.6947   0.1741   0.5865     N
C       0.7326   0.1243   0.9268     C
H       0.7479   0.9759   0.6979     H
H       0.7588   0.1728   0.8505     H
C       0.7684   0.0424   0.1172     C
O       0.8018   0.3707   0.2938     O
C       0.8066   0.1151   0.0031     C
H       0.8192   0.0369   0.1686     H
Cd     0.83929  0.12656   0.4174    Cd
H       0.8458   0.6061    0.153     H
O       0.8549   0.9091   0.3881     O
H       0.8822   0.1574   0.9788     H
C       0.9082   0.5627   0.0916     C
H       0.9122   0.6679   0.3396     H
C       0.9127   0.3114    0.218     C
H        0.916   0.7579   0.9786     H
C       0.9255   0.8192   0.4632     C
C       0.9484   0.6007   0.4042     C
C         0.95   0.6543   0.9865     C
O       0.9509   0.8664   0.5291     O
C       0.9581   0.4064   0.1071     C
C       0.9655   0.6531   0.4818     C
H       0.9769   0.4122   0.3691     H
O       0.9834   0.1704   0.2339     O
C       0.9856   0.4475    0.423     C
