data_I
_chemical_name_common  '/home/zhangsd/repos/MofS-CGCNN/ML/data/TSD/clean_cifs/IQOHON_clean'
_cell_length_a 28.52000
_cell_length_b  9.92970
_cell_length_c 30.04400
_cell_angle_alpha 90.00000
_cell_angle_beta  116.46600
_cell_angle_gamma 90.00000
_space_group_name_H-M_alt      'P 1'


loop_
_space_group_symop_operation_xyz
  'x, y, z' 

loop_
_atom_site_label
_atom_site_fract_x
_atom_site_fract_y
_atom_site_fract_z
_atom_site_type_symbol
C      0.00293   0.1605  0.90296     C
C      0.00293   0.8395  0.40296     C
H       0.0075   0.1779   0.9711     H
H       0.0075   0.8221   0.4711     H
C       0.0083   0.4882   0.8134     C
C       0.0083   0.5118   0.3134     C
H        0.015   0.3507   0.2919     H
H        0.015   0.6493   0.7919     H
H        0.019    0.118   0.8463     H
H        0.019    0.882   0.3463     H
C      0.01976   0.4427  0.77636     C
C      0.01976   0.5573  0.27636     C
C      0.02488   0.1456   0.9535     C
C      0.02488   0.8544   0.4535     C
H       0.0257   0.4857   0.1941     H
H       0.0257   0.5143   0.6941     H
C      0.03146   0.1106  0.88055     C
C      0.03146   0.8894  0.38055     C
C       0.0338   0.4291   0.3055     C
C       0.0338   0.5709   0.8055     C
H       0.0386   0.3582   0.5696     H
H       0.0386   0.6418   0.0696     H
H       0.0387   0.4662   0.3855     H
H       0.0387   0.5338   0.8855     H
C       0.0466   0.4955   0.8614     C
C       0.0466   0.5045   0.3614     C
C      0.04752   0.2314   0.6249     C
C      0.04752   0.7686   0.1249     C
C      0.06122    0.335  0.60218     C
C      0.06122    0.665  0.10218     C
C       0.0613   0.3662  0.79288     C
C       0.0613   0.6338  0.29288     C
H       0.0656   0.3076   0.7708     H
H       0.0656   0.6924   0.2708     H
C       0.0728   0.0826  0.97845     C
C       0.0728   0.9174  0.47845     C
H       0.0741   0.1306   0.6886     H
H       0.0741   0.8694   0.1886     H
C       0.0749   0.4284   0.3527     C
C       0.0749   0.5716   0.8527     C
C      0.07859   0.0494  0.90844     C
C      0.07859   0.9506  0.40844     C
C      0.08236   0.1999  0.67252     C
C      0.08236   0.8001  0.17252     C
H       0.0862   0.0721   0.0127     H
H       0.0862   0.9279   0.5127     H
H       0.0878   0.3477   0.3695     H
H       0.0878   0.6523   0.8695     H
H       0.0924   0.4874   0.4906     H
H       0.0924   0.5126   0.9906     H
H       0.0964   0.0139   0.8916     H
H       0.0964   0.9861   0.3916     H
C      0.09705   0.4472  0.87513     C
C      0.09705   0.5528  0.37513     C
C       0.0993   0.3683  0.84193     C
C       0.0993   0.6317  0.34193     C
N       0.1006   0.0369  0.95684     N
N       0.1006   0.9631  0.45684     N
C      0.10787   0.4049   0.6269     C
C      0.10787   0.5951   0.1269     C
H       0.1105   0.2617   0.5254     H
H       0.1105   0.7383   0.0254     H
C      0.11351   0.4234  0.48579     C
C      0.11351   0.5766  0.98579     C
H       0.1159   0.4758   0.6112     H
H       0.1159   0.5242   0.1112     H
C      0.12369   0.2988  0.50481     C
C      0.12369   0.7012  0.00481     C
H       0.1277   0.3103   0.8514     H
H       0.1277   0.6897   0.3514     H
C      0.12938   0.2665  0.69777     C
C      0.12938   0.7335  0.19777     C
H       0.1333   0.3687   0.9428     H
H       0.1333   0.6313   0.4428     H
C      0.13745   0.4496  0.92677     C
C      0.13745   0.5504  0.42677     C
N      0.14001    0.438  0.45811     N
N      0.14001    0.562  0.95811     N
C      0.14249    0.369  0.67495     C
C      0.14249    0.631  0.17495     C
H       0.1468   0.4952   0.2547     H
H       0.1468   0.5048   0.7547     H
H       0.1521   0.2419   0.7302     H
H       0.1521   0.7581   0.2302     H
N       0.1564   0.2339  0.48948     N
N       0.1564   0.7661  0.98948     N
C      0.16513   0.3218   0.4616     C
C      0.16513   0.6782   0.9616     C
O      0.16802   0.0316  0.56945     O
O      0.16802   0.9684  0.06945     O
H       0.1712   0.4431   0.9263     H
H       0.1712   0.5569   0.4263     H
H       0.1744   0.0125   0.1544     H
H       0.1744   0.9875   0.6544     H
Co     0.17768  0.03184  0.50202    Co
Co     0.17768  0.96816  0.00202    Co
C      0.18297   0.4999  0.77299     C
C      0.18297   0.5001  0.27299     C
H       0.1846   0.4546   0.3383     H
H       0.1846   0.5454   0.8383     H
H       0.1864   0.3054    0.446     H
H       0.1864   0.6946    0.946     H
N      0.19058   0.4382  0.69829     N
N      0.19058   0.5618  0.19829     N
O      0.20379   0.0335  0.44897     O
O      0.20379   0.9665  0.94897     O
O      0.20487    0.185  0.93173     O
O      0.20487    0.815  0.43173     O
C      0.20576   0.4758   0.3231     C
C      0.20576   0.5242   0.8231     C
H       0.2099   0.2857   0.6389     H
H       0.2099   0.7143   0.1389     H
C      0.21068   0.0103  0.17261     C
C      0.21068   0.9897  0.67261     C
H       0.2116   0.0545   0.2382     H
H       0.2116   0.9455   0.7382     H
C      0.21335   0.0637  0.92685     C
C      0.21335   0.9363  0.42685     C
C      0.21359   0.4679  0.74944     C
C      0.21359   0.5321  0.24944     C
C      0.21666   0.0372  0.59383     C
C      0.21666   0.9628  0.09383     C
C      0.21702   0.4692    0.669     C
C      0.21702   0.5308    0.169     C
C      0.22222   0.3724  0.63892     C
C      0.22222   0.6276  0.13892     C
H       0.2276   0.2124   0.8606     H
H       0.2276   0.7876   0.3606     H
C      0.23289   0.0353  0.22286     C
C      0.23289   0.9647  0.72286     C
H       0.2345   0.3371   0.1902     H
H       0.2345   0.6629   0.6902     H
C      0.23612   0.0289  0.89213     C
C      0.23612   0.9711  0.39213     C
C      0.23678   0.4031  0.16928     C
C      0.23678   0.5969  0.66928     C
C      0.24044   0.1261  0.86087     C
C      0.24044   0.8739  0.36087     C
C      0.24111   0.0181  0.64859     C
C      0.24111   0.9819  0.14859     C
C      0.24531   0.4022    0.609     C
C      0.24531   0.5978    0.109     C
O      0.24569    0.055  0.57266     O
O      0.24569    0.945  0.07266     O
H       0.2485   0.3352   0.5889     H
H       0.2485   0.6648   0.0889     H
H       0.2515   0.1648   0.4111     H
H       0.2515   0.8352   0.9111     H
O      0.25431    0.445  0.42734     O
O      0.25431    0.555  0.92734     O
C      0.25469   0.0978    0.391     C
C      0.25469   0.9022    0.891     C
C      0.25889   0.4819  0.35141     C
C      0.25889   0.5181  0.85141     C
C      0.25956   0.3739  0.13913     C
C      0.25956   0.6261  0.63913     C
C      0.26322   0.0969  0.83072     C
C      0.26322   0.9031  0.33072     C
C      0.26388   0.4711  0.10787     C
C      0.26388   0.5289  0.60787     C
H       0.2655   0.1629   0.8098     H
H       0.2655   0.8371   0.3098     H
C      0.26711   0.4647  0.77714     C
C      0.26711   0.5353  0.27714     C
H       0.2724   0.2876   0.1394     H
H       0.2724   0.7124   0.6394     H
C      0.27778   0.1276  0.36108     C
C      0.27778   0.8724  0.86108     C
C      0.28298   0.0308    0.331     C
C      0.28298   0.9692    0.831     C
C      0.28334   0.4628  0.40617     C
C      0.28334   0.5372  0.90617     C
C      0.28641   0.0321  0.25056     C
C      0.28641   0.9679  0.75056     C
C      0.28665   0.4363  0.07315     C
C      0.28665   0.5637  0.57315     C
H       0.2884   0.4455   0.7618     H
H       0.2884   0.5545   0.2618     H
C      0.28932   0.4897  0.82739     C
C      0.28932   0.5103  0.32739     C
H       0.2901   0.2143   0.3611     H
H       0.2901   0.7857   0.8611     H
C      0.29424   0.0242   0.6769     C
C      0.29424   0.9758   0.1769     C
O      0.29513    0.315  0.06827     O
O      0.29513    0.685  0.56827     O
O      0.29621   0.4665  0.55103     O
O      0.29621   0.5335  0.05103     O
N      0.30942   0.0618  0.30171     N
N      0.30942   0.9382  0.80171     N
H       0.3136   0.1946    0.554     H
H       0.3136   0.8054    0.054     H
H       0.3154   0.0454   0.6617     H
H       0.3154   0.9546   0.1617     H
C      0.31703   0.0001  0.22701     C
C      0.31703   0.9999  0.72701     C
Co     0.32232  0.46816  0.49798    Co
Co     0.32232  0.53184  0.99798    Co
H       0.3256   0.4875   0.8456     H
H       0.3256   0.5125   0.3456     H
H       0.3288   0.0569   0.0737     H
H       0.3288   0.9431   0.5737     H
O      0.33198   0.4684  0.43055     O
O      0.33198   0.5316  0.93055     O
C      0.33487   0.1782   0.5384     C
C      0.33487   0.8218   0.0384     C
N       0.3436   0.2661  0.51052     N
N       0.3436   0.7339  0.01052     N
H       0.3479   0.2581   0.2698     H
H       0.3479   0.7419   0.7698     H
H       0.3532   0.0048   0.7453     H
H       0.3532   0.9952   0.2453     H
C      0.35751    0.131  0.32505     C
C      0.35751    0.869  0.82505     C
N      0.35999    0.062  0.54189     N
N      0.35999    0.938  0.04189     N
C      0.36255   0.0504  0.07323     C
C      0.36255   0.9496  0.57323     C
H       0.3667   0.1313   0.0572     H
H       0.3667   0.8687   0.5572     H
C      0.37062   0.2335  0.30223     C
C      0.37062   0.7665  0.80223     C
H       0.3723   0.1897   0.1486     H
H       0.3723   0.8103   0.6486     H
C      0.37631   0.2012  0.49519     C
C      0.37631   0.7988  0.99519     C
H       0.3841   0.0242   0.3888     H
H       0.3841   0.9758   0.8888     H
C      0.38649   0.0766  0.51421     C
C      0.38649   0.9234  0.01421     C
H       0.3895   0.2383   0.4746     H
H       0.3895   0.7617   0.9746     H
C      0.39213   0.0951   0.3731     C
C      0.39213   0.9049   0.8731     C
N       0.3994   0.4631  0.04316     N
N       0.3994   0.5369  0.54316     N
C       0.4007   0.1317  0.15807     C
C       0.4007   0.8683  0.65807     C
C      0.40295   0.0528  0.12487     C
C      0.40295   0.9472  0.62487     C
H       0.4036   0.4861   0.1084     H
H       0.4036   0.5139   0.6084     H
H       0.4076   0.0126   0.5094     H
H       0.4076   0.9874   0.0094     H
H       0.4122   0.1523   0.6305     H
H       0.4122   0.8477   0.1305     H
H       0.4138   0.4279   0.9873     H
H       0.4138   0.5721   0.4873     H
C      0.41764   0.3001  0.32748     C
C      0.41764   0.6999  0.82748     C
C      0.42141   0.4506  0.09156     C
C      0.42141   0.5494  0.59156     C
C       0.4251   0.0716   0.6473     C
C       0.4251   0.9284   0.1473     C
H       0.4259   0.3694   0.3114     H
H       0.4259   0.6306   0.8114     H
C       0.4272   0.4174  0.02155     C
C       0.4272   0.5826  0.52155     C
H       0.4344   0.1924   0.2292     H
H       0.4344   0.8076   0.7292     H
C       0.4387   0.1338  0.20712     C
C       0.4387   0.8662  0.70712     C
C      0.43878    0.165  0.39782     C
C      0.43878    0.835  0.89782     C
C      0.45248   0.2686   0.3751     C
C      0.45248   0.7314   0.8751     C
C       0.4534   0.0045   0.1386     C
C       0.4534   0.9955   0.6386     C
H       0.4613   0.0338   0.6145     H
H       0.4613   0.9662   0.1145     H
H       0.4614   0.1418   0.4304     H
H       0.4614   0.8582   0.9304     H
C       0.4662   0.0709   0.6945     C
C       0.4662   0.9291   0.1945     C
C      0.46854   0.3894  0.11945     C
C      0.46854   0.6106  0.61945     C
H       0.4743   0.0143   0.8059     H
H       0.4743   0.9857   0.3059     H
C      0.47512   0.3544   0.0465     C
C      0.47512   0.6456   0.5465     C
C      0.48024   0.0573  0.22364     C
C      0.48024   0.9427  0.72364     C
H        0.481    0.382   0.1537     H
H        0.481    0.618   0.6537     H
H        0.485   0.1493   0.7081     H
H        0.485   0.8507   0.2081     H
C       0.4917   0.0118   0.1866     C
C       0.4917   0.9882   0.6866     C
H       0.4925   0.3221   0.0289     H
H       0.4925   0.6779   0.5289     H
C      0.49707   0.3395  0.09704     C
C      0.49707   0.6605  0.59704     C
C      0.50293   0.3395  0.40296     C
C      0.50293   0.6605  0.90296     C
H       0.5075   0.3221   0.4711     H
H       0.5075   0.6779   0.9711     H
C       0.5083   0.0118   0.3134     C
C       0.5083   0.9882   0.8134     C
H        0.515   0.1493   0.7919     H
H        0.515   0.8507   0.2919     H
H        0.519    0.382   0.3463     H
H        0.519    0.618   0.8463     H
C      0.51976   0.0573  0.27636     C
C      0.51976   0.9427  0.77636     C
C      0.52488   0.3544   0.4535     C
C      0.52488   0.6456   0.9535     C
H       0.5257   0.0143   0.6941     H
H       0.5257   0.9857   0.1941     H
C      0.53146   0.3894  0.38055     C
C      0.53146   0.6106  0.88055     C
C       0.5338   0.0709   0.8055     C
C       0.5338   0.9291   0.3055     C
H       0.5386   0.1418   0.0696     H
H       0.5386   0.8582   0.5696     H
H       0.5387   0.0338   0.8855     H
H       0.5387   0.9662   0.3855     H
C       0.5466   0.0045   0.3614     C
C       0.5466   0.9955   0.8614     C
C      0.54752   0.2686   0.1249     C
C      0.54752   0.7314   0.6249     C
C      0.56122    0.165  0.10218     C
C      0.56122    0.835  0.60218     C
C       0.5613   0.1338  0.29288     C
C       0.5613   0.8662  0.79288     C
H       0.5656   0.1924   0.2708     H
H       0.5656   0.8076   0.7708     H
C       0.5728   0.4174  0.47845     C
C       0.5728   0.5826  0.97845     C
H       0.5741   0.3694   0.1886     H
H       0.5741   0.6306   0.6886     H
C       0.5749   0.0716   0.8527     C
C       0.5749   0.9284   0.3527     C
C      0.57859   0.4506  0.40844     C
C      0.57859   0.5494  0.90844     C
C      0.58236   0.3001  0.17252     C
C      0.58236   0.6999  0.67252     C
H       0.5862   0.4279   0.5127     H
H       0.5862   0.5721   0.0127     H
H       0.5878   0.1523   0.8695     H
H       0.5878   0.8477   0.3695     H
H       0.5924   0.0126   0.9906     H
H       0.5924   0.9874   0.4906     H
H       0.5964   0.4861   0.3916     H
H       0.5964   0.5139   0.8916     H
C      0.59705   0.0528  0.37513     C
C      0.59705   0.9472  0.87513     C
C       0.5993   0.1317  0.34193     C
C       0.5993   0.8683  0.84193     C
N       0.6006   0.4631  0.45684     N
N       0.6006   0.5369  0.95684     N
C      0.60787   0.0951   0.1269     C
C      0.60787   0.9049   0.6269     C
H       0.6105   0.2383   0.0254     H
H       0.6105   0.7617   0.5254     H
C      0.61351   0.0766  0.98579     C
C      0.61351   0.9234  0.48579     C
H       0.6159   0.0242   0.1112     H
H       0.6159   0.9758   0.6112     H
C      0.62369   0.2012  0.00481     C
C      0.62369   0.7988  0.50481     C
H       0.6277   0.1897   0.3514     H
H       0.6277   0.8103   0.8514     H
C      0.62938   0.2335  0.19777     C
C      0.62938   0.7665  0.69777     C
H       0.6333   0.1313   0.4428     H
H       0.6333   0.8687   0.9428     H
C      0.63745   0.0504  0.42677     C
C      0.63745   0.9496  0.92677     C
N      0.64001    0.062  0.95811     N
N      0.64001    0.938  0.45811     N
C      0.64249    0.131  0.17495     C
C      0.64249    0.869  0.67495     C
H       0.6468   0.0048   0.7547     H
H       0.6468   0.9952   0.2547     H
H       0.6521   0.2581   0.2302     H
H       0.6521   0.7419   0.7302     H
N       0.6564   0.2661  0.98948     N
N       0.6564   0.7339  0.48948     N
C      0.66513   0.1782   0.9616     C
C      0.66513   0.8218   0.4616     C
O      0.66802   0.4684  0.06945     O
O      0.66802   0.5316  0.56945     O
H       0.6712   0.0569   0.4263     H
H       0.6712   0.9431   0.9263     H
H       0.6744   0.4875   0.6544     H
H       0.6744   0.5125   0.1544     H
Co     0.67768  0.46816  0.00202    Co
Co     0.67768  0.53184  0.50202    Co
C      0.68297   0.0001  0.27299     C
C      0.68297   0.9999  0.77299     C
H       0.6846   0.0454   0.8383     H
H       0.6846   0.9546   0.3383     H
H       0.6864   0.1946    0.946     H
H       0.6864   0.8054    0.446     H
N      0.69058   0.0618  0.19829     N
N      0.69058   0.9382  0.69829     N
O      0.70379   0.4665  0.94897     O
O      0.70379   0.5335  0.44897     O
O      0.70487    0.315  0.43173     O
O      0.70487    0.685  0.93173     O
C      0.70576   0.0242   0.8231     C
C      0.70576   0.9758   0.3231     C
H       0.7099   0.2143   0.1389     H
H       0.7099   0.7857   0.6389     H
C      0.71068   0.4897  0.67261     C
C      0.71068   0.5103  0.17261     C
H       0.7116   0.4455   0.7382     H
H       0.7116   0.5545   0.2382     H
C      0.71335   0.4363  0.42685     C
C      0.71335   0.5637  0.92685     C
C      0.71359   0.0321  0.24944     C
C      0.71359   0.9679  0.74944     C
C      0.71666   0.4628  0.09383     C
C      0.71666   0.5372  0.59383     C
C      0.71702   0.0308    0.169     C
C      0.71702   0.9692    0.669     C
C      0.72222   0.1276  0.13892     C
C      0.72222   0.8724  0.63892     C
H       0.7276   0.2876   0.3606     H
H       0.7276   0.7124   0.8606     H
C      0.73289   0.4647  0.72286     C
C      0.73289   0.5353  0.22286     C
H       0.7345   0.1629   0.6902     H
H       0.7345   0.8371   0.1902     H
C      0.73612   0.4711  0.39213     C
C      0.73612   0.5289  0.89213     C
C      0.73678   0.0969  0.66928     C
C      0.73678   0.9031  0.16928     C
C      0.74044   0.3739  0.36087     C
C      0.74044   0.6261  0.86087     C
C      0.74111   0.4819  0.14859     C
C      0.74111   0.5181  0.64859     C
C      0.74531   0.0978    0.109     C
C      0.74531   0.9022    0.609     C
O      0.74569    0.445  0.07266     O
O      0.74569    0.555  0.57266     O
H       0.7485   0.1648   0.0889     H
H       0.7485   0.8352   0.5889     H
H       0.7515   0.3352   0.9111     H
H       0.7515   0.6648   0.4111     H
O      0.75431    0.055  0.92734     O
O      0.75431    0.945  0.42734     O
C      0.75469   0.4022    0.891     C
C      0.75469   0.5978    0.391     C
C      0.75889   0.0181  0.85141     C
C      0.75889   0.9819  0.35141     C
C      0.75956   0.1261  0.63913     C
C      0.75956   0.8739  0.13913     C
C      0.76322   0.4031  0.33072     C
C      0.76322   0.5969  0.83072     C
C      0.76388   0.0289  0.60787     C
C      0.76388   0.9711  0.10787     C
H       0.7655   0.3371   0.3098     H
H       0.7655   0.6629   0.8098     H
C      0.76711   0.0353  0.27714     C
C      0.76711   0.9647  0.77714     C
H       0.7724   0.2124   0.6394     H
H       0.7724   0.7876   0.1394     H
C      0.77778   0.3724  0.86108     C
C      0.77778   0.6276  0.36108     C
C      0.78298   0.4692    0.831     C
C      0.78298   0.5308    0.331     C
C      0.78334   0.0372  0.90617     C
C      0.78334   0.9628  0.40617     C
C      0.78641   0.4679  0.75056     C
C      0.78641   0.5321  0.25056     C
C      0.78665   0.0637  0.57315     C
C      0.78665   0.9363  0.07315     C
H       0.7884   0.0545   0.2618     H
H       0.7884   0.9455   0.7618     H
C      0.78932   0.0103  0.32739     C
C      0.78932   0.9897  0.82739     C
H       0.7901   0.2857   0.8611     H
H       0.7901   0.7143   0.3611     H
C      0.79424   0.4758   0.1769     C
C      0.79424   0.5242   0.6769     C
O      0.79513    0.185  0.56827     O
O      0.79513    0.815  0.06827     O
O      0.79621   0.0335  0.05103     O
O      0.79621   0.9665  0.55103     O
N      0.80942   0.4382  0.80171     N
N      0.80942   0.5618  0.30171     N
H       0.8136   0.3054    0.054     H
H       0.8136   0.6946    0.554     H
H       0.8154   0.4546   0.1617     H
H       0.8154   0.5454   0.6617     H
C      0.81703   0.4999  0.72701     C
C      0.81703   0.5001  0.22701     C
Co     0.82232  0.03184  0.99798    Co
Co     0.82232  0.96816  0.49798    Co
H       0.8256   0.0125   0.3456     H
H       0.8256   0.9875   0.8456     H
H       0.8288   0.4431   0.5737     H
H       0.8288   0.5569   0.0737     H
O      0.83198   0.0316  0.93055     O
O      0.83198   0.9684  0.43055     O
C      0.83487   0.3218   0.0384     C
C      0.83487   0.6782   0.5384     C
N       0.8436   0.2339  0.01052     N
N       0.8436   0.7661  0.51052     N
H       0.8479   0.2419   0.7698     H
H       0.8479   0.7581   0.2698     H
H       0.8532   0.4952   0.2453     H
H       0.8532   0.5048   0.7453     H
C      0.85751    0.369  0.82505     C
C      0.85751    0.631  0.32505     C
N      0.85999    0.438  0.04189     N
N      0.85999    0.562  0.54189     N
C      0.86255   0.4496  0.57323     C
C      0.86255   0.5504  0.07323     C
H       0.8667   0.3687   0.5572     H
H       0.8667   0.6313   0.0572     H
C      0.87062   0.2665  0.80223     C
C      0.87062   0.7335  0.30223     C
H       0.8723   0.3103   0.6486     H
H       0.8723   0.6897   0.1486     H
C      0.87631   0.2988  0.99519     C
C      0.87631   0.7012  0.49519     C
H       0.8841   0.4758   0.8888     H
H       0.8841   0.5242   0.3888     H
C      0.88649   0.4234  0.01421     C
C      0.88649   0.5766  0.51421     C
H       0.8895   0.2617   0.9746     H
H       0.8895   0.7383   0.4746     H
C      0.89213   0.4049   0.8731     C
C      0.89213   0.5951   0.3731     C
N       0.8994   0.0369  0.54316     N
N       0.8994   0.9631  0.04316     N
C       0.9007   0.3683  0.65807     C
C       0.9007   0.6317  0.15807     C
C      0.90295   0.4472  0.62487     C
C      0.90295   0.5528  0.12487     C
H       0.9036   0.0139   0.6084     H
H       0.9036   0.9861   0.1084     H
H       0.9076   0.4874   0.0094     H
H       0.9076   0.5126   0.5094     H
H       0.9122   0.3477   0.1305     H
H       0.9122   0.6523   0.6305     H
H       0.9138   0.0721   0.4873     H
H       0.9138   0.9279   0.9873     H
C      0.91764   0.1999  0.82748     C
C      0.91764   0.8001  0.32748     C
C      0.92141   0.0494  0.59156     C
C      0.92141   0.9506  0.09156     C
C       0.9251   0.4284   0.1473     C
C       0.9251   0.5716   0.6473     C
H       0.9259   0.1306   0.8114     H
H       0.9259   0.8694   0.3114     H
C       0.9272   0.0826  0.52155     C
C       0.9272   0.9174  0.02155     C
H       0.9344   0.3076   0.7292     H
H       0.9344   0.6924   0.2292     H
C       0.9387   0.3662  0.70712     C
C       0.9387   0.6338  0.20712     C
C      0.93878    0.335  0.89782     C
C      0.93878    0.665  0.39782     C
C      0.95248   0.2314   0.8751     C
C      0.95248   0.7686   0.3751     C
C       0.9534   0.4955   0.6386     C
C       0.9534   0.5045   0.1386     C
H       0.9613   0.4662   0.1145     H
H       0.9613   0.5338   0.6145     H
H       0.9614   0.3582   0.9304     H
H       0.9614   0.6418   0.4304     H
C       0.9662   0.4291   0.1945     C
C       0.9662   0.5709   0.6945     C
C      0.96854   0.1106  0.61945     C
C      0.96854   0.8894  0.11945     C
H       0.9743   0.4857   0.3059     H
H       0.9743   0.5143   0.8059     H
C      0.97512   0.1456   0.5465     C
C      0.97512   0.8544   0.0465     C
C      0.98024   0.4427  0.72364     C
C      0.98024   0.5573  0.22364     C
H        0.981    0.118   0.6537     H
H        0.981    0.882   0.1537     H
H        0.985   0.3507   0.2081     H
H        0.985   0.6493   0.7081     H
C       0.9917   0.4882   0.6866     C
C       0.9917   0.5118   0.1866     C
H       0.9925   0.1779   0.5289     H
H       0.9925   0.8221   0.0289     H
C      0.99707   0.1605  0.59704     C
C      0.99707   0.8395  0.09704     C
