data_I
_chemical_name_common  '/home/zhangsd/repos/MofS-CGCNN/ML/data/TSD/clean_cifs/ISIYUF01_clean'
_cell_length_a 14.61630
_cell_length_b 26.06250
_cell_length_c 12.67840
_cell_angle_alpha 90.00000
_cell_angle_beta  105.04600
_cell_angle_gamma 90.00000
_space_group_name_H-M_alt      'P 1'


loop_
_space_group_symop_operation_xyz
  'x, y, z' 

loop_
_atom_site_label
_atom_site_fract_x
_atom_site_fract_y
_atom_site_fract_z
_atom_site_type_symbol
H       0.0015   0.7422   0.8694     H
H       0.0015   0.7578   0.3694     H
C       0.0043   0.5692   0.7477     C
C       0.0043   0.9308   0.2477     C
H       0.0105   0.1027   0.7813     H
H       0.0105   0.3973   0.2813     H
H        0.027   0.7444   0.1207     H
H        0.027   0.7556   0.6207     H
C       0.0623   0.2468   0.1417     C
C       0.0623   0.2532   0.6417     C
O       0.0631  0.04308   0.7467     O
O       0.0631  0.45692   0.2467     O
O       0.0894  0.55814   0.7747     O
O       0.0894  0.94186   0.2747     O
C       0.0915   0.7341   0.1422     C
C       0.0915   0.7659   0.6422     C
O       0.1017  0.22478   0.2283     O
O       0.1017  0.27522   0.7283     O
O       0.1036  0.24488   0.5685     O
O       0.1036  0.25512   0.0685     O
O       0.1311   0.7203   0.0719     O
O       0.1311   0.7797   0.5719     O
O        0.134  0.73475   0.2391     O
O        0.134  0.76525   0.7391     O
H       0.1618   0.1609   0.7447     H
H       0.1618   0.3391   0.2447     H
O       0.1841  0.51278   0.4448     O
O       0.1841  0.98722   0.9448     O
O        0.187  0.03207   0.6125     O
O        0.187  0.46793   0.1125     O
H       0.1878   0.6371   0.9706     H
H       0.1878   0.8629   0.4706     H
H       0.1879   0.6667   0.7577     H
H       0.1879   0.8333   0.2577     H
O       0.1884  0.53382   0.6154     O
O       0.1884  0.96618   0.1154     O
O       0.1914  0.00897   0.4467     O
O       0.1914  0.49103   0.9467     O
O       0.1922  0.09402   0.9273     O
O       0.1922  0.40598   0.4273     O
O       0.2023  0.16181   0.0326     O
O       0.2023  0.33819   0.5326     O
H       0.2078   0.2421   0.9113     H
H       0.2078   0.2579   0.4113     H
O       0.2154  0.55303   0.2663     O
O       0.2154  0.94697   0.7663     O
C       0.2163   0.5094   0.5465     C
C       0.2163   0.9906   0.0465     C
C       0.2252   0.0104   0.5477     C
C       0.2252   0.4896   0.0477     C
Er     0.22533  0.03462  0.80476    Er
Er     0.22533  0.46538  0.30476    Er
C       0.2261   0.1587   0.7425     C
C       0.2261   0.3413   0.2425     C
O       0.2285  0.13384   0.2441     O
O       0.2285  0.36616   0.7441     O
O       0.2292  0.05014   0.2603     O
O       0.2292  0.44986   0.7603     O
C        0.237   0.1249   0.9951     C
C        0.237   0.3751   0.4951     C
H       0.2383   0.7362   0.9233     H
H       0.2383   0.7638   0.4233     H
Er     0.24379  0.53473  0.80814    Er
Er     0.24379  0.96527  0.30814    Er
O       0.2468  0.63508   0.2586     O
O       0.2468  0.86492   0.7586     O
C       0.2484   0.6602   0.7457     C
C       0.2484   0.8398   0.2457     C
Er     0.24874  0.21581  0.18151    Er
Er     0.24874  0.28419  0.68151    Er
C        0.252   0.6267   0.9976     C
C        0.252   0.8733   0.4976     C
O       0.2637   0.1152   0.7519     O
O       0.2637   0.3848   0.2519     O
C       0.2656   0.0918   0.2489     C
C       0.2656   0.4082   0.7489     C
C       0.2659   0.2404   0.4403     C
C       0.2659   0.2596   0.9403     C
H       0.2667   0.0142   0.0727     H
O       0.2667  0.19892   0.7304     O
O       0.2667  0.30108   0.2304     O
H       0.2667   0.4858   0.5727     H
C        0.268   0.5891   0.2575     C
C        0.268   0.9109   0.7575     C
O       0.2745  0.61529   0.7457     O
O       0.2745  0.88471   0.2457     O
O       0.2773  0.58902    0.955     O
O       0.2773  0.91098    0.455     O
Er     0.28169  0.71437  0.19605    Er
Er     0.28169  0.78563  0.69605    Er
H       0.2841   0.5063   0.0771     H
H       0.2841   0.9937   0.5771     H
C       0.2923   0.7429   0.4526     C
C       0.2923   0.7571   0.9526     C
O       0.2967  0.69795   0.7308     O
O       0.2967  0.80205   0.2308     O
O       0.3022  0.24204   0.5425     O
O       0.3022  0.25796   0.0425     O
O       0.3023  0.65262   0.0726     O
O       0.3023  0.84738   0.5726     O
O       0.3026  0.21706   0.3761     O
O       0.3026  0.28294   0.8761     O
H       0.3035   0.1199   0.0206     H
H       0.3035   0.3801   0.5206     H
O       0.3224   0.7407   0.5536     O
O       0.3224   0.7593   0.0536     O
O       0.3278  0.71972   0.3873     O
O       0.3278  0.78028   0.8873     O
H       0.3291   0.5809   0.2494     H
H       0.3291   0.9191   0.7494     H
H       0.3292   0.0909   0.2433     H
H       0.3292   0.4091   0.7433     H
O        0.375   0.0169   0.7659     O
O        0.375   0.4831   0.2659     O
O       0.3756   0.0293   0.9341     O
O       0.3756   0.4707   0.4341     O
O       0.3886   0.0004   0.4239     O
O       0.3886   0.4996   0.9239     O
O        0.391  0.52367     0.76     O
O        0.391  0.97633     0.26     O
O       0.4005  0.19241   0.2122     O
O       0.4005  0.30759   0.7122     O
C       0.4174   0.0162   0.8637     C
C       0.4174   0.4838   0.3637     C
C       0.4305   0.5048   0.8518     C
C       0.4305   0.9952   0.3518     C
O       0.4462  0.70886   0.2406     O
O       0.4462  0.79114   0.7406     O
H       0.4818   0.0058   0.8856     H
H       0.4818   0.4942   0.3856     H
C       0.4857   0.1811    0.227     C
C       0.4857   0.3189    0.727     C
H       0.4947   0.0057   0.3661     H
H       0.4947   0.4943   0.8661     H
H       0.4989   0.1466    0.211     H
H       0.4989   0.3534    0.711     H
H       0.5011   0.6466    0.289     H
H       0.5011   0.8534    0.789     H
H       0.5053   0.5057   0.1339     H
H       0.5053   0.9943   0.6339     H
C       0.5143   0.6811    0.273     C
C       0.5143   0.8189    0.773     C
H       0.5182   0.5058   0.6144     H
H       0.5182   0.9942   0.1144     H
O       0.5538  0.20886   0.2594     O
O       0.5538  0.29114   0.7594     O
C       0.5695   0.0048   0.6482     C
C       0.5695   0.4952   0.1482     C
C       0.5826   0.5162   0.6363     C
C       0.5826   0.9838   0.1363     C
O       0.5995  0.69241   0.2878     O
O       0.5995  0.80759   0.7878     O
O        0.609  0.02367     0.74     O
O        0.609  0.47633     0.24     O
O       0.6114   0.5004   0.0761     O
O       0.6114   0.9996   0.5761     O
O       0.6244   0.5293   0.5659     O
O       0.6244   0.9707   0.0659     O
O        0.625   0.5169   0.7341     O
O        0.625   0.9831   0.2341     O
H       0.6708   0.5909   0.2567     H
H       0.6708   0.9091   0.7567     H
H       0.6709   0.0809   0.2506     H
H       0.6709   0.4191   0.7506     H
O       0.6722  0.21972   0.1127     O
O       0.6722  0.28028   0.6127     O
O       0.6776   0.2407   0.9464     O
O       0.6776   0.2593   0.4464     O
H       0.6965   0.6199   0.4794     H
H       0.6965   0.8801   0.9794     H
O       0.6974  0.71706   0.1239     O
O       0.6974  0.78294   0.6239     O
O       0.6977  0.15262   0.4274     O
O       0.6977  0.34738   0.9274     O
O       0.6978  0.74204   0.9575     O
O       0.6978  0.75796   0.4575     O
O       0.7033  0.19795   0.7692     O
O       0.7033  0.30205   0.2692     O
C       0.7077   0.2429   0.0474     C
C       0.7077   0.2571   0.5474     C
H       0.7159   0.0063   0.4229     H
H       0.7159   0.4937   0.9229     H
Er     0.71831  0.21437  0.30395    Er
Er     0.71831  0.28563  0.80395    Er
O       0.7227  0.08902    0.545     O
O       0.7227  0.41098    0.045     O
O       0.7255  0.11529   0.7543     O
O       0.7255  0.38471   0.2543     O
C        0.732   0.0891   0.2425     C
C        0.732   0.4109   0.7425     C
H       0.7333   0.5142   0.4273     H
O       0.7333  0.69892   0.7696     O
O       0.7333  0.80108   0.2696     O
H       0.7333   0.9858   0.9273     H
C       0.7341   0.7404   0.0597     C
C       0.7341   0.7596   0.5597     C
C       0.7344   0.5918   0.2511     C
C       0.7344   0.9082   0.7511     C
O       0.7363   0.6152   0.7481     O
O       0.7363   0.8848   0.2481     O
C        0.748   0.1267   0.5024     C
C        0.748   0.3733   0.0024     C
Er     0.75126  0.71581  0.31849    Er
Er     0.75126  0.78419  0.81849    Er
C       0.7516   0.1602   0.7543     C
C       0.7516   0.3398   0.2543     C
O       0.7532  0.13508   0.2414     O
O       0.7532  0.36492   0.7414     O
Er     0.75621  0.03473  0.69186    Er
Er     0.75621  0.46527  0.19186    Er
H       0.7617   0.2362   0.5767     H
H       0.7617   0.2638   0.0767     H
C        0.763   0.6249   0.5049     C
C        0.763   0.8751   0.0049     C
O       0.7708  0.55014   0.2397     O
O       0.7708  0.94986   0.7397     O
O       0.7715  0.63384   0.2559     O
O       0.7715  0.86616   0.7559     O
C       0.7739   0.6587   0.7575     C
C       0.7739   0.8413   0.2575     C
Er     0.77467  0.53462  0.69524    Er
Er     0.77467  0.96538  0.19524    Er
C       0.7748   0.5104   0.9523     C
C       0.7748   0.9896   0.4523     C
C       0.7837   0.0094   0.9535     C
C       0.7837   0.4906   0.4535     C
O       0.7846  0.05303   0.2337     O
O       0.7846  0.44697   0.7337     O
H       0.7922   0.7421   0.5887     H
H       0.7922   0.7579   0.0887     H
O       0.7977  0.66181   0.4674     O
O       0.7977  0.83819   0.9674     O
O       0.8078  0.59402   0.5727     O
O       0.8078  0.90598   0.0727     O
O       0.8086  0.50897   0.0533     O
O       0.8086  0.99103   0.5533     O
O       0.8116  0.03382   0.8846     O
O       0.8116  0.46618   0.3846     O
H       0.8121   0.1667   0.7423     H
H       0.8121   0.3333   0.2423     H
H       0.8122   0.1371   0.5294     H
H       0.8122   0.3629   0.0294     H
O        0.813  0.53207   0.8875     O
O        0.813  0.96793   0.3875     O
O       0.8159  0.01278   0.0552     O
O       0.8159  0.48722   0.5552     O
H       0.8382   0.6609   0.7553     H
H       0.8382   0.8391   0.2553     H
O        0.866  0.23475   0.2609     O
O        0.866  0.26525   0.7609     O
O       0.8689   0.2203   0.4281     O
O       0.8689   0.2797   0.9281     O
O       0.8964  0.74488   0.9315     O
O       0.8964  0.75512   0.4315     O
O       0.8983  0.72478   0.2717     O
O       0.8983  0.77522   0.7717     O
C       0.9085   0.2341   0.3578     C
C       0.9085   0.2659   0.8578     C
O       0.9106  0.05814   0.7253     O
O       0.9106  0.44186   0.2253     O
O       0.9369  0.54308   0.7533     O
O       0.9369  0.95692   0.2533     O
C       0.9377   0.7468   0.3583     C
C       0.9377   0.7532   0.8583     C
H        0.973   0.2444   0.3793     H
H        0.973   0.2556   0.8793     H
H       0.9895   0.6027   0.7187     H
H       0.9895   0.8973   0.2187     H
C       0.9957   0.0692   0.7523     C
C       0.9957   0.4308   0.2523     C
H       0.9985   0.2422   0.6306     H
H       0.9985   0.2578   0.1306     H
