data_I
_chemical_name_common  '/home/zhangsd/repos/MofS-CGCNN/ML/data/TSD/clean_cifs/ISIYOZ_clean'
_cell_length_a 18.09390
_cell_length_b 13.31150
_cell_length_c  8.57750
_cell_angle_alpha 90.00000
_cell_angle_beta  90.00000
_cell_angle_gamma 90.00000
_space_group_name_H-M_alt      'P 1'


loop_
_space_group_symop_operation_xyz
  'x, y, z' 

loop_
_atom_site_label
_atom_site_fract_x
_atom_site_fract_y
_atom_site_fract_z
_atom_site_type_symbol
O       0.0018   0.2202   0.1533     O
O       0.0029   0.5406   0.3496     O
O       0.0029   0.7108   0.1521     O
O       0.0034   0.0329   0.3384     O
C       0.0068   0.0069   0.9672     C
C       0.0102   0.2532   0.5206     C
C       0.0105   0.4991   0.9749     C
C       0.0119   0.7486   0.5203     C
H       0.0263   0.7357   0.9428     H
H       0.0275   0.2504   0.9472     H
H       0.0287   0.4983   0.5484     H
H        0.032   0.9972   0.5415     H
H       0.0631   0.3825   0.2694     H
O       0.0639   0.2059   0.4811     O
H       0.0641   0.8802   0.2081     H
O       0.0657   0.0532   0.0077     O
O       0.0719   0.5372   0.0164     O
O       0.0729   0.7159   0.4731     O
Er     0.10102  0.12542  0.25264    Er
Er      0.1062  0.62491  0.25236    Er
C       0.1155   0.3814   0.2629     C
C       0.1165   0.8783   0.2141     C
O       0.1475   0.7924   0.1959     O
O       0.1477   0.9567   0.2382     O
O       0.1478   0.4585   0.2819     O
O        0.148   0.2943   0.2333     O
O       0.2011    0.134    0.091     O
O       0.2032   0.1136   0.4205     O
O       0.2043   0.6189   0.0815     O
H       0.2073   0.0595   0.8945     H
H       0.2079   0.1988   0.5778     H
O       0.2085   0.6322   0.4239     O
C       0.2325   0.1458    0.525     C
C        0.233   0.1048   0.9609     C
C        0.267   0.6048   0.4609     C
C       0.2675   0.6458    0.025     C
O       0.2915   0.1322   0.9239     O
H       0.2921   0.6988   0.0778     H
H       0.2927   0.5595   0.3945     H
O       0.2957   0.1189   0.5815     O
O       0.2968   0.6136   0.9205     O
O       0.2989    0.634    0.591     O
O        0.352   0.7943   0.7333     O
O       0.3522   0.9585   0.7819     O
O       0.3523   0.4567   0.7382     O
O       0.3525   0.2924   0.6959     O
C       0.3835   0.3783   0.7141     C
C       0.3845   0.8814   0.7629     C
Er      0.3938  0.12491  0.75236    Er
Er     0.39898  0.62542  0.75264    Er
O       0.4271   0.2159   0.9731     O
O       0.4281   0.0372   0.5164     O
O       0.4343   0.5532   0.5077     O
H       0.4359   0.3802   0.7081     H
O       0.4361   0.7059   0.9811     O
H       0.4369   0.8825   0.7694     H
H        0.468   0.4972   0.0415     H
H       0.4713   0.9983   0.0484     H
H       0.4725   0.7504   0.4472     H
H       0.4737   0.2357   0.4428     H
C       0.4881   0.2486   0.0203     C
C       0.4895   0.9991   0.4749     C
C       0.4898   0.7532   0.0206     C
C       0.4932   0.5069   0.4672     C
O       0.4966   0.5329   0.8384     O
O       0.4971   0.0406   0.8496     O
O       0.4971   0.2108   0.6521     O
O       0.4982   0.7202   0.6533     O
O       0.5018   0.2798   0.1533     O
O       0.5029   0.7892   0.1521     O
O       0.5029   0.9594   0.3496     O
O       0.5034   0.4671   0.3384     O
C       0.5068   0.4931   0.9672     C
C       0.5102   0.2468   0.5206     C
C       0.5105   0.0009   0.9749     C
C       0.5119   0.7514   0.5203     C
H       0.5263   0.7643   0.9428     H
H       0.5275   0.2496   0.9472     H
H       0.5287   0.0017   0.5484     H
H        0.532   0.5028   0.5415     H
H       0.5631   0.1175   0.2694     H
O       0.5639   0.2941   0.4811     O
H       0.5641   0.6198   0.2081     H
O       0.5657   0.4468   0.0077     O
O       0.5719   0.9628   0.0164     O
O       0.5729   0.7841   0.4731     O
Er     0.60102  0.37458  0.25264    Er
Er      0.6062  0.87509  0.25236    Er
C       0.6155   0.1186   0.2629     C
C       0.6165   0.6217   0.2141     C
O       0.6475   0.7076   0.1959     O
O       0.6477   0.5433   0.2382     O
O       0.6478   0.0415   0.2819     O
O        0.648   0.2057   0.2333     O
O       0.7011    0.366    0.091     O
O       0.7032   0.3864   0.4205     O
O       0.7043   0.8811   0.0815     O
H       0.7073   0.4405   0.8945     H
H       0.7079   0.3012   0.5778     H
O       0.7085   0.8678   0.4239     O
C       0.7325   0.3542    0.525     C
C        0.733   0.3952   0.9609     C
C        0.767   0.8952   0.4609     C
C       0.7675   0.8542    0.025     C
O       0.7915   0.3678   0.9239     O
H       0.7921   0.8012   0.0778     H
H       0.7927   0.9405   0.3945     H
O       0.7957   0.3811   0.5815     O
O       0.7968   0.8864   0.9205     O
O       0.7989    0.866    0.591     O
O        0.852   0.7057   0.7333     O
O       0.8522   0.5415   0.7819     O
O       0.8523   0.0433   0.7382     O
O       0.8525   0.2076   0.6959     O
C       0.8835   0.1217   0.7141     C
C       0.8845   0.6186   0.7629     C
Er      0.8938  0.37509  0.75236    Er
Er     0.89898  0.87458  0.75264    Er
O       0.9271   0.2841   0.9731     O
O       0.9281   0.4628   0.5164     O
O       0.9343   0.9468   0.5077     O
H       0.9359   0.1198   0.7081     H
O       0.9361   0.7941   0.9811     O
H       0.9369   0.6175   0.7694     H
H        0.968   0.0028   0.0415     H
H       0.9713   0.5017   0.0484     H
H       0.9725   0.7496   0.4472     H
H       0.9737   0.2643   0.4428     H
C       0.9881   0.2514   0.0203     C
C       0.9895   0.5009   0.4749     C
C       0.9898   0.7468   0.0206     C
C       0.9932   0.9931   0.4672     C
O       0.9966   0.9671   0.8384     O
O       0.9971   0.2892   0.6521     O
O       0.9971   0.4594   0.8496     O
O       0.9982   0.7798   0.6533     O
