data_I
_chemical_name_common  '/home/zhangsd/repos/MofS-CGCNN/ML/data/TSD/clean_cifs/ITIXAM_clean'
_cell_length_a 18.42020
_cell_length_b  9.55100
_cell_length_c 33.87900
_cell_angle_alpha 90.00000
_cell_angle_beta  92.71800
_cell_angle_gamma 90.00000
_space_group_name_H-M_alt      'P 1'


loop_
_space_group_symop_operation_xyz
  'x, y, z' 

loop_
_atom_site_label
_atom_site_fract_x
_atom_site_fract_y
_atom_site_fract_z
_atom_site_type_symbol
Mn         0.0      0.5      0.0    Mn
Mn         0.0      0.5      0.5    Mn
H       0.0074   0.0048    0.893     H
H       0.0074   0.9952    0.393     H
O       0.0101   0.0749   0.9654     O
O       0.0101   0.9251   0.4654     O
C       0.0129   0.1892   0.5501     C
C       0.0129   0.8108   0.0501     C
C       0.0161   0.0837   0.6174     C
C       0.0161   0.9163   0.1174     C
Mn     0.02013  0.14725  0.47173    Mn
Mn     0.02013  0.85275  0.97173    Mn
H        0.024   0.0131   0.6731     H
H        0.024   0.9869   0.1731     H
O       0.0247   0.2919  0.52742     O
O       0.0247   0.7081  0.02742     O
C       0.0312   0.1949   0.5922     C
C       0.0312   0.8051   0.0922     C
C       0.0348   0.0876   0.6567     C
C       0.0348   0.9124   0.1567     C
O       0.0516   0.4313   0.4461     O
O       0.0516   0.5687   0.9461     O
O        0.065   0.2212   0.4212     O
O        0.065   0.7788   0.9212     O
C       0.0659   0.3119    0.609     C
C       0.0659   0.6881    0.109     C
C        0.069   0.3519   0.4188     C
C        0.069   0.6481   0.9188     C
C       0.0706   0.2063   0.6719     C
C       0.0706   0.7937   0.1719     C
H       0.0763   0.3878    0.593     H
H       0.0763   0.6122    0.093     H
O        0.082   0.2109  0.05311     O
O        0.082   0.7891  0.55311     O
O       0.0845   0.2163  0.71228     O
O       0.0845   0.7837  0.21228     O
C       0.0849   0.3172   0.6483     C
C       0.0849   0.6828   0.1483     C
H       0.0899    0.385   0.8963     H
H       0.0899    0.615   0.3963     H
H       0.0928    0.153   0.7837     H
H       0.0928    0.847   0.2837     H
C       0.0983   0.4113    0.382     C
C       0.0983   0.5887    0.882     C
O       0.0985   0.4189  0.02441     O
O       0.0985   0.5811  0.52441     O
C       0.1069   0.4461   0.8775     C
C       0.1069   0.5539   0.3775     C
H       0.1076   0.3965   0.6589     H
H       0.1076   0.6035   0.1589     H
C       0.1107   0.3315   0.0509     C
C       0.1107   0.6685   0.5509     C
H       0.1133   0.2258   0.3555     H
H       0.1133   0.7742   0.8555     H
C       0.1206   0.3216   0.3529     C
C       0.1206   0.6784   0.8529     C
C       0.1311   0.1131   0.7708     C
C       0.1311   0.8869   0.2708     C
H       0.1315   0.2392    0.125     H
H       0.1315   0.7608    0.625     H
C       0.1361   0.1268   0.7309     C
C       0.1361   0.8732   0.2309     C
C       0.1407   0.3941    0.845     C
C       0.1407   0.6059    0.345     C
H       0.1463   0.2979    0.842     H
H       0.1463   0.7021    0.342     H
C        0.154   0.3733   0.3198     C
C        0.154   0.6267   0.8198     C
C       0.1658   0.3078   0.1201     C
C       0.1658   0.6922   0.6201     C
C        0.166    0.371   0.0833     C
C        0.166    0.629   0.5833     C
C       0.1662   0.4844    0.817     C
C       0.1662   0.5156    0.317     C
H       0.1678   0.3131   0.2999     H
H       0.1678   0.6869   0.7999     H
O       0.1759   0.0175  0.83143     O
O       0.1759   0.9825  0.33143     O
C       0.1847   0.0385   0.7911     C
C       0.1847   0.9615   0.2911     C
C       0.1922   0.0681   0.7108     C
C       0.1922   0.9319   0.2108     C
H       0.1944    0.079   0.6836     H
H       0.1944    0.921   0.1836     H
H       0.1946   0.0731      0.4     H
H       0.1946   0.9269      0.9     H
O       0.1994   0.4247   0.7853     O
O       0.1994   0.5753   0.2853     O
H       0.2151    0.305   0.1743     H
H       0.2151    0.695   0.6743     H
C        0.216    0.346   0.1495     C
C        0.216    0.654   0.6495     C
H       0.2172   0.4838   0.5523     H
H       0.2172   0.5162   0.0523     H
C       0.2176   0.4716   0.0767     C
C       0.2176   0.5284   0.5767     C
H       0.2236   0.4233   0.7136     H
H       0.2236   0.5767   0.2136     H
C       0.2302   0.0078   0.3947     C
C       0.2302   0.9922   0.8947     C
C       0.2318   0.0544   0.8582     C
C       0.2318   0.9456   0.3582     C
C       0.2414   0.0243   0.2723     C
C       0.2414   0.9757   0.7723     C
C       0.2443   0.0062   0.2319     C
C       0.2443   0.9938   0.7319     C
C       0.2557   0.4938   0.7681     C
C       0.2557   0.5062   0.2681     C
C       0.2586   0.4757   0.7277     C
C       0.2586   0.5243   0.2277     C
C       0.2682   0.4456   0.1418     C
C       0.2682   0.5544   0.6418     C
C       0.2698   0.4922   0.6053     C
C       0.2698   0.5078   0.1053     C
H       0.2764   0.0767   0.2864     H
H       0.2764   0.9233   0.7864     H
C       0.2824   0.0284   0.9233     C
C       0.2824   0.9716   0.4233     C
H       0.2828   0.0162   0.4477     H
H       0.2828   0.9838   0.9477     H
C        0.284    0.154   0.8505     C
C        0.284    0.846   0.3505     C
H       0.2849    0.195   0.8257     H
H       0.2849    0.805   0.3257     H
O       0.3006   0.0753   0.2147     O
O       0.3006   0.9247   0.7147     O
H       0.3054   0.4269      0.6     H
H       0.3054   0.5731      0.1     H
H       0.3056    0.421   0.3164     H
H       0.3056    0.579   0.8164     H
C       0.3078   0.4319   0.2892     C
C       0.3078   0.5681   0.7892     C
C       0.3153   0.4615   0.2089     C
C       0.3153   0.5385   0.7089     C
O       0.3241   0.4825  0.16857     O
O       0.3241   0.5175  0.66857     O
H       0.3322   0.1869   0.7001     H
H       0.3322   0.8131   0.2001     H
C       0.3338   0.0156    0.183     C
C       0.3338   0.9844    0.683     C
C        0.334    0.129   0.9167     C
C        0.334    0.871   0.4167     C
C       0.3342   0.1922   0.8799     C
C       0.3342   0.8078   0.3799     C
C        0.346   0.1267   0.6802     C
C        0.346   0.8733   0.1802     C
H       0.3537   0.2021    0.158     H
H       0.3537   0.7979    0.658     H
C       0.3593   0.1059    0.155     C
C       0.3593   0.8941    0.655     C
C       0.3639   0.3732   0.2691     C
C       0.3639   0.6268   0.7691     C
H       0.3685   0.2608    0.875     H
H       0.3685   0.7392    0.375     H
C       0.3689   0.3869   0.2292     C
C       0.3689   0.6131   0.7292     C
C       0.3794   0.1784   0.6471     C
C       0.3794   0.8216   0.1471     C
H       0.3867   0.2742   0.6445     H
H       0.3867   0.7258   0.1445     H
C       0.3893   0.1685   0.9491     C
C       0.3893   0.8315   0.4491     C
H       0.3924   0.1035   0.3411     H
H       0.3924   0.8965   0.8411     H
C       0.3931   0.0539   0.1225     C
C       0.3931   0.9461   0.6225     C
O       0.4015   0.0811  0.97559     O
O       0.4015   0.9189  0.47559     O
C       0.4017   0.0887    0.618     C
C       0.4017   0.9113    0.118     C
H       0.4072    0.347   0.2163     H
H       0.4072    0.653   0.7163     H
H       0.4101    0.115   0.1037     H
H       0.4101    0.885   0.6037     H
C       0.4151   0.1828   0.3517     C
C       0.4151   0.8172   0.8517     C
O       0.4155   0.2837  0.28772     O
O       0.4155   0.7163  0.78772     O
O        0.418   0.2891  0.94689     O
O        0.418   0.7109  0.44689     O
H       0.4237   0.1122    0.407     H
H       0.4237   0.8878    0.907     H
C       0.4294   0.2937   0.3281     C
C       0.4294   0.7063   0.8281     C
C        0.431   0.1481   0.5812     C
C        0.431   0.8519   0.0812     C
C       0.4341   0.1881    0.391     C
C       0.4341   0.8119    0.891     C
O        0.435   0.2788   0.5788     O
O        0.435   0.7212   0.0788     O
O       0.4484   0.0687   0.5539     O
O       0.4484   0.9313   0.0539     O
C       0.4652   0.4124   0.3433     C
C       0.4652   0.5876   0.8433     C
C       0.4688   0.3051   0.4078     C
C       0.4688   0.6949   0.9078     C
O       0.4753   0.2081  0.47258     O
O       0.4753   0.7919  0.97258     O
H        0.476   0.4869   0.3269     H
H        0.476   0.5131   0.8269     H
Mn     0.47987  0.35275  0.52827    Mn
Mn     0.47987  0.64725  0.02827    Mn
C       0.4839   0.4163   0.3826     C
C       0.4839   0.5837   0.8826     C
C       0.4871   0.3108   0.4499     C
C       0.4871   0.6892   0.9499     C
O       0.4899   0.4251   0.0346     O
O       0.4899   0.5749   0.5346     O
H       0.4926   0.4952    0.107     H
H       0.4926   0.5048    0.607     H
Mn         0.5      0.0      0.0    Mn
Mn         0.5      0.0      0.5    Mn
H       0.5074   0.4952    0.393     H
H       0.5074   0.5048    0.893     H
O       0.5101   0.4251   0.4654     O
O       0.5101   0.5749   0.9654     O
C       0.5129   0.3108   0.0501     C
C       0.5129   0.6892   0.5501     C
C       0.5161   0.4163   0.1174     C
C       0.5161   0.5837   0.6174     C
Mn     0.52013  0.35275  0.97173    Mn
Mn     0.52013  0.64725  0.47173    Mn
H        0.524   0.4869   0.1731     H
H        0.524   0.5131   0.6731     H
O       0.5247   0.2081  0.02742     O
O       0.5247   0.7919  0.52742     O
C       0.5312   0.3051   0.0922     C
C       0.5312   0.6949   0.5922     C
C       0.5348   0.4124   0.1567     C
C       0.5348   0.5876   0.6567     C
O       0.5516   0.0687   0.9461     O
O       0.5516   0.9313   0.4461     O
O        0.565   0.2788   0.9212     O
O        0.565   0.7212   0.4212     O
C       0.5659   0.1881    0.109     C
C       0.5659   0.8119    0.609     C
C        0.569   0.1481   0.9188     C
C        0.569   0.8519   0.4188     C
C       0.5706   0.2937   0.1719     C
C       0.5706   0.7063   0.6719     C
H       0.5763   0.1122    0.093     H
H       0.5763   0.8878    0.593     H
O        0.582   0.2891  0.55311     O
O        0.582   0.7109  0.05311     O
O       0.5845   0.2837  0.21228     O
O       0.5845   0.7163  0.71228     O
C       0.5849   0.1828   0.1483     C
C       0.5849   0.8172   0.6483     C
H       0.5899    0.115   0.3963     H
H       0.5899    0.885   0.8963     H
H       0.5928    0.347   0.2837     H
H       0.5928    0.653   0.7837     H
C       0.5983   0.0887    0.882     C
C       0.5983   0.9113    0.382     C
O       0.5985   0.0811  0.52441     O
O       0.5985   0.9189  0.02441     O
C       0.6069   0.0539   0.3775     C
C       0.6069   0.9461   0.8775     C
H       0.6076   0.1035   0.1589     H
H       0.6076   0.8965   0.6589     H
C       0.6107   0.1685   0.5509     C
C       0.6107   0.8315   0.0509     C
H       0.6133   0.2742   0.8555     H
H       0.6133   0.7258   0.3555     H
C       0.6206   0.1784   0.8529     C
C       0.6206   0.8216   0.3529     C
C       0.6311   0.3869   0.2708     C
C       0.6311   0.6131   0.7708     C
H       0.6315   0.2608    0.625     H
H       0.6315   0.7392    0.125     H
C       0.6361   0.3732   0.2309     C
C       0.6361   0.6268   0.7309     C
C       0.6407   0.1059    0.345     C
C       0.6407   0.8941    0.845     C
H       0.6463   0.2021    0.342     H
H       0.6463   0.7979    0.842     H
C        0.654   0.1267   0.8198     C
C        0.654   0.8733   0.3198     C
C       0.6658   0.1922   0.6201     C
C       0.6658   0.8078   0.1201     C
C        0.666    0.129   0.5833     C
C        0.666    0.871   0.0833     C
C       0.6662   0.0156    0.317     C
C       0.6662   0.9844    0.817     C
H       0.6678   0.1869   0.7999     H
H       0.6678   0.8131   0.2999     H
O       0.6759   0.4825  0.33143     O
O       0.6759   0.5175  0.83143     O
C       0.6847   0.4615   0.2911     C
C       0.6847   0.5385   0.7911     C
C       0.6922   0.4319   0.2108     C
C       0.6922   0.5681   0.7108     C
H       0.6944    0.421   0.1836     H
H       0.6944    0.579   0.6836     H
H       0.6946   0.4269      0.9     H
H       0.6946   0.5731      0.4     H
O       0.6994   0.0753   0.2853     O
O       0.6994   0.9247   0.7853     O
H       0.7151    0.195   0.6743     H
H       0.7151    0.805   0.1743     H
C        0.716    0.154   0.6495     C
C        0.716    0.846   0.1495     C
H       0.7172   0.0162   0.0523     H
H       0.7172   0.9838   0.5523     H
C       0.7176   0.0284   0.5767     C
C       0.7176   0.9716   0.0767     C
H       0.7236   0.0767   0.2136     H
H       0.7236   0.9233   0.7136     H
C       0.7302   0.4922   0.8947     C
C       0.7302   0.5078   0.3947     C
C       0.7318   0.4456   0.3582     C
C       0.7318   0.5544   0.8582     C
C       0.7414   0.4757   0.7723     C
C       0.7414   0.5243   0.2723     C
C       0.7443   0.4938   0.7319     C
C       0.7443   0.5062   0.2319     C
C       0.7557   0.0062   0.2681     C
C       0.7557   0.9938   0.7681     C
C       0.7586   0.0243   0.2277     C
C       0.7586   0.9757   0.7277     C
C       0.7682   0.0544   0.6418     C
C       0.7682   0.9456   0.1418     C
C       0.7698   0.0078   0.1053     C
C       0.7698   0.9922   0.6053     C
H       0.7764   0.4233   0.7864     H
H       0.7764   0.5767   0.2864     H
C       0.7824   0.4716   0.4233     C
C       0.7824   0.5284   0.9233     C
H       0.7828   0.4838   0.9477     H
H       0.7828   0.5162   0.4477     H
C        0.784    0.346   0.3505     C
C        0.784    0.654   0.8505     C
H       0.7849    0.305   0.3257     H
H       0.7849    0.695   0.8257     H
O       0.8006   0.4247   0.7147     O
O       0.8006   0.5753   0.2147     O
H       0.8054   0.0731      0.1     H
H       0.8054   0.9269      0.6     H
H       0.8056    0.079   0.8164     H
H       0.8056    0.921   0.3164     H
C       0.8078   0.0681   0.7892     C
C       0.8078   0.9319   0.2892     C
C       0.8153   0.0385   0.7089     C
C       0.8153   0.9615   0.2089     C
O       0.8241   0.0175  0.66857     O
O       0.8241   0.9825  0.16857     O
H       0.8322   0.3131   0.2001     H
H       0.8322   0.6869   0.7001     H
C       0.8338   0.4844    0.683     C
C       0.8338   0.5156    0.183     C
C        0.834    0.371   0.4167     C
C        0.834    0.629   0.9167     C
C       0.8342   0.3078   0.3799     C
C       0.8342   0.6922   0.8799     C
C        0.846   0.3733   0.1802     C
C        0.846   0.6267   0.6802     C
H       0.8537   0.2979    0.658     H
H       0.8537   0.7021    0.158     H
C       0.8593   0.3941    0.655     C
C       0.8593   0.6059    0.155     C
C       0.8639   0.1268   0.7691     C
C       0.8639   0.8732   0.2691     C
H       0.8685   0.2392    0.375     H
H       0.8685   0.7608    0.875     H
C       0.8689   0.1131   0.7292     C
C       0.8689   0.8869   0.2292     C
C       0.8794   0.3216   0.1471     C
C       0.8794   0.6784   0.6471     C
H       0.8867   0.2258   0.1445     H
H       0.8867   0.7742   0.6445     H
C       0.8893   0.3315   0.4491     C
C       0.8893   0.6685   0.9491     C
H       0.8924   0.3965   0.8411     H
H       0.8924   0.6035   0.3411     H
C       0.8931   0.4461   0.6225     C
C       0.8931   0.5539   0.1225     C
O       0.9015   0.4189  0.47559     O
O       0.9015   0.5811  0.97559     O
C       0.9017   0.4113    0.118     C
C       0.9017   0.5887    0.618     C
H       0.9072    0.153   0.7163     H
H       0.9072    0.847   0.2163     H
H       0.9101    0.385   0.6037     H
H       0.9101    0.615   0.1037     H
C       0.9151   0.3172   0.8517     C
C       0.9151   0.6828   0.3517     C
O       0.9155   0.2163  0.78772     O
O       0.9155   0.7837  0.28772     O
O        0.918   0.2109  0.44689     O
O        0.918   0.7891  0.94689     O
H       0.9237   0.3878    0.907     H
H       0.9237   0.6122    0.407     H
C       0.9294   0.2063   0.8281     C
C       0.9294   0.7937   0.3281     C
C        0.931   0.3519   0.0812     C
C        0.931   0.6481   0.5812     C
C       0.9341   0.3119    0.891     C
C       0.9341   0.6881    0.391     C
O        0.935   0.2212   0.0788     O
O        0.935   0.7788   0.5788     O
O       0.9484   0.4313   0.0539     O
O       0.9484   0.5687   0.5539     O
C       0.9652   0.0876   0.8433     C
C       0.9652   0.9124   0.3433     C
C       0.9688   0.1949   0.9078     C
C       0.9688   0.8051   0.4078     C
O       0.9753   0.2919  0.97258     O
O       0.9753   0.7081  0.47258     O
H        0.976   0.0131   0.8269     H
H        0.976   0.9869   0.3269     H
Mn     0.97987  0.14725  0.02827    Mn
Mn     0.97987  0.85275  0.52827    Mn
C       0.9839   0.0837   0.8826     C
C       0.9839   0.9163   0.3826     C
C       0.9871   0.1892   0.9499     C
C       0.9871   0.8108   0.4499     C
O       0.9899   0.0749   0.5346     O
O       0.9899   0.9251   0.0346     O
H       0.9926   0.0048    0.607     H
H       0.9926   0.9952    0.107     H
