data_I
_chemical_name_common  '/home/zhangsd/repos/MofS-CGCNN/ML/data/TSD/clean_cifs/IXAMIE_clean'
_cell_length_a 10.26600
_cell_length_b 10.26600
_cell_length_c  9.63110
_cell_angle_alpha 90.00000
_cell_angle_beta  90.00000
_cell_angle_gamma 90.00000
_space_group_name_H-M_alt      'P 1'


loop_
_space_group_symop_operation_xyz
  'x, y, z' 

loop_
_atom_site_label
_atom_site_fract_x
_atom_site_fract_y
_atom_site_fract_z
_atom_site_type_symbol
O       0.0221   0.1956   0.2788     O
O       0.0221   0.8044   0.7212     O
Fe     0.13275  0.13275  0.63121    Fe
Fe     0.13275  0.86725  0.36879    Fe
P      0.16416  0.16416   0.3063     P
P      0.16416  0.83584   0.6937     P
O       0.1956   0.0221   0.2788     O
O       0.1956   0.9779   0.7212     O
O       0.1996   0.1996   0.4548     O
O       0.1996   0.8004   0.5452     O
O       0.2436   0.2436   0.2074     O
O       0.2436   0.7564   0.7926     O
O       0.2564   0.2564   0.7074     O
O       0.2564   0.7436   0.2926     O
O       0.3004   0.3004   0.9548     O
O       0.3004   0.6996   0.0452     O
O       0.3044   0.4779   0.7788     O
O       0.3044   0.5221   0.2212     O
P      0.33584  0.33584   0.8063     P
P      0.33584  0.66416   0.1937     P
Fe     0.36725  0.36725  0.13121    Fe
Fe     0.36725  0.63275  0.86879    Fe
O       0.4779   0.3044   0.7788     O
O       0.4779   0.6956   0.2212     O
O       0.5221   0.3044   0.2212     O
O       0.5221   0.6956   0.7788     O
Fe     0.63275  0.36725  0.86879    Fe
Fe     0.63275  0.63275  0.13121    Fe
P      0.66416  0.33584   0.1937     P
P      0.66416  0.66416   0.8063     P
O       0.6956   0.4779   0.2212     O
O       0.6956   0.5221   0.7788     O
O       0.6996   0.3004   0.0452     O
O       0.6996   0.6996   0.9548     O
O       0.7436   0.2564   0.2926     O
O       0.7436   0.7436   0.7074     O
O       0.7564   0.2436   0.7926     O
O       0.7564   0.7564   0.2074     O
O       0.8004   0.1996   0.5452     O
O       0.8004   0.8004   0.4548     O
O       0.8044   0.0221   0.7212     O
O       0.8044   0.9779   0.2788     O
P      0.83584  0.16416   0.6937     P
P      0.83584  0.83584   0.3063     P
Fe     0.86725  0.13275  0.36879    Fe
Fe     0.86725  0.86725  0.63121    Fe
O       0.9779   0.1956   0.7212     O
O       0.9779   0.8044   0.2788     O
