data_I
_chemical_name_common  '/home/zhangsd/repos/MofS-CGCNN/ML/data/TSD/clean_cifs/IXAMEA_clean'
_cell_length_a 10.29410
_cell_length_b 10.29410
_cell_length_c  9.64840
_cell_angle_alpha 90.00000
_cell_angle_beta  90.00000
_cell_angle_gamma 90.00000
_space_group_name_H-M_alt      'P 1'


loop_
_space_group_symop_operation_xyz
  'x, y, z' 

loop_
_atom_site_label
_atom_site_fract_x
_atom_site_fract_y
_atom_site_fract_z
_atom_site_type_symbol
O        0.023   0.1954   0.2198     O
O        0.023   0.8046   0.7802     O
Fe     0.13313  0.13313  0.86778    Fe
Fe     0.13313  0.86687  0.13222    Fe
P      0.16369  0.16369   0.1929     P
P      0.16369  0.83631   0.8071     P
O       0.1954    0.023   0.2198     O
O       0.1954    0.977   0.7802     O
O       0.2008   0.2008   0.0484     O
O       0.2008   0.7992   0.9516     O
O       0.2438   0.2438   0.2902     O
O       0.2438   0.7562   0.7098     O
O       0.2562   0.2562   0.7902     O
O       0.2562   0.7438   0.2098     O
O       0.2992   0.2992   0.5484     O
O       0.2992   0.7008   0.4516     O
O       0.3046    0.477   0.7198     O
O       0.3046    0.523   0.2802     O
P      0.33631  0.33631   0.6929     P
P      0.33631  0.66369   0.3071     P
Fe     0.36687  0.36687  0.36778    Fe
Fe     0.36687  0.63313  0.63222    Fe
O        0.477   0.3046   0.7198     O
O        0.477   0.6954   0.2802     O
O        0.523   0.3046   0.2802     O
O        0.523   0.6954   0.7198     O
Fe     0.63313  0.36687  0.63222    Fe
Fe     0.63313  0.63313  0.36778    Fe
P      0.66369  0.33631   0.3071     P
P      0.66369  0.66369   0.6929     P
O       0.6954    0.477   0.2802     O
O       0.6954    0.523   0.7198     O
O       0.7008   0.2992   0.4516     O
O       0.7008   0.7008   0.5484     O
O       0.7438   0.2562   0.2098     O
O       0.7438   0.7438   0.7902     O
O       0.7562   0.2438   0.7098     O
O       0.7562   0.7562   0.2902     O
O       0.7992   0.2008   0.9516     O
O       0.7992   0.7992   0.0484     O
O       0.8046    0.023   0.7802     O
O       0.8046    0.977   0.2198     O
P      0.83631  0.16369   0.8071     P
P      0.83631  0.83631   0.1929     P
Fe     0.86687  0.13313  0.13222    Fe
Fe     0.86687  0.86687  0.86778    Fe
O        0.977   0.1954   0.7802     O
O        0.977   0.8046   0.2198     O
