data_I
_chemical_name_common  '/home/zhangsd/repos/MofS-CGCNN/ML/data/TSD/clean_cifs/IXAMAW_clean'
_cell_length_a 10.29200
_cell_length_b 10.29200
_cell_length_c  9.62900
_cell_angle_alpha 90.00000
_cell_angle_beta  90.00000
_cell_angle_gamma 90.00000
_space_group_name_H-M_alt      'P 1'


loop_
_space_group_symop_operation_xyz
  'x, y, z' 

loop_
_atom_site_label
_atom_site_fract_x
_atom_site_fract_y
_atom_site_fract_z
_atom_site_type_symbol
O       0.0235   0.1951   0.2229     O
O       0.0235   0.8049   0.7771     O
Fe     0.13442  0.13442   0.8652    Fe
Fe     0.13442  0.86558   0.1348    Fe
P       0.1631   0.1631   0.1915     P
P       0.1631   0.8369   0.8085     P
O       0.1951   0.0235   0.2229     O
O       0.1951   0.9765   0.7771     O
O       0.2026   0.2026   0.0459     O
O       0.2026   0.7974   0.9541     O
O       0.2382   0.2382    0.295     O
O       0.2382   0.7618    0.705     O
O       0.2618   0.2618    0.795     O
O       0.2618   0.7382    0.205     O
O       0.2974   0.2974   0.5459     O
O       0.2974   0.7026   0.4541     O
O       0.3049   0.4765   0.7229     O
O       0.3049   0.5235   0.2771     O
P       0.3369   0.3369   0.6915     P
P       0.3369   0.6631   0.3085     P
Fe     0.36558  0.36558   0.3652    Fe
Fe     0.36558  0.63442   0.6348    Fe
O       0.4765   0.3049   0.7229     O
O       0.4765   0.6951   0.2771     O
O       0.5235   0.3049   0.2771     O
O       0.5235   0.6951   0.7229     O
Fe     0.63442  0.36558   0.6348    Fe
Fe     0.63442  0.63442   0.3652    Fe
P       0.6631   0.3369   0.3085     P
P       0.6631   0.6631   0.6915     P
O       0.6951   0.4765   0.2771     O
O       0.6951   0.5235   0.7229     O
O       0.7026   0.2974   0.4541     O
O       0.7026   0.7026   0.5459     O
O       0.7382   0.2618    0.205     O
O       0.7382   0.7382    0.795     O
O       0.7618   0.2382    0.705     O
O       0.7618   0.7618    0.295     O
O       0.7974   0.2026   0.9541     O
O       0.7974   0.7974   0.0459     O
O       0.8049   0.0235   0.7771     O
O       0.8049   0.9765   0.2229     O
P       0.8369   0.1631   0.8085     P
P       0.8369   0.8369   0.1915     P
Fe     0.86558  0.13442   0.1348    Fe
Fe     0.86558  0.86558   0.8652    Fe
O       0.9765   0.1951   0.7771     O
O       0.9765   0.8049   0.2229     O
