data_I
_chemical_name_common  '/home/zhangsd/repos/MofS-CGCNN/ML/data/TSD/clean_cifs/IXUQUO_clean'
_cell_length_a 18.03500
_cell_length_b 18.03500
_cell_length_c 31.23930
_cell_angle_alpha 78.13380
_cell_angle_beta  78.13380
_cell_angle_gamma 106.71700
_space_group_name_H-M_alt      'P 1'


loop_
_space_group_symop_operation_xyz
  'x, y, z' 

loop_
_atom_site_label
_atom_site_fract_x
_atom_site_fract_y
_atom_site_fract_z
_atom_site_type_symbol
C       0.0007  0.49852  0.84258     C
C      0.00147  0.78961  0.44552     C
N       0.0023     0.68  0.97204     N
C      0.00506  0.56538  0.63436     C
C      0.00877  0.62627  0.55536     C
C      0.00935  0.29543  0.55582     C
C      0.00966  0.52544  0.20564     C
C      0.00983  0.42645  0.54532     C
C      0.01117  0.26085  0.06518     C
H       0.0115   0.5213   0.6994     H
H       0.0129   0.5683   0.4684     H
H       0.0141   0.7889   0.9484     H
H       0.0143   0.7047    0.164     H
H       0.0146   0.5778   0.9834     H
C      0.02101  0.13865  0.10574     C
H       0.0218   0.9754     0.13     H
C      0.02186  0.08646  0.64742     C
H       0.0237   0.4955   0.4184     H
C      0.02458   0.0993  0.60334     C
N      0.02724  0.01108  0.14468     N
C      0.02946  0.86368  0.41286     C
C      0.03064  0.43032  0.95734     C
C      0.03098  0.96646  0.84334     C
H       0.0315   0.5221   0.8124     H
C      0.03193  0.95711  0.88796     C
H       0.0334   0.2582   0.5496     H
H       0.0367   0.4813   0.5316     H
H       0.0378   0.4898   0.2038     H
H       0.0389   0.7641   0.4484     H
C      0.03961  0.75147  0.94552     C
C      0.04057  0.47989  0.87554     C
C      0.04088  0.63078  0.96534     C
C      0.04199  0.54457  0.66904     C
H       0.0433   0.5525   0.3034     H
C      0.04519  0.60481  0.17804     C
N      0.04712   0.3744  0.53318     N
H        0.048   0.9986   0.3648     H
C      0.04889  0.44623  0.33208     C
H       0.0489   0.1005      0.2     H
C       0.0527  0.60412  0.59038     C
O      0.05324  0.68092  0.51924     O
H       0.0554   0.4946   0.0438     H
H       0.0581   0.5609   0.0974     H
C      0.07433  0.01235  0.17252     C
C      0.07474   0.5198  0.30246     C
C      0.07757  0.06513   0.2013     C
H       0.0788   0.9572    0.896     H
H       0.0812   0.3476     0.35     H
H       0.0826   0.8872   0.3946     H
H       0.0834   0.2728    0.843     H
N      0.09171  0.28829  0.04008     N
C      0.09328   0.0911  0.65742     C
H       0.0935   0.1281   0.5386     H
H       0.0939   0.0845   0.6876     H
C      0.09467  0.11733  0.56882     C
H       0.0957   0.4885    0.867     H
C      0.09677  0.49927  0.05756     C
C      0.09701  0.39799    0.329     C
C      0.09792  0.53904  0.08952     C
C      0.09913  0.16505  0.07982     C
O      0.10375  0.97713  0.76782     O
H       0.1054   0.1518     0.87     H
C      0.10568  0.97936  0.80556     C
O      0.10657  0.44377  0.94566     O
C      0.11207  0.64433   0.9366     C
C      0.11368  0.77946  0.91286     C
H       0.1152   0.1734   0.4448     H
H       0.1158   0.9264    0.157     H
C      0.11751  0.96269   0.1744     C
H       0.1177   0.0929    0.399     H
N      0.11865  0.63741  0.14794     N
O      0.12157  0.49495  0.73218     O
C      0.12432   0.5598  0.65666     C
C      0.12558  0.06172   0.2315     C
H       0.1273   0.0941   0.2512     H
H       0.1305   0.1327   0.0838     H
O      0.13094  0.31194   0.4618     O
C      0.13156  0.23802  0.04842     C
H       0.1341   0.6039    0.935     H
C      0.13511  0.61787  0.58002     C
H       0.1366   0.6874   0.1324     H
C      0.13709  0.29191   0.8256     C
H       0.1372   0.8326   0.8946     H
H       0.1434   0.4036   0.7956     H
Zn     0.14598  0.40146  0.99636    Zn
C      0.14817  0.54539  0.27104     C
C      0.15018  0.72194  0.90968     C
C      0.15226  0.19356  0.41598     C
N      0.15286  0.46548  0.04432     N
C      0.15536  0.14496  0.38928     C
N      0.15576  0.17192  0.85532     N
Zn      0.1561  0.41059  0.48514    Zn
O      0.15888  0.49936  0.43776     O
O      0.15904  0.04574  0.32922     O
C      0.15934  0.54708  0.11052     C
C      0.16124  0.53492  0.69444     C
N      0.16448  0.58982   0.1423     N
C       0.1656  0.96972  0.20488     C
C      0.16611  0.10543  0.62446     C
C      0.16628   0.1195  0.57884     C
H       0.1667   0.5977   0.2518     H
H       0.1669   0.6435   0.5502     H
N      0.16951  0.01127  0.23216     N
C      0.16989  0.59507  0.61204     C
C      0.17218  0.42788  0.29254     C
O      0.17381  0.99417   0.8184     O
C       0.1746  0.37048  0.79512     C
H       0.1764   0.8658    0.657     H
C      0.18163  0.56413  0.44464     C
C      0.18487  0.24685  0.82748     C
H       0.1851   0.2539   0.0316     H
H        0.189   0.9492   0.7044     H
H       0.1937   0.7171   0.4498     H
H       0.1942   0.5908   0.3586     H
C       0.1945  0.64308  0.40962     C
C      0.19498    0.329  0.43222     C
N      0.19596  0.50078  0.26574     N
H       0.1968   0.5864   0.1588     H
C      0.19789  0.71513  0.41998     C
H       0.1992   0.6976   0.8112     H
H       0.1992    0.939   0.2044     H
C      0.19974  0.63942  0.36564     C
O      0.20016  0.57248  0.48076     O
C      0.20173  0.27161  0.40234     C
H       0.2029   0.3951   0.2884     H
H       0.2057   0.6323   0.7576     H
N      0.20603  0.12367  0.86164     N
C      0.20711  0.78193  0.38796     C
H       0.2072   0.8288    0.396     H
C      0.20988  0.47304  0.06568     C
H       0.2115   0.0927   0.8446     H
H       0.2125   0.4873   0.5516     H
C      0.21269  0.86751   0.6744     C
H       0.2127   0.1055    0.633     H
C      0.21284  0.16982  0.34754     C
H       0.2133   0.1399   0.7424     H
C      0.21361  0.71103  0.33096     C
C      0.21646  0.78098  0.34334     C
H       0.2165   0.2143   0.9162     H
C      0.21746  0.51378  0.09736     C
C      0.21972   0.9156  0.70488     C
C      0.22069  0.11249  0.32022     C
H       0.2207   0.7109   0.3006     H
N      0.22434  0.40204  0.52796     N
H       0.2248   0.6032    0.604     H
H       0.2254   0.7718     0.63     H
N      0.22579  0.74783  0.87958     N
O      0.22713  0.85375  0.26782     O
C      0.22936  0.85568  0.30556     C
C      0.23042  0.66456  0.81082     C
C      0.23465  0.62521  0.77854     C
C      0.23513  0.44699  0.55448     C
O      0.23615  0.15303   0.5024     O
C      0.23798  0.13766  0.54266     C
O      0.24221  0.56257   0.6816     O
N      0.24343  0.40167  0.76784     N
O      0.24417  0.92381   0.3184     O
C      0.24439  0.12675  0.89426     C
C      0.24487  0.17895  0.92018     C
Zn     0.24494  0.01524  0.27198    Zn
H       0.2476   0.4484   0.0584     H
H        0.248   0.3112   0.5166     H
H       0.2486    0.798   0.8648     H
C      0.25622  0.34612  0.53466     C
O      0.25875  0.38969  0.42546     O
H       0.2604   0.2588   0.6888     H
C      0.26049  0.29677  0.36014     C
H       0.2605   0.5191     0.11     H
N      0.26108  0.77724  0.64468     N
N      0.26127  0.91951  0.73216     N
C      0.26235  0.82433  0.67252     C
C       0.2631  0.24142  0.33408     C
C      0.26319  0.15375  0.72146     C
Zn     0.26524  0.99494  0.77198    Zn
C      0.26643  0.27887   0.7987     C
N       0.2667  0.69258  0.87272     N
C       0.2693  0.65714  0.84136     C
O      0.27376  0.12526  0.28778     O
N      0.27633  0.57805  0.77498     N
C      0.27654  0.44232  0.58714     C
H       0.2818   0.4772   0.6054     H
H       0.2842    0.035   0.8878     H
H        0.285   0.0342   0.3878     H
C      0.28526  0.07356  0.90358     C
H       0.2855   0.2167   0.9684     H
C      0.28644  0.17998  0.95158     C
Zn     0.28722  0.51692  0.72802    Zn
H       0.2904   0.1034   0.4398     H
C      0.29124  0.22538  0.68918     C
H       0.2926   0.6818    0.892     H
C      0.29322  0.35708   0.7685     C
O      0.29574  0.90904  0.82922     O
H       0.2974   0.3492   0.3494     H
C      0.29867  0.33093   0.5634     C
H       0.3005   0.2489      0.8     H
N      0.30131  0.10303  0.72502     N
O      0.30223  0.13943  0.55434     O
H       0.3027   0.2579   0.3064     H
Zn     0.30365  0.53632  0.21843    Zn
H       0.3061   0.6873   0.6554     H
O       0.3093  0.63234   0.1721     O
C      0.30986  0.38162  0.59032     C
C      0.31172  0.87558   0.7315     C
C      0.31362  0.60706  0.83872     C
C      0.31513  0.82757   0.7013     C
N      0.31767  0.73531  0.63836     N
C      0.31874  0.57198  0.80728     C
H       0.3191   0.2889    0.565     H
C      0.32356  0.03526  0.40358     C
C      0.32538  0.69876    0.183     C
C      0.32603  0.07635  0.93482     C
C      0.32635  0.07603  0.43482     C
O      0.32727  0.70163  0.22178     O
N      0.32837  0.13179  0.95992     N
H       0.3345   0.8439   0.1876     H
C      0.33646  0.77186  0.14742     C
H       0.3407   0.5983   0.8606     H
C       0.3411  0.84328  0.15742     C
H       0.3427   0.9615   0.3446     H
H       0.3429   0.8677    0.899     H
H       0.3441   0.8773   0.7512     H
H       0.3453   0.3785   0.7488     H
H        0.346    0.727   0.0954     H
H        0.347    0.158   0.1942     H
H       0.3492   0.2884   0.4562     H
C       0.3493  0.77458  0.10334     C
H       0.3505   0.7989      0.7     H
H       0.3522   0.5412   0.8058     H
N      0.35303  0.05131  0.22502     N
H       0.3534   0.0404   0.9398     H
N      0.35537  0.37741  0.62042     N
H       0.3554   0.6226   0.2858     H
C      0.35543  0.91611  0.12446     C
H       0.3555   0.9627    0.133     H
C      0.36066   0.2485  0.65864     C
C      0.36249  0.97069  0.82022     C
H       0.3634   0.4128   0.6352     H
C      0.36733  0.84467  0.06882     C
C       0.3695  0.91628  0.07884     C
N      0.37367  0.95603  0.36164     N
O      0.37496  0.48826  0.67078     O
O      0.37526  0.02376  0.78778     O
C      0.37602  0.12926  0.69272     C
C      0.37675  0.99439  0.39426     C
N      0.37682  0.53564  0.25874     N
H       0.3781   0.8435   0.0386     H
C      0.37926  0.12602  0.19272     C
N      0.38179  0.07837  0.45992     N
H       0.3827   0.8805   0.5838     H
C      0.38311  0.58627  0.28742     C
C      0.38766  0.98798  0.04266     C
C      0.38865  0.77101  0.60574     C
N      0.38942   0.3153  0.62728     N
O      0.38943  0.05223  0.05434     O
H       0.3899   0.9633   0.2424     H
Zn     0.39234  0.14782  0.50364    Zn
C      0.39496  0.90536  0.88928     C
Zn     0.39782  0.14234  0.00364    Zn
H       0.4018   0.8554     0.37     H
C      0.40234  0.19578  0.66128     C
O      0.40303  0.98615   0.0024     O
C      0.40375  0.01319  0.22146     C
C      0.40433  0.30683  0.44244     C
H       0.4055   0.4083   0.4026     H
H        0.408    0.097   0.6942     H
O      0.41304  0.56154  0.71222     O
C      0.41505  0.84913  0.57982     C
H       0.4175   0.4487    0.247     H
C      0.41977  0.48439  0.26484     C
C      0.41982  0.96284  0.84754     C
N      0.42192  0.90576  0.35532     N
H        0.422   0.6728   0.6122     H
H       0.4234   0.8652   0.9448     H
C      0.42768   0.5844  0.31752     C
H       0.4283   0.6187    0.336     H
C      0.42895  0.99487  0.42018     C
C      0.42998  0.03644  0.45158     C
C      0.43271  0.54091  0.67978     C
H       0.4346   0.3238    0.608     H
C      0.43744  0.37856  0.41048     C
C      0.43884  0.72714  0.59642     C
C      0.44356  0.90226  0.91598     C
C      0.44578  0.15234  0.16128     C
N      0.44718   0.2598  0.45568     N
H       0.4513   0.2089   0.6394     H
H       0.4589   0.2013   0.1394     H
H       0.4639   0.6599    0.104     H
H       0.4643   0.9665   0.4162     H
C       0.4653  0.48108  0.29436     C
H       0.4667   0.0355   0.4684     H
C      0.47323  0.53285  0.32196     C
C      0.47538  0.04124  0.18918     C
C      0.48802  0.88156  0.54842     C
H       0.4903   0.5579   0.1496     H
C      0.49142   0.0131  0.83408     C
H       0.4916   0.4436   0.2962     H
H       0.4919   0.5167    0.601     H
C      0.49685  0.93487  0.32748     C
C       0.4985  0.11066  0.15864     C
H       0.4989   0.0505      0.3     H
H       0.5039   0.9351   0.5316     H
H       0.5068    0.306   0.9416     H
H       0.5079   0.0527   0.8064     H
H       0.5082   0.7834   0.0496     H
H       0.5088   0.0104   0.1888     H
N       0.5098  0.19718  0.95568     N
C      0.51085  0.76117  0.56518     C
N      0.51659  0.53535  0.35206     N
C      0.51736  0.56038  0.65246     C
C      0.51849  0.68449  0.08862     C
H        0.519   0.5698   0.3676     H
C      0.51986   0.4076  0.38948     C
C      0.52161  0.95173  0.90234     C
H       0.5228   0.8334    0.343     H
C      0.52556  0.28872  0.43432     C
C      0.52887  0.01643   0.2987     C
C      0.53424  0.54464  0.61072     C
N      0.53829  0.84171  0.54008     N
H       0.5384   0.0992   0.9562     H
N      0.53853  0.57427   0.1318     N
C      0.53872  0.27556  0.93432     C
H       0.5389   0.0691    0.065     H
C      0.54191  0.88709   0.3256     C
H       0.5432   0.7302   0.5602     H
C      0.54543  0.75935  0.05582     C
C      0.54677  0.01049  0.86014     C
H        0.556   0.2568   0.4416     H
N      0.55678  0.48212   0.3577     N
C      0.55683  0.15433  0.94244     C
H       0.5612    0.998   0.0166     H
O      0.56194  0.88094   0.9618     O
H       0.5643   0.6091   0.6936     H
C      0.56482  0.36114  0.40264     C
N       0.5653  0.13942  0.12728     N
C      0.57149  0.64709  0.09822     C
H       0.5738   0.1846    0.108     H
C       0.5755  0.59718  0.66592     C
C        0.579  0.94498  0.93222     C
C      0.58093  0.04867   0.0634     C
N      0.59081  0.52805  0.13454     N
C      0.59612  0.00622  0.03466     C
H       0.5967   0.6059   0.1966     H
H       0.5973   0.5003   0.1156     H
H       0.5976   0.8312     0.85     H
H       0.5992   0.0474   0.8494     H
H       0.6056   0.4952   0.3412     H
C      0.60708  0.04322   0.2685     C
C      0.60954  0.56824  0.58402     C
C      0.61114  0.31482  0.90264     C
H       0.6159   0.7129   0.8844     H
H       0.6182     0.56   0.5552     H
C      0.62048   0.9246  0.29512     C
H       0.6205   0.3791     0.39     H
N       0.6244  0.79712  0.03318     N
C       0.6272  0.57226  0.19754     C
N      0.62741  0.10537  0.12042     N
H       0.6285   0.0953   0.2488     H
C      0.62856  0.18744  0.91048     C
H       0.6291   0.3705     0.89     H
C      0.63097  0.52831  0.16792     C
C      0.63162  0.05986  0.09032     C
O      0.63969  0.00875  0.92546     O
H       0.6451   0.9529   0.7884     H
C      0.64799  0.84701    0.829     C
Zn     0.65146  0.89598  0.49636    Zn
N      0.65167  0.99343  0.26784     N
N      0.65204  0.97434  0.02796     N
H       0.6536   0.8934   0.2956     H
C      0.65401  0.68705  0.07574     C
O      0.65543  0.73855   0.4976     O
C      0.65691  0.62063  0.63986     C
C       0.6576  0.26986  0.88948     C
H       0.6583   0.1555   0.9026     H
Zn     0.66059   0.9061  0.98515    Zn
N      0.66259  0.72535  0.86546     N
H       0.6628   0.1134   0.1352     H
H       0.6667   0.6321   0.4614     H
H       0.6685   0.5995   0.2482     H
C      0.66921  0.56643  0.22896     C
C      0.67395  0.60407  0.59766     C
C      0.67601  0.47699    0.171     C
C      0.67645  0.75983  0.04532     C
C      0.67788  0.92218  0.79254     C
C      0.68032  0.78064  0.45734     C
H       0.6812   0.4476     0.15     H
H       0.6835   0.4913   0.7116     H
C      0.68615  0.66349  0.43118     C
H       0.6914   0.5724   0.4046     H
H       0.6921   0.6639   0.0816     H
C      0.69232  0.02654  0.08714     C
H       0.6936   0.2416   0.7962     H
O      0.69377  0.85657  0.44566     O
H       0.6957   0.6645    0.753     H
C      0.69623  0.79889  0.83208     C
C      0.69699  0.98513  0.05448     C
H       0.6976   0.4312     0.65     H
C      0.69834  0.74512  0.42116     C
H       0.6984   0.9976   0.5584     H
H       0.6986   0.6468   0.6506     H
H       0.6987   0.1675    0.747     H
C      0.70264  0.62792  0.39666     C
N      0.70607  0.67033   0.8682     N
H       0.7075   0.6399   0.8504     H
N       0.7117  0.51652  0.23426     N
C      0.71472  0.47042  0.20746     C
N      0.71548  0.90286  0.54432     N
C      0.72042  0.46472  0.70746     C
C      0.72304  0.95988  0.56568     C
C      0.72699  0.42601    0.671     C
H       0.7272   0.0318   0.1054     H
C      0.72989  0.79057  0.37554     C
C      0.73108   0.2153  0.79436     C
H       0.7313   0.7867   0.0316     H
O       0.7314  0.55444   0.3279     O
N      0.73212  0.30678   0.8577     N
C      0.73388  0.66928  0.35258     C
C      0.73439  0.16977  0.76484     C
H       0.7373   0.9625   0.0516     H
O      0.73826  0.12496  0.17078     O
H       0.7385   0.8457    0.367     H
H       0.7398   0.7878   0.7038     H
H       0.7413   0.4335   0.2116     H
H       0.7446   0.8054   0.5438     H
O      0.74495  0.87157  0.23218     O
H       0.7452   0.3556   0.8412     H
C      0.74531  0.66971  0.90178     C
H       0.7455   0.7737   0.9184     H
C      0.74852   0.7507  0.34258     C
C      0.74923  0.68461  0.73516     C
C      0.74927  0.84677  0.55756     C
O      0.74936  0.90888  0.93776     O
H       0.7503   0.3473   0.6156     H
N      0.75078  0.94596  0.76574     N
Zn     0.75475  0.52208  0.78157    Zn
C      0.75838  0.63176    0.317     C
C      0.76122   0.6272  0.56778     C
C      0.76279  0.72975  0.92426     C
C      0.76378  0.96746  0.59736     C
H       0.7639   0.5679    0.896     H
N      0.76652   0.4617  0.73426     N
H       0.7667   0.2419    0.101     H
Zn     0.76692  0.03722  0.22802    Zn
H       0.7691   0.0105     0.61     H
C       0.7698  0.82474  0.80246     C
H       0.7713   0.7615   0.1994     H
Zn     0.77208  0.50475  0.28157    Zn
H       0.7721   0.7815   0.3124     H
C      0.77311  0.60711  0.91138     C
O      0.77374  0.59274   0.5382     O
C      0.77544  0.75966  0.70564     C
N      0.77805  0.34081  0.63454     N
C      0.77831  0.38097  0.66792     C
C      0.78285  0.22323  0.82196     C
C      0.78492  0.91124  0.19444     C
N      0.78535  0.26659  0.85206     N
N      0.78564  0.12682  0.75874     N
Zn     0.78632  0.05365  0.71843    Zn
C      0.78904  0.84792  0.58952     C
C      0.79091  0.18271  0.17978     C
H       0.7912   0.1022   0.3058     H
N      0.79438  0.63556  0.74126     N
C      0.79457  0.79199  0.16904     C
C      0.79464  0.28424  0.11072     C
C      0.79539  0.89817  0.77104     C
C      0.79708  0.90934  0.61052     C
O      0.79905  0.67341  0.27822     O
H       0.8025   0.7933   0.8034     H
H       0.8028   0.6994   0.1414     H
O      0.80444   0.4814   0.8279     O
C      0.80515  0.72177  0.95468     C
H       0.8078    0.583   0.4504     H
H       0.8079   0.2403   0.6496     H
C       0.8098  0.87432  0.15666     C
H         0.81   0.3682   0.0552     H
C      0.81038  0.26736  0.15246     C
H       0.8109   0.8081   0.5974     H
O      0.81154  0.16304  0.21222     O
O      0.81257  0.99221   0.1816     O
C      0.81413  0.93163  0.94464     C
O      0.81515  0.68421  0.57454     O
C      0.81517  0.60125  0.94418     C
C      0.81538  0.75506  0.13436     C
C      0.81643  0.41921  0.72896     C
H       0.8179   0.5139    0.396     H
C      0.81824  0.35954  0.08402     C
H       0.8183   0.7629   0.9684     H
H       0.8198    0.269   0.8676     H
C      0.82198  0.06874  0.30728     C
C      0.82226   0.3772  0.69754     C
H       0.8224   0.4414   0.9046     H
O      0.82248  0.95016  0.98076     O
N      0.82427  0.28853   0.6318     N
H       0.8278   0.7646   0.4834     H
N      0.82805  0.02633  0.27498     N
N       0.8303  0.65758  0.96682     N
H        0.833   0.5578   0.9504     H
C       0.8344  0.17768  0.81752     C
C      0.83627  0.13311  0.78742     C
H       0.8364   0.9468   0.6588     H
N      0.83982  0.91448   0.6423     N
H       0.8408   0.9442   0.8586     H
O      0.84274  0.52374   0.0382     O
C      0.84507  0.91989  0.11204     C
O      0.84664  0.68712  0.06224     O
C      0.84718   0.3255  0.16592     C
H       0.8477   0.9167   0.7518     H
H       0.8483   0.0907   0.3606     H
H       0.8495   0.4185   0.7482     H
C      0.85125  0.56517  0.44418     C
H       0.8532   0.9748    0.104     H
H       0.8539   0.8841    0.435     H
C      0.85407  0.42395  0.09766     C
C      0.85412   0.8027  0.09038     C
C      0.85481  0.79519  0.67804     C
H       0.8559   0.3467   0.6966     H
C      0.85706  0.06362  0.33872     C
C      0.85711  0.52311  0.41138     C
H       0.8591   0.3143   0.1936     H
C      0.86787  0.88511  0.08002     C
H       0.8687   0.1783    0.836     H
C      0.87063  0.40691  0.13986     C
H       0.8726   0.1054   0.7858     H
C      0.87369  0.67053  0.71258     C
C      0.87521  0.98465  0.27854     C
C      0.87627  0.75877  0.05536     C
C       0.8772  0.51122  0.06778     C
C      0.87792  0.45264  0.89666     C
C      0.88078  0.79088  0.46534     C
C      0.88176  0.50838    0.817     C
H       0.8821   0.4167   0.9614     H
H       0.8823   0.9557   0.2576     H
O      0.88234   0.0593   0.6721     O
N      0.88556  0.54438  0.24126     N
N      0.88741  0.86865  0.64794     N
C      0.88942  0.94974  0.86564     C
H       0.8899   0.4575   0.3504     H
H       0.8912   0.6584   0.2142     H
Zn     0.89124  0.64574  0.01486    Zn
C      0.89308   0.9445  0.90962     C
H       0.8935   0.9169   0.0502     H
C      0.89433  0.86207   0.4366     C
Zn     0.89574  0.64124  0.51485    Zn
H       0.8968   0.4486   0.1506     H
C      0.89709  0.32149  0.59822     C
C      0.90192   0.7452  0.68248     C
C      0.90714   0.0193  0.34136     C
N      0.90758   0.5803  0.46682     N
H       0.9084   0.6412   0.7142     H
H       0.9099   0.2139    0.604     H
C      0.91349  0.43615  0.93118     C
H       0.9139   0.4421   0.5816     H
H       0.9145   0.4457    0.253     H
C      0.91456  0.98042  0.31082     C
C      0.91928  0.48388  0.85258     C
C      0.91971  0.49531  0.40178     C
N      0.92033  0.45607   0.3682     N
C      0.92053  0.62369  0.21258     C
H       0.9228    0.172   0.1122     H
O      0.92341  0.54905  0.77822     O
N         0.93   0.7523  0.47204     N
O      0.93092  0.80324  0.01924     O
H       0.9318   0.0426    0.392     H
O      0.93421  0.56515  0.07454     O
C      0.93449  0.26849  0.58862     C
C      0.93461  0.49923  0.23516     C
C      0.93705  0.40401  0.57574     C
O      0.93712  0.59664  0.56224     O
H       0.9373   0.0561   0.1554     H
H       0.9374   0.8866   0.6324     H
N      0.94258   0.0167  0.37272     N
H       0.9476   0.9492   0.3112     H
C      0.94876  0.07538    0.683     C
H       0.9494   0.5528   0.6414     H
O      0.95163  0.07727  0.72178     O
H       0.9547   0.7643    0.664     H
H       0.9609   0.9707   0.8006     H
C      0.96103  0.96361  0.83096     C
H       0.9629   0.3659   0.3844     H
C      0.96513  0.94789  0.91998     C
H       0.9671   0.9437   0.9498     H
C      0.97177  0.55515  0.45468     C
C      0.97194  0.90018  0.40968     C
N      0.97535  0.41259  0.36546     N
H        0.977    0.096   0.5954     H
C      0.97714  0.18884  0.09642     C
C      0.97975  0.51279  0.42426     C
H       0.9802   0.2932   0.0602     H
N      0.98531  0.06767  0.13836     N
O      0.98855  0.40543   0.9976     O
C      0.99512  0.44834  0.92116     C
C       0.9952  0.65192  0.18248     C
N      0.99783  0.97579  0.37958     N
