data_I
_chemical_name_common  '/home/zhangsd/repos/MofS-CGCNN/ML/data/TSD/clean_cifs/IYAJOJ_clean'
_cell_length_a 18.98950
_cell_length_b 28.48100
_cell_length_c 16.95870
_cell_angle_alpha 90.00000
_cell_angle_beta  119.89600
_cell_angle_gamma 90.00000
_space_group_name_H-M_alt      'P 1'


loop_
_space_group_symop_operation_xyz
  'x, y, z' 

loop_
_atom_site_label
_atom_site_fract_x
_atom_site_fract_y
_atom_site_fract_z
_atom_site_type_symbol
K          0.0  0.16301     0.25     K
Cd         0.0  0.36753     0.75    Cd
Cd         0.0  0.63247     0.25    Cd
K          0.0  0.83699     0.75     K
C       0.0052   0.4672   0.5628     C
C       0.0052   0.5328   0.0628     C
C       0.0096   0.4314   0.6304     C
C       0.0096   0.5686   0.1304     C
C       0.0278   0.1865   0.4813     C
C       0.0278   0.8135   0.9813     C
O        0.034  0.16193    0.423     O
O        0.034  0.83807    0.923     O
O       0.0343  0.18571   0.0111     O
O       0.0343  0.81429   0.5111     O
H       0.0361    0.005   0.4361     H
H       0.0361    0.995   0.9361     H
H       0.0445   0.2447   0.6109     H
H       0.0445   0.7553   0.1109     H
H       0.0461   0.0581   0.3358     H
H       0.0461   0.9419   0.8358     H
O         0.05   0.3043   0.8655     O
O         0.05   0.6957   0.3655     O
O       0.0528   0.4246    0.864     O
O       0.0528   0.5754    0.364     O
O       0.0616  0.06874    0.026     O
O       0.0616  0.93126    0.526     O
C       0.0661   0.4929   0.9887     C
C       0.0661   0.5071   0.4887     C
C       0.0704   0.4752   0.5503     C
C       0.0704   0.5248   0.0503     C
O       0.0734   0.4102   0.6772     O
O       0.0734   0.5898   0.1772     O
C       0.0796   0.0023   0.4238     C
C       0.0796   0.9977   0.9238     C
C       0.0854    0.034   0.3637     C
C       0.0854    0.966   0.8637     C
C       0.0933   0.2444   0.6084     C
C       0.0933   0.7556   0.1084     C
O       0.0941  0.09183   0.2377     O
O       0.0941  0.90817   0.7377     O
C       0.0988   0.2165    0.545     C
C       0.0988   0.7835    0.045     C
Cd     0.09967  0.13052  0.12775    Cd
Cd     0.09967  0.86948  0.62775    Cd
H       0.1115    0.488   0.9806     H
H       0.1115    0.512   0.4806     H
C       0.1181   0.3081   0.8709     C
C       0.1181   0.6919   0.3709     C
H       0.1193   0.2372   0.9729     H
H       0.1193    0.458   0.5854     H
H       0.1193    0.542   0.0854     H
H       0.1193   0.7628   0.4729     H
C       0.1269   0.0675    0.025     C
C       0.1269   0.9325    0.525     C
O       0.1306  0.33654   0.8236     O
O       0.1306  0.66346   0.3236     O
O       0.1316  0.20583   0.2603     O
O       0.1316  0.79417   0.7603     O
C       0.1365   0.0325   0.9647     C
C       0.1365   0.9675   0.4647     C
C       0.1477   0.0301   0.3454     C
C       0.1477   0.9699   0.8454     C
H       0.1529   0.2916     0.71     H
H       0.1529   0.7084     0.21     H
C       0.1531    0.064    0.279     C
C       0.1531    0.936    0.779     C
C        0.158   0.2719    0.668     C
C        0.158   0.7281    0.168     C
C       0.1699   0.2165   0.5425     C
C       0.1699   0.7835   0.0425     C
C       0.1728   0.2425   0.9838     C
C       0.1728   0.7575   0.4838     C
H       0.1743   0.1976    0.499     H
H       0.1743   0.8024    0.999     H
O       0.1844  0.09525   0.0704     O
O       0.1844  0.90475   0.5704     O
C       0.1861   0.2776   0.9375     C
C       0.1861   0.7224   0.4375     C
C       0.1985   0.1997   0.2667     C
C       0.1985   0.8003   0.7667     C
C       0.1994   0.0349    0.947     C
C       0.1994   0.9651    0.447     C
Na     0.20235  0.39136  0.78182    Na
Na     0.20235  0.60864  0.28182    Na
C       0.2054   0.0038   0.8885     C
C       0.2054   0.9962   0.3885     C
O       0.2117   0.0626    0.268     O
O       0.2117   0.9374    0.768     O
O       0.2121  0.17119   0.2196     O
O       0.2121  0.82881   0.7196     O
H       0.2162   0.2566   0.4009     H
H       0.2162   0.7434   0.9009     H
H       0.2245   0.1909   0.0769     H
H       0.2245   0.8091   0.5769     H
C       0.2301   0.2708   0.6667     C
C       0.2301   0.7292   0.1667     C
C        0.235    0.215   0.0456     C
C        0.235    0.785   0.5456     C
C       0.2352   0.2435   0.6023     C
C       0.2352   0.7565   0.1023     C
H       0.2396   0.0586   0.9756     H
H       0.2396   0.9414   0.4756     H
H         0.25    0.006    0.878     H
H         0.25    0.494    0.122     H
H         0.25    0.506    0.622     H
H         0.25    0.994    0.378     H
H       0.2604   0.4414   0.0244     H
H       0.2604   0.5586   0.5244     H
C       0.2648   0.2565   0.3977     C
C       0.2648   0.7435   0.8977     C
C        0.265    0.285   0.9544     C
C        0.265    0.715   0.4544     C
C       0.2699   0.2292   0.3333     C
C       0.2699   0.7708   0.8333     C
H       0.2755   0.3091   0.9231     H
H       0.2755   0.6909   0.4231     H
H       0.2838   0.2434   0.5991     H
H       0.2838   0.7566   0.0991     H
O       0.2879  0.32881   0.7804     O
O       0.2879  0.67119   0.2804     O
O       0.2883   0.4374    0.732     O
O       0.2883   0.5626    0.232     O
C       0.2946   0.4962   0.1115     C
C       0.2946   0.5038   0.6115     C
Na     0.29765  0.10864  0.21818    Na
Na     0.29765  0.89136  0.71818    Na
C       0.3006   0.4651    0.053     C
C       0.3006   0.5349    0.553     C
C       0.3015   0.3003   0.7333     C
C       0.3015   0.6997   0.2333     C
C       0.3139   0.2224   0.0625     C
C       0.3139   0.7776   0.5625     C
O       0.3156  0.40475   0.9296     O
O       0.3156  0.59525   0.4296     O
H       0.3257   0.3024    0.501     H
H       0.3257   0.6976    0.001     H
C       0.3272   0.2575   0.0162     C
C       0.3272   0.7425   0.5162     C
C       0.3301   0.2835   0.4575     C
C       0.3301   0.7165   0.9575     C
C        0.342   0.2281    0.332     C
C        0.342   0.7719    0.832     C
C       0.3469    0.436    0.721     C
C       0.3469    0.564    0.221     C
H       0.3471   0.2084     0.29     H
H       0.3471   0.7916     0.79     H
C       0.3523   0.4699   0.6546     C
C       0.3523   0.5301   0.1546     C
C       0.3635   0.4675   0.0353     C
C       0.3635   0.5325   0.5353     C
O       0.3684  0.29417   0.7397     O
O       0.3684  0.70583   0.2397     O
O       0.3694  0.16346   0.1764     O
O       0.3694  0.83654   0.6764     O
C       0.3731   0.4325    0.975     C
C       0.3731   0.5675    0.475     C
H       0.3807    0.042   0.4146     H
H       0.3807   0.2628   0.0271     H
H       0.3807   0.7372   0.5271     H
H       0.3807    0.958   0.9146     H
C       0.3819   0.1919   0.1291     C
C       0.3819   0.8081   0.6291     C
H       0.3885    0.012   0.0194     H
H       0.3885    0.988   0.5194     H
Cd     0.40033  0.36948  0.87225    Cd
Cd     0.40033  0.63052  0.37225    Cd
C       0.4012   0.2835    0.455     C
C       0.4012   0.7165    0.955     C
O       0.4059  0.40817   0.7623     O
O       0.4059  0.59183   0.2623     O
C       0.4067   0.2556   0.3916     C
C       0.4067   0.7444   0.8916     C
C       0.4146    0.466   0.6363     C
C       0.4146    0.534   0.1363     C
C       0.4204   0.4977   0.5762     C
C       0.4204   0.5023   0.0762     C
O       0.4266   0.0898   0.3228     O
O       0.4266   0.9102   0.8228     O
C       0.4296   0.0248   0.4497     C
C       0.4296   0.9752   0.9497     C
C       0.4339   0.0071   0.0113     C
C       0.4339   0.9929   0.5113     C
O       0.4384  0.43126    0.974     O
O       0.4384  0.56874    0.474     O
O       0.4472   0.0754    0.136     O
O       0.4472   0.9246    0.636     O
O         0.45   0.1957   0.1345     O
O         0.45   0.8043   0.6345     O
H       0.4539   0.4419   0.6642     H
H       0.4539   0.5581   0.1642     H
H       0.4555   0.2553   0.3891     H
H       0.4555   0.7447   0.8891     H
H       0.4639    0.495   0.5639     H
H       0.4639    0.505   0.0639     H
O       0.4657  0.31429   0.9889     O
O       0.4657  0.68571   0.4889     O
O        0.466  0.33807    0.577     O
O        0.466  0.66193    0.077     O
C       0.4722   0.3135   0.5187     C
C       0.4722   0.6865   0.0187     C
C       0.4904   0.0686   0.3696     C
C       0.4904   0.9314   0.8696     C
C       0.4948   0.0328   0.4372     C
C       0.4948   0.9672   0.9372     C
Cd         0.5  0.13247     0.25    Cd
K          0.5  0.33699     0.75     K
K          0.5  0.66301     0.25     K
Cd         0.5  0.86753     0.75    Cd
C       0.5052   0.0328   0.0628     C
C       0.5052   0.9672   0.5628     C
C       0.5096   0.0686   0.1304     C
C       0.5096   0.9314   0.6304     C
C       0.5278   0.3135   0.9813     C
C       0.5278   0.6865   0.4813     C
O        0.534  0.33807    0.923     O
O        0.534  0.66193    0.423     O
O       0.5343  0.31429   0.5111     O
O       0.5343  0.68571   0.0111     O
H       0.5361    0.495   0.9361     H
H       0.5361    0.505   0.4361     H
H       0.5445   0.2553   0.1109     H
H       0.5445   0.7447   0.6109     H
H       0.5461   0.4419   0.8358     H
H       0.5461   0.5581   0.3358     H
O         0.55   0.1957   0.3655     O
O         0.55   0.8043   0.8655     O
O       0.5528   0.0754    0.364     O
O       0.5528   0.9246    0.864     O
O       0.5616  0.43126    0.526     O
O       0.5616  0.56874    0.026     O
C       0.5661   0.0071   0.4887     C
C       0.5661   0.9929   0.9887     C
C       0.5704   0.0248   0.0503     C
C       0.5704   0.9752   0.5503     C
O       0.5734   0.0898   0.1772     O
O       0.5734   0.9102   0.6772     O
C       0.5796   0.4977   0.9238     C
C       0.5796   0.5023   0.4238     C
C       0.5854    0.466   0.8637     C
C       0.5854    0.534   0.3637     C
C       0.5933   0.2556   0.1084     C
C       0.5933   0.7444   0.6084     C
O       0.5941  0.40817   0.7377     O
O       0.5941  0.59183   0.2377     O
C       0.5988   0.2835    0.045     C
C       0.5988   0.7165    0.545     C
Cd     0.59967  0.36948  0.62775    Cd
Cd     0.59967  0.63052  0.12775    Cd
H       0.6115    0.012   0.4806     H
H       0.6115    0.988   0.9806     H
C       0.6181   0.1919   0.3709     C
C       0.6181   0.8081   0.8709     C
H       0.6193    0.042   0.0854     H
H       0.6193   0.2628   0.4729     H
H       0.6193   0.7372   0.9729     H
H       0.6193    0.958   0.5854     H
C       0.6269   0.4325    0.525     C
C       0.6269   0.5675    0.025     C
O       0.6306  0.16346   0.3236     O
O       0.6306  0.83654   0.8236     O
O       0.6316  0.29417   0.7603     O
O       0.6316  0.70583   0.2603     O
C       0.6365   0.4675   0.4647     C
C       0.6365   0.5325   0.9647     C
C       0.6477   0.4699   0.8454     C
C       0.6477   0.5301   0.3454     C
H       0.6529   0.2084     0.21     H
H       0.6529   0.7916     0.71     H
C       0.6531    0.436    0.779     C
C       0.6531    0.564    0.279     C
C        0.658   0.2281    0.168     C
C        0.658   0.7719    0.668     C
C       0.6699   0.2835   0.0425     C
C       0.6699   0.7165   0.5425     C
C       0.6728   0.2575   0.4838     C
C       0.6728   0.7425   0.9838     C
H       0.6743   0.3024    0.999     H
H       0.6743   0.6976    0.499     H
O       0.6844  0.40475   0.5704     O
O       0.6844  0.59525   0.0704     O
C       0.6861   0.2224   0.4375     C
C       0.6861   0.7776   0.9375     C
C       0.6985   0.3003   0.7667     C
C       0.6985   0.6997   0.2667     C
C       0.6994   0.4651    0.447     C
C       0.6994   0.5349    0.947     C
Na     0.70235  0.10864  0.28182    Na
Na     0.70235  0.89136  0.78182    Na
C       0.7054   0.4962   0.3885     C
C       0.7054   0.5038   0.8885     C
O       0.7117   0.4374    0.768     O
O       0.7117   0.5626    0.268     O
O       0.7121  0.32881   0.7196     O
O       0.7121  0.67119   0.2196     O
H       0.7162   0.2434   0.9009     H
H       0.7162   0.7566   0.4009     H
H       0.7245   0.3091   0.5769     H
H       0.7245   0.6909   0.0769     H
C       0.7301   0.2292   0.1667     C
C       0.7301   0.7708   0.6667     C
C        0.735    0.285   0.5456     C
C        0.735    0.715   0.0456     C
C       0.7352   0.2565   0.1023     C
C       0.7352   0.7435   0.6023     C
H       0.7396   0.4414   0.4756     H
H       0.7396   0.5586   0.9756     H
H         0.75    0.006    0.622     H
H         0.75    0.494    0.378     H
H         0.75    0.506    0.878     H
H         0.75    0.994    0.122     H
H       0.7604   0.0586   0.5244     H
H       0.7604   0.9414   0.0244     H
C       0.7648   0.2435   0.8977     C
C       0.7648   0.7565   0.3977     C
C        0.765    0.215   0.4544     C
C        0.765    0.785   0.9544     C
C       0.7699   0.2708   0.8333     C
C       0.7699   0.7292   0.3333     C
H       0.7755   0.1909   0.4231     H
H       0.7755   0.8091   0.9231     H
H       0.7838   0.2566   0.0991     H
H       0.7838   0.7434   0.5991     H
O       0.7879  0.17119   0.2804     O
O       0.7879  0.82881   0.7804     O
O       0.7883   0.0626    0.232     O
O       0.7883   0.9374    0.732     O
C       0.7946   0.0038   0.6115     C
C       0.7946   0.9962   0.1115     C
Na     0.79765  0.39136  0.71818    Na
Na     0.79765  0.60864  0.21818    Na
C       0.8006   0.0349    0.553     C
C       0.8006   0.9651    0.053     C
C       0.8015   0.1997   0.2333     C
C       0.8015   0.8003   0.7333     C
C       0.8139   0.2776   0.5625     C
C       0.8139   0.7224   0.0625     C
O       0.8156  0.09525   0.4296     O
O       0.8156  0.90475   0.9296     O
H       0.8257   0.1976    0.001     H
H       0.8257   0.8024    0.501     H
C       0.8272   0.2425   0.5162     C
C       0.8272   0.7575   0.0162     C
C       0.8301   0.2165   0.9575     C
C       0.8301   0.7835   0.4575     C
C        0.842   0.2719    0.832     C
C        0.842   0.7281    0.332     C
C       0.8469    0.064    0.221     C
C       0.8469    0.936    0.721     C
H       0.8471   0.2916     0.79     H
H       0.8471   0.7084     0.29     H
C       0.8523   0.0301   0.1546     C
C       0.8523   0.9699   0.6546     C
C       0.8635   0.0325   0.5353     C
C       0.8635   0.9675   0.0353     C
O       0.8684  0.20583   0.2397     O
O       0.8684  0.79417   0.7397     O
O       0.8694  0.33654   0.6764     O
O       0.8694  0.66346   0.1764     O
C       0.8731   0.0675    0.475     C
C       0.8731   0.9325    0.975     C
H       0.8807   0.2372   0.5271     H
H       0.8807    0.458   0.9146     H
H       0.8807    0.542   0.4146     H
H       0.8807   0.7628   0.0271     H
C       0.8819   0.3081   0.6291     C
C       0.8819   0.6919   0.1291     C
H       0.8885    0.488   0.5194     H
H       0.8885    0.512   0.0194     H
Cd     0.90033  0.13052  0.37225    Cd
Cd     0.90033  0.86948  0.87225    Cd
C       0.9012   0.2165    0.955     C
C       0.9012   0.7835    0.455     C
O       0.9059  0.09183   0.2623     O
O       0.9059  0.90817   0.7623     O
C       0.9067   0.2444   0.8916     C
C       0.9067   0.7556   0.3916     C
C       0.9146    0.034   0.1363     C
C       0.9146    0.966   0.6363     C
C       0.9204   0.0023   0.0762     C
C       0.9204   0.9977   0.5762     C
O       0.9266   0.4102   0.8228     O
O       0.9266   0.5898   0.3228     O
C       0.9296   0.4752   0.9497     C
C       0.9296   0.5248   0.4497     C
C       0.9339   0.4929   0.5113     C
C       0.9339   0.5071   0.0113     C
O       0.9384  0.06874    0.474     O
O       0.9384  0.93126    0.974     O
O       0.9472   0.4246    0.636     O
O       0.9472   0.5754    0.136     O
O         0.95   0.3043   0.6345     O
O         0.95   0.6957   0.1345     O
H       0.9539   0.0581   0.1642     H
H       0.9539   0.9419   0.6642     H
H       0.9555   0.2447   0.8891     H
H       0.9555   0.7553   0.3891     H
H       0.9639    0.005   0.0639     H
H       0.9639    0.995   0.5639     H
O       0.9657  0.18571   0.4889     O
O       0.9657  0.81429   0.9889     O
O        0.966  0.16193    0.077     O
O        0.966  0.83807    0.577     O
C       0.9722   0.1865   0.0187     C
C       0.9722   0.8135   0.5187     C
C       0.9904   0.4314   0.8696     C
C       0.9904   0.5686   0.3696     C
C       0.9948   0.4672   0.9372     C
C       0.9948   0.5328   0.4372     C
