data_I
_chemical_name_common  '/home/zhangsd/repos/MofS-CGCNN/ML/data/TSD/clean_cifs/IYAJUP_clean'
_cell_length_a 19.21450
_cell_length_b 26.40880
_cell_length_c 17.71740
_cell_angle_alpha 90.00000
_cell_angle_beta  118.43100
_cell_angle_gamma 90.00000
_space_group_name_H-M_alt      'P 1'


loop_
_space_group_symop_operation_xyz
  'x, y, z' 

loop_
_atom_site_label
_atom_site_fract_x
_atom_site_fract_y
_atom_site_fract_z
_atom_site_type_symbol
Cd         0.0   0.1365     0.75    Cd
K          0.0  0.33051     0.25     K
K          0.0  0.66949     0.75     K
Cd         0.0   0.8635     0.25    Cd
C       0.0052   0.0312   0.9394     C
C       0.0052   0.9688   0.4394     C
C       0.0152   0.0654   0.8744     C
C       0.0152   0.9346   0.3744     C
C       0.0253   0.3094     0.47     C
C       0.0253   0.6906     0.97     C
O       0.0316  0.33511   0.4142     O
O       0.0316  0.66489   0.9142     O
H       0.0331   0.4909   0.4349     H
H       0.0331   0.5091   0.9349     H
H       0.0384   0.2474   0.5932     H
H       0.0384   0.7526   0.0932     H
O       0.0387  0.30777    0.026     O
O       0.0387  0.69223    0.526     O
H       0.0417   0.4419   0.3335     H
H       0.0417   0.5581   0.8335     H
O       0.0458   0.0911   0.6732     O
O       0.0458   0.9089   0.1732     O
O       0.0491    0.204   0.8612     O
O       0.0491    0.796   0.3612     O
O       0.0576  0.43331   0.0321     O
O       0.0576  0.56669   0.5321     O
C       0.0606   0.0309   0.5526     C
C       0.0606   0.9691   0.0526     C
C       0.0673   0.0001   0.9917     C
C       0.0673   0.9999   0.4917     C
C       0.0741   0.4963    0.422     C
C       0.0741   0.5037    0.922     C
O       0.0761   0.0686   0.8741     O
O       0.0761   0.9314   0.3741     O
C       0.0801   0.4666   0.3607     C
C       0.0801   0.5334   0.8607     C
C       0.0872   0.2503   0.5946     C
C       0.0872   0.7497   0.0946     C
C       0.0949   0.2798   0.5348     C
C       0.0949   0.7202   0.0348     C
O       0.0952  0.40913   0.2408     O
O       0.0952  0.59087   0.7408     O
Cd     0.10184   0.3668  0.13358    Cd
Cd     0.10184   0.6332  0.63358    Cd
H       0.1028   0.0516    0.588     H
H       0.1028   0.9484    0.088     H
H       0.1134   0.0004   0.4867     H
H       0.1134   0.9996   0.9867     H
C       0.1157   0.1978   0.8672     C
C       0.1157   0.8022   0.3672     C
C       0.1195   0.4314   0.0255     C
C       0.1195   0.5686   0.5255     C
H       0.1239   0.2694   0.9753     H
H       0.1239   0.7306   0.4753     H
O       0.1267  0.16825   0.8181     O
O       0.1267  0.83175   0.3181     O
C       0.1295    0.466    0.964     C
C       0.1295    0.534    0.464     C
O       0.1363   0.2898   0.2641     O
O       0.1363   0.7102   0.7641     O
C       0.1387   0.4708   0.3368     C
C       0.1387   0.5292   0.8368     C
C       0.1456   0.4422   0.2728     C
C       0.1456   0.5578   0.7728     C
H       0.1478   0.2054   0.6982     H
H       0.1478   0.7946   0.1982     H
C       0.1529   0.2247   0.6573     C
C       0.1529   0.7753   0.1573     C
C       0.1683   0.2829   0.5356     C
C       0.1683   0.7171   0.0356     C
H       0.1734   0.3022   0.4945     H
H       0.1734   0.6978   0.9945     H
C       0.1747   0.2615   0.9853     C
C       0.1747   0.7385   0.4853     C
O       0.1756  0.40123   0.0695     O
O       0.1756  0.59877   0.5695     O
C       0.1851   0.2254   0.9349     C
C       0.1851   0.7746   0.4349     C
C       0.1918   0.4596   0.9461     C
C       0.1918   0.5404   0.4461     C
K      0.19525  0.09245  0.78858     K
K      0.19525  0.90755  0.28858     K
O       0.1978    0.452   0.2519     O
C       0.1978   0.4894   0.8854     C
C       0.1978   0.5106   0.3854     C
O       0.1978    0.548   0.7519     O
C       0.2032   0.2981   0.2719     C
C       0.2032   0.7019   0.7719     C
O       0.2158  0.32908   0.2241     O
O       0.2158  0.67092   0.7241     O
H       0.2185   0.2405   0.4017     H
H       0.2185   0.7595   0.9017     H
C       0.2261   0.2279   0.6591     C
C       0.2261   0.7721   0.1591     C
H         0.23   0.4351   0.9753     H
H         0.23   0.5649   0.4753     H
H       0.2316   0.3098   0.0843     H
H       0.2316   0.6902   0.5843     H
C       0.2329   0.2572   0.5976     C
C       0.2329   0.7428   0.0976     C
C       0.2392   0.2859   0.0504     C
C       0.2392   0.7141   0.5504     C
H       0.2401   0.4843   0.8745     H
H       0.2401   0.5157   0.3745     H
H       0.2599   0.0157   0.1255     H
H       0.2599   0.9843   0.6255     H
C       0.2608   0.2141   0.9496     C
C       0.2608   0.7859   0.4496     C
C       0.2671   0.2428   0.4024     C
C       0.2671   0.7572   0.9024     C
H       0.2684   0.1902   0.9157     H
H       0.2684   0.8098   0.4157     H
H         0.27   0.0649   0.0247     H
H         0.27   0.9351   0.5247     H
C       0.2739   0.2721   0.3409     C
C       0.2739   0.7279   0.8409     C
H       0.2815   0.2595   0.5983     H
H       0.2815   0.7405   0.0983     H
O       0.2842  0.17092   0.7759     O
O       0.2842  0.82908   0.2759     O
C       0.2968   0.2019   0.7281     C
C       0.2968   0.7981   0.2281     C
C       0.3022   0.0106   0.1146     C
O       0.3022    0.048   0.7481     O
O       0.3022    0.952   0.2481     O
C       0.3022   0.9894   0.6146     C
K      0.30475  0.40755  0.21142     K
K      0.30475  0.59245  0.71142     K
C       0.3082   0.0404   0.0539     C
C       0.3082   0.9596   0.5539     C
C       0.3149   0.2746   0.0651     C
C       0.3149   0.7254   0.5651     C
O       0.3244  0.09877   0.9305     O
O       0.3244  0.90123   0.4305     O
C       0.3253   0.2385   0.0147     C
C       0.3253   0.7615   0.5147     C
H       0.3266   0.1978   0.5055     H
H       0.3266   0.8022   0.0055     H
C       0.3317   0.2171   0.4644     C
C       0.3317   0.7829   0.9644     C
C       0.3471   0.2753   0.3427     C
C       0.3471   0.7247   0.8427     C
H       0.3522   0.2946   0.3018     H
H       0.3522   0.7054   0.8018     H
C       0.3544   0.0578   0.7272     C
C       0.3544   0.9422   0.2272     C
C       0.3613   0.0292   0.6632     C
C       0.3613   0.9708   0.1632     C
O       0.3637   0.2102   0.7359     O
O       0.3637   0.7898   0.2359     O
C       0.3705    0.034    0.036     C
C       0.3705    0.966    0.536     C
O       0.3733  0.33175   0.1819     O
O       0.3733  0.66825   0.6819     O
H       0.3761   0.2306   0.0247     H
H       0.3761   0.7694   0.5247     H
C       0.3805   0.0686   0.9745     C
C       0.3805   0.9314   0.4745     C
C       0.3843   0.3022   0.1328     C
C       0.3843   0.6978   0.6328     C
H       0.3866   0.4996   0.5133     H
H       0.3866   0.5004   0.0133     H
H       0.3972   0.4484    0.412     H
H       0.3972   0.5516    0.912     H
Cd     0.39816   0.1332  0.86642    Cd
Cd     0.39816   0.8668  0.36642    Cd
O       0.4048  0.09087   0.7592     O
O       0.4048  0.90913   0.2592     O
C       0.4051   0.2202   0.4652     C
C       0.4051   0.7798   0.9652     C
C       0.4128   0.2497   0.4054     C
C       0.4128   0.7503   0.9054     C
C       0.4199   0.0334   0.6393     C
C       0.4199   0.9666   0.1393     C
O       0.4239   0.4314   0.1259     O
O       0.4239   0.5686   0.6259     O
C       0.4259   0.0037    0.578     C
C       0.4259   0.9963    0.078     C
C       0.4327   0.4999   0.0083     C
C       0.4327   0.5001   0.5083     C
C       0.4394   0.4691   0.4474     C
C       0.4394   0.5309   0.9474     C
O       0.4424  0.06669   0.9679     O
O       0.4424  0.93331   0.4679     O
O       0.4509    0.296   0.1388     O
O       0.4509    0.704   0.6388     O
O       0.4542   0.4089   0.3268     O
O       0.4542   0.5911   0.8268     O
H       0.4583   0.0581   0.6665     H
H       0.4583   0.9419   0.1665     H
O       0.4613  0.19223    0.974     O
O       0.4613  0.80777    0.474     O
H       0.4616   0.2526   0.4068     H
H       0.4616   0.7474   0.9068     H
H       0.4669   0.0091   0.5651     H
H       0.4669   0.9909   0.0651     H
O       0.4684  0.16489   0.5858     O
O       0.4684  0.83511   0.0858     O
C       0.4747   0.1906     0.53     C
C       0.4747   0.8094     0.03     C
C       0.4848   0.4346   0.1256     C
C       0.4848   0.5654   0.6256     C
C       0.4948   0.4688   0.0606     C
C       0.4948   0.5312   0.5606     C
K          0.5  0.16949     0.75     K
Cd         0.5   0.3635     0.25    Cd
Cd         0.5   0.6365     0.75    Cd
K          0.5  0.83051     0.25     K
C       0.5052   0.4688   0.4394     C
C       0.5052   0.5312   0.9394     C
C       0.5152   0.4346   0.3744     C
C       0.5152   0.5654   0.8744     C
C       0.5253   0.1906     0.97     C
C       0.5253   0.8094     0.47     C
O       0.5316  0.16489   0.9142     O
O       0.5316  0.83511   0.4142     O
H       0.5331   0.0091   0.9349     H
H       0.5331   0.9909   0.4349     H
H       0.5384   0.2526   0.0932     H
H       0.5384   0.7474   0.5932     H
O       0.5387  0.19223    0.526     O
O       0.5387  0.80777    0.026     O
H       0.5417   0.0581   0.8335     H
H       0.5417   0.9419   0.3335     H
O       0.5458   0.4089   0.1732     O
O       0.5458   0.5911   0.6732     O
O       0.5491    0.296   0.3612     O
O       0.5491    0.704   0.8612     O
O       0.5576  0.06669   0.5321     O
O       0.5576  0.93331   0.0321     O
C       0.5606   0.4691   0.0526     C
C       0.5606   0.5309   0.5526     C
C       0.5673   0.4999   0.4917     C
C       0.5673   0.5001   0.9917     C
C       0.5741   0.0037    0.922     C
C       0.5741   0.9963    0.422     C
O       0.5761   0.4314   0.3741     O
O       0.5761   0.5686   0.8741     O
C       0.5801   0.0334   0.8607     C
C       0.5801   0.9666   0.3607     C
C       0.5872   0.2497   0.0946     C
C       0.5872   0.7503   0.5946     C
C       0.5949   0.2202   0.0348     C
C       0.5949   0.7798   0.5348     C
O       0.5952  0.09087   0.7408     O
O       0.5952  0.90913   0.2408     O
Cd     0.60184   0.1332  0.63358    Cd
Cd     0.60184   0.8668  0.13358    Cd
H       0.6028   0.4484    0.088     H
H       0.6028   0.5516    0.588     H
H       0.6134   0.4996   0.9867     H
H       0.6134   0.5004   0.4867     H
C       0.6157   0.3022   0.3672     C
C       0.6157   0.6978   0.8672     C
C       0.6195   0.0686   0.5255     C
C       0.6195   0.9314   0.0255     C
H       0.6239   0.2306   0.4753     H
H       0.6239   0.7694   0.9753     H
O       0.6267  0.33175   0.3181     O
O       0.6267  0.66825   0.8181     O
C       0.6295    0.034    0.464     C
C       0.6295    0.966    0.964     C
O       0.6363   0.2102   0.7641     O
O       0.6363   0.7898   0.2641     O
C       0.6387   0.0292   0.8368     C
C       0.6387   0.9708   0.3368     C
C       0.6456   0.0578   0.7728     C
C       0.6456   0.9422   0.2728     C
H       0.6478   0.2946   0.1982     H
H       0.6478   0.7054   0.6982     H
C       0.6529   0.2753   0.1573     C
C       0.6529   0.7247   0.6573     C
C       0.6683   0.2171   0.0356     C
C       0.6683   0.7829   0.5356     C
H       0.6734   0.1978   0.9945     H
H       0.6734   0.8022   0.4945     H
C       0.6747   0.2385   0.4853     C
C       0.6747   0.7615   0.9853     C
O       0.6756  0.09877   0.5695     O
O       0.6756  0.90123   0.0695     O
C       0.6851   0.2746   0.4349     C
C       0.6851   0.7254   0.9349     C
C       0.6918   0.0404   0.4461     C
C       0.6918   0.9596   0.9461     C
K      0.69525  0.40755  0.28858     K
K      0.69525  0.59245  0.78858     K
C       0.6978   0.0106   0.3854     C
O       0.6978    0.048   0.7519     O
O       0.6978    0.952   0.2519     O
C       0.6978   0.9894   0.8854     C
C       0.7032   0.2019   0.7719     C
C       0.7032   0.7981   0.2719     C
O       0.7158  0.17092   0.7241     O
O       0.7158  0.82908   0.2241     O
H       0.7185   0.2595   0.9017     H
H       0.7185   0.7405   0.4017     H
C       0.7261   0.2721   0.1591     C
C       0.7261   0.7279   0.6591     C
H         0.73   0.0649   0.4753     H
H         0.73   0.9351   0.9753     H
H       0.7316   0.1902   0.5843     H
H       0.7316   0.8098   0.0843     H
C       0.7329   0.2428   0.0976     C
C       0.7329   0.7572   0.5976     C
C       0.7392   0.2141   0.5504     C
C       0.7392   0.7859   0.0504     C
H       0.7401   0.0157   0.3745     H
H       0.7401   0.9843   0.8745     H
H       0.7599   0.4843   0.6255     H
H       0.7599   0.5157   0.1255     H
C       0.7608   0.2859   0.4496     C
C       0.7608   0.7141   0.9496     C
C       0.7671   0.2572   0.9024     C
C       0.7671   0.7428   0.4024     C
H       0.7684   0.3098   0.4157     H
H       0.7684   0.6902   0.9157     H
H         0.77   0.4351   0.5247     H
H         0.77   0.5649   0.0247     H
C       0.7739   0.2279   0.8409     C
C       0.7739   0.7721   0.3409     C
H       0.7815   0.2405   0.0983     H
H       0.7815   0.7595   0.5983     H
O       0.7842  0.32908   0.2759     O
O       0.7842  0.67092   0.7759     O
C       0.7968   0.2981   0.2281     C
C       0.7968   0.7019   0.7281     C
O       0.8022    0.452   0.2481     O
C       0.8022   0.4894   0.6146     C
C       0.8022   0.5106   0.1146     C
O       0.8022    0.548   0.7481     O
K      0.80475  0.09245  0.71142     K
K      0.80475  0.90755  0.21142     K
C       0.8082   0.4596   0.5539     C
C       0.8082   0.5404   0.0539     C
C       0.8149   0.2254   0.5651     C
C       0.8149   0.7746   0.0651     C
O       0.8244  0.40123   0.4305     O
O       0.8244  0.59877   0.9305     O
C       0.8253   0.2615   0.5147     C
C       0.8253   0.7385   0.0147     C
H       0.8266   0.3022   0.0055     H
H       0.8266   0.6978   0.5055     H
C       0.8317   0.2829   0.9644     C
C       0.8317   0.7171   0.4644     C
C       0.8471   0.2247   0.8427     C
C       0.8471   0.7753   0.3427     C
H       0.8522   0.2054   0.8018     H
H       0.8522   0.7946   0.3018     H
C       0.8544   0.4422   0.2272     C
C       0.8544   0.5578   0.7272     C
C       0.8613   0.4708   0.1632     C
C       0.8613   0.5292   0.6632     C
O       0.8637   0.2898   0.2359     O
O       0.8637   0.7102   0.7359     O
C       0.8705    0.466    0.536     C
C       0.8705    0.534    0.036     C
O       0.8733  0.16825   0.6819     O
O       0.8733  0.83175   0.1819     O
H       0.8761   0.2694   0.5247     H
H       0.8761   0.7306   0.0247     H
C       0.8805   0.4314   0.4745     C
C       0.8805   0.5686   0.9745     C
C       0.8843   0.1978   0.6328     C
C       0.8843   0.8022   0.1328     C
H       0.8866   0.0004   0.0133     H
H       0.8866   0.9996   0.5133     H
H       0.8972   0.0516    0.912     H
H       0.8972   0.9484    0.412     H
Cd     0.89816   0.3668  0.36642    Cd
Cd     0.89816   0.6332  0.86642    Cd
O       0.9048  0.40913   0.2592     O
O       0.9048  0.59087   0.7592     O
C       0.9051   0.2798   0.9652     C
C       0.9051   0.7202   0.4652     C
C       0.9128   0.2503   0.9054     C
C       0.9128   0.7497   0.4054     C
C       0.9199   0.4666   0.1393     C
C       0.9199   0.5334   0.6393     C
O       0.9239   0.0686   0.6259     O
O       0.9239   0.9314   0.1259     O
C       0.9259   0.4963    0.078     C
C       0.9259   0.5037    0.578     C
C       0.9327   0.0001   0.5083     C
C       0.9327   0.9999   0.0083     C
C       0.9394   0.0309   0.9474     C
C       0.9394   0.9691   0.4474     C
O       0.9424  0.43331   0.4679     O
O       0.9424  0.56669   0.9679     O
O       0.9509    0.204   0.6388     O
O       0.9509    0.796   0.1388     O
O       0.9542   0.0911   0.8268     O
O       0.9542   0.9089   0.3268     O
H       0.9583   0.4419   0.1665     H
H       0.9583   0.5581   0.6665     H
O       0.9613  0.30777    0.474     O
O       0.9613  0.69223    0.974     O
H       0.9616   0.2474   0.9068     H
H       0.9616   0.7526   0.4068     H
H       0.9669   0.4909   0.0651     H
H       0.9669   0.5091   0.5651     H
O       0.9684  0.33511   0.0858     O
O       0.9684  0.66489   0.5858     O
C       0.9747   0.3094     0.03     C
C       0.9747   0.6906     0.53     C
C       0.9848   0.0654   0.6256     C
C       0.9848   0.9346   0.1256     C
C       0.9948   0.0312   0.5606     C
C       0.9948   0.9688   0.0606     C
