data_I
_chemical_name_common  '/home/zhangsd/repos/MofS-CGCNN/ML/data/TSD/clean_cifs/IYOVUO_clean'
_cell_length_a 11.76360
_cell_length_b 16.36090
_cell_length_c 11.58900
_cell_angle_alpha 90.00000
_cell_angle_beta  113.31400
_cell_angle_gamma 90.00000
_space_group_name_H-M_alt      'P 1'


loop_
_space_group_symop_operation_xyz
  'x, y, z' 

loop_
_atom_site_label
_atom_site_fract_x
_atom_site_fract_y
_atom_site_fract_z
_atom_site_type_symbol
C       0.0025   0.5754   0.3098     C
C       0.0025   0.9246   0.8098     C
S      0.03995  0.71565  0.19768     S
S      0.03995  0.78435  0.69768     S
O       0.0414  0.63797   0.5524     O
O       0.0414  0.86203   0.0524     O
C       0.0545   0.1458   0.2726     C
C       0.0545   0.3542   0.7726     C
C       0.0649   0.1482   0.9464     C
C       0.0649   0.3518   0.4464     C
O       0.0685  0.02401   0.1709     O
O       0.0685  0.47599   0.6709     O
C        0.084   0.2256   0.8908     C
C        0.084   0.2744   0.3908     C
O       0.1186  0.57079   0.3567     O
O       0.1186  0.92921   0.8567     O
O       0.1523   0.0987   0.9861     O
O       0.1523   0.4013   0.4861     O
C       0.1771   0.1685   0.3268     C
C       0.1771   0.3315   0.8268     C
Eu     0.19022  0.53446  0.57594    Eu
Eu     0.19022  0.96554  0.07594    Eu
C       0.1931   0.2421   0.3947     C
C       0.1931   0.2579   0.8947     C
H       0.2414   0.1389   0.3195     H
H       0.2414   0.3611   0.8195     H
H       0.2699   0.2337   0.9378     H
H       0.2699   0.2663   0.4378     H
O        0.282  0.62291   0.7629     O
O        0.282  0.87709   0.2629     O
O       0.3114   0.6592   0.5935     O
O       0.3114   0.8408   0.0935     O
C       0.3237   0.6726   0.7041     C
C       0.3237   0.8274   0.2041     C
H       0.3323   0.7358   0.4128     H
H       0.3323   0.7642   0.9128     H
O       0.3505   0.0528   0.2317     O
O       0.3505   0.4472   0.7317     O
C       0.3779   0.7151   0.3697     C
C       0.3779   0.7849   0.8697     C
O       0.3841   0.0092   0.0682     O
O       0.3841   0.4908   0.5682     O
C       0.3863   0.7474   0.7679     C
C       0.3863   0.7526   0.2679     C
C       0.4047   0.0586   0.1578     C
C       0.4047   0.4414   0.6578     C
C       0.4451    0.642    0.402     C
C       0.4451    0.858    0.902     C
H       0.4469   0.6082   0.4672     H
H       0.4469   0.8918   0.9672     H
S      0.47984  0.69871  0.21257     S
S      0.47984  0.80129  0.71257     S
C       0.4926    0.126   0.1721     C
C       0.4926    0.374   0.6721     C
C       0.5074    0.626   0.3279     C
C       0.5074    0.874   0.8279     C
S      0.52016  0.19871  0.28743     S
S      0.52016  0.30129  0.78743     S
H       0.5531   0.1082   0.0328     H
H       0.5531   0.3918   0.5328     H
C       0.5549    0.142    0.098     C
C       0.5549    0.358    0.598     C
C       0.5953   0.5586   0.3422     C
C       0.5953   0.9414   0.8422     C
C       0.6137   0.2474   0.7321     C
C       0.6137   0.2526   0.2321     C
O       0.6159   0.5092   0.4318     O
O       0.6159   0.9908   0.9318     O
C       0.6221   0.2151   0.1303     C
C       0.6221   0.2849   0.6303     C
O       0.6495   0.5528   0.2683     O
O       0.6495   0.9472   0.7683     O
H       0.6677   0.2358   0.0872     H
H       0.6677   0.2642   0.5872     H
C       0.6763   0.1726   0.7959     C
C       0.6763   0.3274   0.2959     C
O       0.6886   0.1592   0.9065     O
O       0.6886   0.3408   0.4065     O
O        0.718  0.12291   0.7371     O
O        0.718  0.37709   0.2371     O
H       0.7301   0.7337   0.5622     H
H       0.7301   0.7663   0.0622     H
H       0.7586   0.6389   0.1805     H
H       0.7586   0.8611   0.6805     H
C       0.8069   0.7421   0.1053     C
C       0.8069   0.7579   0.6053     C
Eu     0.80978  0.03446  0.92406    Eu
Eu     0.80978  0.46554  0.42406    Eu
C       0.8229   0.6685   0.1732     C
C       0.8229   0.8315   0.6732     C
O       0.8477   0.5987   0.5139     O
O       0.8477   0.9013   0.0139     O
O       0.8814  0.07079   0.1433     O
O       0.8814  0.42921   0.6433     O
C        0.916   0.7256   0.6092     C
C        0.916   0.7744   0.1092     C
O       0.9315  0.52401   0.3291     O
O       0.9315  0.97599   0.8291     O
C       0.9351   0.6482   0.5536     C
C       0.9351   0.8518   0.0536     C
C       0.9455   0.6458   0.2274     C
C       0.9455   0.8542   0.7274     C
O       0.9586  0.13797   0.9476     O
O       0.9586  0.36203   0.4476     O
S      0.96005  0.21565  0.30232     S
S      0.96005  0.28435  0.80232     S
C       0.9975   0.0754   0.1902     C
C       0.9975   0.4246   0.6902     C
