data_I
_chemical_name_common  '/home/zhangsd/repos/MofS-CGCNN/ML/data/TSD/clean_cifs/IYOVOI_clean'
_cell_length_a 11.73800
_cell_length_b 16.58180
_cell_length_c 11.57850
_cell_angle_alpha 90.00000
_cell_angle_beta  113.51400
_cell_angle_gamma 90.00000
_space_group_name_H-M_alt      'P 1'


loop_
_space_group_symop_operation_xyz
  'x, y, z' 

loop_
_atom_site_label
_atom_site_fract_x
_atom_site_fract_y
_atom_site_fract_z
_atom_site_type_symbol
C       0.0067   0.1266   0.8244     C
C       0.0067   0.3734   0.3244     C
S       0.0195   0.6994  0.78857     S
S       0.0195   0.8006  0.28857     S
H       0.0563   0.6076   0.5358     H
H       0.0563   0.8924   0.0358     H
C       0.0566   0.6417   0.5997     C
C       0.0566   0.8583   0.0997     C
C       0.0929    0.058   0.8396     C
C       0.0929    0.442   0.3396     C
O       0.1104   0.0084   0.9268     O
O       0.1104   0.4916   0.4268     O
C       0.1115   0.7474   0.2334     C
C       0.1115   0.7526   0.7334     C
C       0.1226   0.7163   0.6317     C
C       0.1226   0.7837   0.1317     C
O       0.1477   0.0543   0.7647     O
O       0.1477   0.4457   0.2647     O
H       0.1677   0.7378   0.5887     H
H       0.1677   0.7622   0.0887     H
C       0.1742    0.672   0.2944     C
C       0.1742    0.828   0.7944     C
O       0.1865   0.6602   0.4071     O
O       0.1865   0.8398   0.9071     O
O       0.2124   0.6224   0.2333     O
O       0.2124   0.8776   0.7333     O
H       0.2283   0.2355   0.0622     H
H       0.2283   0.2645   0.5622     H
H        0.258    0.139   0.6787     H
H        0.258    0.361   0.1787     H
C       0.3058   0.2411   0.6054     C
C       0.3058   0.2589   0.1054     C
Nd     0.30994  0.53407  0.42474    Nd
Nd     0.30994  0.96593  0.92474    Nd
C       0.3222   0.1686    0.672     C
C       0.3222   0.3314    0.172     C
O       0.3442   0.0997   0.0165     O
O       0.3442   0.4003   0.5165     O
O       0.3781   0.5726   0.6477     O
O       0.3781   0.9274   0.1477     O
C       0.4131   0.2259   0.1095     C
C       0.4131   0.2741   0.6095     C
C       0.4348    0.149   0.0541     C
C       0.4348    0.351   0.5541     C
O       0.4368   0.0259   0.8321     O
O       0.4368   0.4741   0.3321     O
C       0.4469   0.1465   0.7268     C
C       0.4469   0.3535   0.2268     C
S      0.46058  0.71616  0.80356     S
S      0.46058  0.78384  0.30356     S
O       0.4606   0.6379   0.4447     O
O       0.4606   0.8621   0.9447     O
C       0.4943   0.5771   0.6913     C
C       0.4943   0.9229   0.1913     C
C       0.5057   0.0771   0.8087     C
C       0.5057   0.4229   0.3087     C
O       0.5394   0.1379   0.0553     O
O       0.5394   0.3621   0.5553     O
S      0.53942  0.21616  0.69644     S
S      0.53942  0.28384  0.19644     S
C       0.5531   0.6465   0.7732     C
C       0.5531   0.8535   0.2732     C
O       0.5632   0.5259   0.6679     O
O       0.5632   0.9741   0.1679     O
C       0.5652    0.649   0.4459     C
C       0.5652    0.851   0.9459     C
C       0.5869   0.7259   0.3905     C
C       0.5869   0.7741   0.8905     C
O       0.6219   0.0726   0.8523     O
O       0.6219   0.4274   0.3523     O
O       0.6558   0.5997   0.4835     O
O       0.6558   0.9003   0.9835     O
C       0.6778   0.6686    0.828     C
C       0.6778   0.8314    0.328     C
Nd     0.69006  0.03407  0.07526    Nd
Nd     0.69006  0.46593  0.57526    Nd
C       0.6942   0.7411   0.8946     C
C       0.6942   0.7589   0.3946     C
H        0.742    0.639   0.8213     H
H        0.742    0.861   0.3213     H
H       0.7717   0.7355   0.4378     H
H       0.7717   0.7645   0.9378     H
O       0.7876   0.1224   0.2667     O
O       0.7876   0.3776   0.7667     O
O       0.8135   0.1602   0.0929     O
O       0.8135   0.3398   0.5929     O
C       0.8258    0.172   0.2056     C
C       0.8258    0.328   0.7056     C
H       0.8323   0.2378   0.9113     H
H       0.8323   0.2622   0.4113     H
O       0.8523   0.5543   0.7353     O
O       0.8523   0.9457   0.2353     O
C       0.8774   0.2163   0.8683     C
C       0.8774   0.2837   0.3683     C
C       0.8885   0.2474   0.2666     C
C       0.8885   0.2526   0.7666     C
O       0.8896   0.5084   0.5732     O
O       0.8896   0.9916   0.0732     O
C       0.9071    0.558   0.6604     C
C       0.9071    0.942   0.1604     C
C       0.9434   0.1417   0.9003     C
C       0.9434   0.3583   0.4003     C
H       0.9437   0.1076   0.9642     H
H       0.9437   0.3924   0.4642     H
S       0.9805   0.1994  0.71143     S
S       0.9805   0.3006  0.21143     S
C       0.9933   0.6266   0.6756     C
C       0.9933   0.8734   0.1756     C
