data_I
_chemical_name_common  '/home/zhangsd/repos/MofS-CGCNN/ML/data/TSD/clean_cifs/IYUCEM_clean'
_cell_length_a  8.17370
_cell_length_b 15.00920
_cell_length_c 37.57400
_cell_angle_alpha 90.00000
_cell_angle_beta  101.82800
_cell_angle_gamma 90.00000
_space_group_name_H-M_alt      'P 1'


loop_
_space_group_symop_operation_xyz
  'x, y, z' 

loop_
_atom_site_label
_atom_site_fract_x
_atom_site_fract_y
_atom_site_fract_z
_atom_site_type_symbol
C       0.0099   0.1873   0.3744     C
C       0.0099   0.8127   0.8744     C
C       0.0133   0.2783   0.3691     C
C       0.0133   0.7217   0.8691     C
H        0.038   0.3972   0.1099     H
H        0.038   0.6028   0.6099     H
C       0.0422   0.3358    0.107     C
C       0.0422   0.6642    0.607     C
N       0.0454   0.4751   0.9527     N
N       0.0454   0.5249   0.4527     N
H       0.0486   0.0885   0.0936     H
H       0.0486   0.9115   0.5936     H
C       0.0487   0.1499   0.0969     C
C       0.0487   0.8501   0.5969     C
H        0.053   0.4775   0.4403     H
H        0.053   0.5225   0.9403     H
C       0.0558   0.3532   0.5239     C
C       0.0558   0.6468   0.0239     C
N       0.0675   0.1493  0.34587     N
N       0.0675   0.8507  0.84587     N
N        0.075   0.2974  0.33827     N
N        0.075   0.7026  0.83827     N
H       0.0772   0.0934   0.3418     H
H       0.0772   0.9066   0.8418     H
C       0.0967   0.4241   0.5479     C
C       0.0967   0.5759   0.0479     C
C       0.1039   0.2993   0.0786     C
C       0.1039   0.7007   0.5786     C
C       0.1049   0.2168   0.3258     C
C       0.1049   0.7832   0.8258     C
C       0.1074   0.2068   0.0734     C
C       0.1074   0.7932   0.5734     C
N       0.1135   0.3622  0.99112     N
N       0.1135   0.6378  0.49112     N
H       0.1381   0.2451   0.5009     H
H       0.1381   0.7549   0.0009     H
H       0.1439   0.3368   0.0627     H
H       0.1439   0.6632   0.5627     H
O       0.1498   0.0896  0.03367     O
O       0.1498   0.9104  0.53367     O
C       0.1661   0.4361    0.976     C
C       0.1661   0.5639    0.476     C
C       0.1696   0.2909   0.5175     C
C       0.1696   0.7091   0.0175     C
C        0.171   0.2047    0.292     C
C        0.171   0.7953    0.792     C
H       0.1728   0.0707   0.2931     H
H       0.1728   0.9293   0.7931     H
C       0.1771   0.1698   0.0431     C
C       0.1771   0.8302   0.5431     C
H       0.1936   0.3327   0.2811     H
H       0.1936   0.6673   0.7811     H
C       0.1958   0.1201     0.28     C
C       0.1958   0.8799     0.78     C
C       0.2083   0.2756   0.2726     C
C       0.2083   0.7244   0.7726     C
C       0.2561    0.109    0.248     C
C       0.2561    0.891    0.748     C
C       0.2586   0.4324   0.5675     C
C       0.2586   0.5676   0.0675     C
O       0.2655    0.218  0.02674     O
O       0.2655    0.782  0.52674     O
C       0.2664   0.2664   0.2412     C
C       0.2664   0.7336   0.7412     C
H       0.2713   0.0519   0.2396     H
H       0.2713   0.9481   0.7396     H
H       0.2879   0.3164   0.2283     H
H       0.2879   0.6836   0.7283     H
H       0.2886   0.4788   0.5839     H
H       0.2886   0.5212   0.0839     H
C        0.293   0.1817   0.2288     C
C        0.293   0.8183   0.7288     C
H       0.3154   0.4229   0.4555     H
H       0.3154   0.5771   0.9555     H
Eu     0.31991  0.09839  0.98555    Eu
Eu     0.31991  0.90161  0.48555    Eu
C       0.3318   0.2987   0.5366     C
C       0.3318   0.7013   0.0366     C
C        0.337   0.4687   0.9881     C
C        0.337   0.5313   0.4881     C
O        0.346    0.056  0.92256     O
O        0.346    0.944  0.42256     O
C       0.3603   0.1665   0.1953     C
C       0.3603   0.8335   0.6953     C
H       0.3677   0.0364   0.1918     H
H       0.3677   0.9636   0.6918     H
C       0.3753   0.3696   0.5618     C
C       0.3753   0.6304   0.0618     C
N       0.3853   0.0871  0.18257     N
N       0.3853   0.9129  0.68257     N
C        0.389    0.454   0.4734     C
C        0.389    0.546   0.9734     C
O       0.3896   0.2403  0.95459     O
O       0.3896   0.7597  0.45459     O
N       0.4008    0.235   0.1746     N
N       0.4008    0.765   0.6746     N
O       0.4115   0.1701  0.50783     O
O       0.4115   0.8299  0.00783     O
H       0.4177   0.3715   0.0246     H
H       0.4177   0.6285   0.5246     H
H       0.4202   0.1893   0.4294     H
H       0.4202   0.8107   0.9294     H
C       0.4335   0.0128   0.4315     C
C       0.4335   0.9872   0.9315     C
C       0.4451   0.1017   0.1515     C
C       0.4451   0.8983   0.6515     C
C        0.451   0.4236   0.0147     C
C        0.451   0.5764   0.5147     C
C       0.4529   0.1685   0.4086     C
C       0.4529   0.8315   0.9086     C
C       0.4564   0.1931   0.1463     C
C       0.4564   0.8069   0.6463     C
C       0.4574   0.2336   0.5298     C
C       0.4574   0.7664   0.0298     C
C       0.4634   0.0761   0.4033     C
C       0.4634   0.9239   0.9033     C
H         0.48   0.2901   0.3867     H
H         0.48   0.7099   0.8867     H
H       0.4847    0.374   0.5749     H
H       0.4847    0.626   0.0749     H
C       0.4901    0.229   0.3837     C
C       0.4901    0.771   0.8837     C
C       0.4912   0.0426   0.1271     C
C       0.4912   0.9574   0.6271     C
H       0.4913   0.0185   0.6312     H
H       0.4913   0.9815   0.1312     H
O       0.4965   0.0265   0.4652     O
O       0.4965   0.9735   0.9652     O
O       0.5035   0.0265   0.0348     O
O       0.5035   0.9735   0.5348     O
H       0.5087   0.0185   0.8688     H
H       0.5087   0.9815   0.3688     H
C       0.5088   0.0426   0.3729     C
C       0.5088   0.9574   0.8729     C
C       0.5099    0.229   0.1163     C
C       0.5099    0.771   0.6163     C
H       0.5153    0.374   0.9251     H
H       0.5153    0.626   0.4251     H
H         0.52   0.2901   0.1133     H
H         0.52   0.7099   0.6133     H
C       0.5366   0.0761   0.0967     C
C       0.5366   0.9239   0.5967     C
C       0.5426   0.2336   0.9702     C
C       0.5426   0.7664   0.4702     C
C       0.5436   0.1931   0.3537     C
C       0.5436   0.8069   0.8537     C
C       0.5471   0.1685   0.0914     C
C       0.5471   0.8315   0.5914     C
C        0.549   0.4236   0.4853     C
C        0.549   0.5764   0.9853     C
C       0.5549   0.1017   0.3485     C
C       0.5549   0.8983   0.8485     C
C       0.5665   0.0128   0.0685     C
C       0.5665   0.9872   0.5685     C
H       0.5798   0.1893   0.0706     H
H       0.5798   0.8107   0.5706     H
H       0.5823   0.3715   0.4754     H
H       0.5823   0.6285   0.9754     H
O       0.5885   0.1701  0.99217     O
O       0.5885   0.8299  0.49217     O
N       0.5992    0.235   0.3254     N
N       0.5992    0.765   0.8254     N
O       0.6104   0.2403  0.54541     O
O       0.6104   0.7597  0.04541     O
C        0.611    0.454   0.0266     C
C        0.611    0.546   0.5266     C
N       0.6147   0.0871  0.31743     N
N       0.6147   0.9129  0.81743     N
C       0.6247   0.3696   0.9382     C
C       0.6247   0.6304   0.4382     C
H       0.6323   0.0364   0.3082     H
H       0.6323   0.9636   0.8082     H
C       0.6397   0.1665   0.3047     C
C       0.6397   0.8335   0.8047     C
O        0.654    0.056  0.57744     O
O        0.654    0.944  0.07744     O
C        0.663   0.4687   0.5119     C
C        0.663   0.5313   0.0119     C
C       0.6682   0.2987   0.9634     C
C       0.6682   0.7013   0.4634     C
Eu     0.68009  0.09839  0.51446    Eu
Eu     0.68009  0.90161  0.01445    Eu
H       0.6846   0.4229   0.0445     H
H       0.6846   0.5771   0.5445     H
C        0.707   0.1817   0.2712     C
C        0.707   0.8183   0.7712     C
H       0.7114   0.4788   0.9161     H
H       0.7114   0.5212   0.4161     H
H       0.7121   0.3164   0.2717     H
H       0.7121   0.6836   0.7717     H
H       0.7287   0.0519   0.2604     H
H       0.7287   0.9481   0.7604     H
C       0.7336   0.2664   0.2588     C
C       0.7336   0.7336   0.7588     C
O       0.7345    0.218  0.47326     O
O       0.7345    0.782  0.97326     O
C       0.7414   0.4324   0.9325     C
C       0.7414   0.5676   0.4325     C
C       0.7439    0.109    0.252     C
C       0.7439    0.891    0.752     C
C       0.7917   0.2756   0.2274     C
C       0.7917   0.7244   0.7274     C
C       0.8042   0.1201     0.22     C
C       0.8042   0.8799     0.72     C
H       0.8064   0.3327   0.2189     H
H       0.8064   0.6673   0.7189     H
C       0.8229   0.1698   0.4569     C
C       0.8229   0.8302   0.9569     C
H       0.8272   0.0707   0.2069     H
H       0.8272   0.9293   0.7069     H
C        0.829   0.2047    0.208     C
C        0.829   0.7953    0.708     C
C       0.8304   0.2909   0.9825     C
C       0.8304   0.7091   0.4825     C
C       0.8339   0.4361    0.524     C
C       0.8339   0.5639    0.024     C
O       0.8502   0.0896  0.46633     O
O       0.8502   0.9104  0.96633     O
H       0.8561   0.3368   0.4373     H
H       0.8561   0.6632   0.9373     H
H       0.8619   0.2451   0.9991     H
H       0.8619   0.7549   0.4991     H
N       0.8865   0.3622  0.50888     N
N       0.8865   0.6378  0.00888     N
C       0.8926   0.2068   0.4266     C
C       0.8926   0.7932   0.9266     C
C       0.8951   0.2168   0.1742     C
C       0.8951   0.7832   0.6742     C
C       0.8961   0.2993   0.4214     C
C       0.8961   0.7007   0.9214     C
C       0.9033   0.4241   0.9521     C
C       0.9033   0.5759   0.4521     C
H       0.9228   0.0934   0.1582     H
H       0.9228   0.9066   0.6582     H
N        0.925   0.2974  0.16173     N
N        0.925   0.7026  0.66173     N
N       0.9325   0.1493  0.15413     N
N       0.9325   0.8507  0.65413     N
C       0.9442   0.3532   0.9761     C
C       0.9442   0.6468   0.4761     C
H        0.947   0.4775   0.0597     H
H        0.947   0.5225   0.5597     H
C       0.9513   0.1499   0.4031     C
C       0.9513   0.8501   0.9031     C
H       0.9514   0.0885   0.4064     H
H       0.9514   0.9115   0.9064     H
N       0.9546   0.4751   0.5473     N
N       0.9546   0.5249   0.0473     N
C       0.9578   0.3358    0.393     C
C       0.9578   0.6642    0.893     C
H        0.962   0.3972   0.3901     H
H        0.962   0.6028   0.8901     H
C       0.9867   0.2783   0.1309     C
C       0.9867   0.7217   0.6309     C
C       0.9901   0.1873   0.1256     C
C       0.9901   0.8127   0.6256     C
