data_I
_chemical_name_common  '/home/zhangsd/repos/MofS-CGCNN/ML/data/TSD/clean_cifs/IZIHAC_clean'
_cell_length_a 14.30900
_cell_length_b 14.30900
_cell_length_c 63.90000
_cell_angle_alpha 90.00000
_cell_angle_beta  90.00000
_cell_angle_gamma 90.00000
_space_group_name_H-M_alt      'P 1'


loop_
_space_group_symop_operation_xyz
  'x, y, z' 

loop_
_atom_site_label
_atom_site_fract_x
_atom_site_fract_y
_atom_site_fract_z
_atom_site_type_symbol
C          0.0      0.0   0.0581     C
H          0.0      0.0   0.0727     H
Sm         0.0      0.0  0.20983    Sm
Sm         0.0      0.0  0.79017    Sm
H          0.0      0.0   0.9273     H
C          0.0      0.0   0.9419     C
Sm         0.0      0.5  0.04017    Sm
H          0.0      0.5   0.1773     H
C          0.0      0.5   0.1919     C
C          0.0      0.5   0.3081     C
H          0.0      0.5   0.3227     H
Sm         0.0      0.5  0.45983    Sm
H        0.005   0.5919   0.7782     H
H        0.005   0.9081   0.4718     H
O       0.0051   0.1139  0.81956     O
O       0.0051   0.3861  0.43044     O
O       0.0053    0.179  0.09865     O
O       0.0053    0.321  0.15135     O
O       0.0086   0.0734  0.04916     O
O       0.0086   0.4266  0.20084     O
C       0.0156   0.1495  0.42326     C
C       0.0156   0.3505  0.82674     C
Sm     0.02019  0.72306  0.18798    Sm
Sm     0.02019  0.77694  0.06202    Sm
C        0.021   0.6186  0.79095     C
C        0.021   0.8814  0.45905     C
H       0.0375    0.125   0.1352     H
H       0.0375    0.375   0.1148     H
C        0.039   0.1098  0.44238     C
C        0.039   0.3902  0.80762     C
H       0.0399   0.1722   0.5169     H
H       0.0399   0.3278   0.7331     H
O       0.0403   0.1289  0.17877     O
O       0.0403   0.3711  0.07123     O
H       0.0507   0.2192   0.7603     H
H       0.0507   0.2808   0.4897     H
H       0.0557   0.1426   0.4119     H
H       0.0557   0.3574   0.8381     H
C       0.0661   0.6991  0.82914     C
C       0.0661   0.8009  0.42086     C
C       0.0705   0.5988  0.42185     C
C       0.0705   0.9012  0.82815     C
O       0.0734   0.5086  0.29916     O
O       0.0734   0.9914  0.95084     O
H       0.0775   0.5949   0.6939     H
H       0.0775   0.9051   0.5561     H
C       0.0861   0.7486  0.40144     C
C       0.0861   0.7514  0.84856     C
C       0.0895   0.1648   0.0968     C
C       0.0895   0.3352   0.1532     C
H       0.0919    0.005   0.5282     H
H       0.0919    0.495   0.7218     H
C       0.0938   0.6528   0.4021     C
C       0.0938   0.8472   0.8479     C
O       0.0944   0.6315  0.03439     O
O       0.0944   0.8685  0.21561     O
H       0.0949   0.0775   0.4439     H
H       0.0949   0.4225   0.8061     H
O        0.095   0.2456  0.21395     O
O        0.095   0.2544  0.03605     O
O       0.0965    0.626   0.4705     O
O       0.0965    0.874   0.7795     O
C       0.0977   0.1977  0.51346     C
C       0.0977   0.3023  0.73654     C
C       0.0988   0.0705  0.17185     C
C       0.0988   0.4295  0.07815     C
H       0.1008   0.6428   0.8688     H
H       0.1008   0.8572   0.3812     H
C       0.1021   0.1189  0.13434     C
C       0.1021   0.3811  0.11566     C
C       0.1039   0.2371  0.75294     C
C       0.1039   0.2629  0.49706     C
C       0.1044   0.7076  0.86788     C
C       0.1044   0.7924  0.38212     C
C       0.1055   0.6668  0.79274     C
C       0.1055   0.8332  0.45726     C
C       0.1098    0.539  0.69238     C
C       0.1098    0.961  0.55762     C
O       0.1139   0.5051  0.06956     O
O       0.1139   0.9949  0.18044     O
O       0.1161   0.7182  0.21828     O
O       0.1161   0.7818  0.03172     O
C       0.1186    0.021  0.54095     C
C       0.1186    0.479  0.70905     C
C       0.1189   0.6021  0.38434     C
C       0.1189   0.8979  0.86566     C
H        0.125   0.5375   0.3852     H
H        0.125   0.9625   0.8648     H
O        0.126   0.0965   0.2205     O
O        0.126   0.4035   0.0295     O
C       0.1268   0.7079  0.81248     C
C       0.1268   0.7921  0.43752     C
C       0.1271   0.7429  0.36502     C
C       0.1271   0.7571  0.88498     C
O       0.1289   0.5403  0.42877     O
O       0.1289   0.9597  0.82123     O
O       0.1308   0.1801  0.07949     O
O       0.1308   0.3199  0.17051     O
O       0.1315   0.0944  0.78439     O
O       0.1315   0.4056  0.46561     O
C       0.1333   0.7008  0.02549     C
C       0.1333   0.7992  0.22451     C
C       0.1349   0.6468  0.36565     C
C       0.1349   0.8532  0.88435     C
H       0.1379   0.7259   0.8975     H
H       0.1379   0.7741   0.3525     H
H       0.1426   0.5557   0.6619     H
H       0.1426   0.9443   0.5881     H
H       0.1428   0.1008   0.6188     H
H       0.1428   0.3992   0.6312     H
C       0.1453   0.1814  0.22056     C
C       0.1453   0.3186  0.02944     C
C       0.1468   0.1349  0.11565     C
C       0.1468   0.3651  0.13435     C
C       0.1495   0.5156  0.67326     C
C       0.1495   0.9844  0.57674     C
C       0.1528   0.0938   0.1521     C
C       0.1528   0.4062   0.0979     C
C       0.1648   0.5895   0.3468     C
C       0.1648   0.9105   0.9032     C
C       0.1668   0.1055  0.54274     C
C       0.1668   0.3945  0.70726     C
C       0.1707   0.6766  0.77458     C
C       0.1707   0.8234  0.47542     C
H       0.1722   0.5399   0.7669     H
H       0.1722   0.9601   0.4831     H
C       0.1766   0.1707  0.52458     C
C       0.1766   0.3293  0.72542     C
H        0.177   0.1977   0.0002     H
H        0.177   0.3023   0.2498     H
O        0.179   0.5053  0.34865     O
O        0.179   0.9947  0.90135     O
O       0.1801   0.6308  0.32949     O
O       0.1801   0.8692  0.92051     O
C       0.1814   0.6453  0.47056     C
C       0.1814   0.8547  0.77944     C
H       0.1822    0.741   0.8142     H
H       0.1822    0.759   0.4358     H
C       0.1875    0.201  0.75788     C
C       0.1875    0.299  0.49212     C
C       0.1977   0.5977  0.76346     C
H       0.1977    0.677   0.2502     H
H       0.1977    0.823   0.9998     H
C       0.1977   0.9023  0.48654     C
C       0.1991   0.0661  0.57914     C
C       0.1991   0.4339  0.67086     C
C       0.2008   0.1333  0.77549     C
C       0.2008   0.3667  0.47451     C
C        0.201   0.6875  0.00788     C
C        0.201   0.8125  0.24212     C
C       0.2076   0.1044  0.61788     C
C       0.2076   0.3956  0.63212     C
C       0.2079   0.1268  0.56248     C
C       0.2079   0.3732  0.68752     C
C       0.2089   0.7374  0.48075     C
C       0.2089   0.7626  0.76925     C
O       0.2182   0.1161  0.96828     O
O       0.2182   0.3839  0.28172     O
H       0.2192   0.5507   0.0103     H
H       0.2192   0.9493   0.2397     H
Sm     0.22306  0.02019  0.93798    Sm
Sm     0.22306  0.47981  0.31202    Sm
C       0.2258   0.7339  0.25337     C
C       0.2258   0.7661  0.99663     C
H       0.2259   0.1379   0.6475     H
H       0.2259   0.3621   0.6025     H
C       0.2339   0.2258  0.00337     C
C       0.2339   0.2742  0.24663     C
C       0.2371   0.6039  0.00294     C
C       0.2371   0.8961  0.24706     C
C       0.2374   0.2089  0.23075     C
C       0.2374   0.2911  0.01925     C
H        0.241   0.1822   0.5642     H
H        0.241   0.3178   0.6858     H
C       0.2429   0.1271  0.11502     C
C       0.2429   0.3729  0.13498     C
O       0.2456    0.595  0.46395     O
O       0.2456    0.905  0.78605     O
C       0.2486   0.0861  0.15144     C
C       0.2486   0.4139  0.09856     C
C       0.2514   0.0861  0.59856     C
C       0.2514   0.4139  0.65144     C
O       0.2544    0.595  0.28605     O
O       0.2544    0.905  0.96395     O
C       0.2571   0.1271  0.63498     C
C       0.2571   0.3729  0.61502     C
H        0.259   0.1822   0.1858     H
H        0.259   0.3178   0.0642     H
C       0.2626   0.2089  0.51925     C
C       0.2626   0.2911  0.73075     C
C       0.2629   0.6039  0.74706     C
C       0.2629   0.8961  0.50294     C
C       0.2661   0.2258  0.74663     C
C       0.2661   0.2742  0.50337     C
H       0.2741   0.1379   0.1025     H
H       0.2741   0.3621   0.1475     H
C       0.2742   0.7339  0.49663     C
C       0.2742   0.7661  0.75337     C
Sm     0.27694  0.02019  0.81202    Sm
Sm     0.27694  0.47981  0.43798    Sm
H       0.2808   0.5507   0.7397     H
H       0.2808   0.9493   0.5103     H
O       0.2818   0.1161  0.78172     O
O       0.2818   0.3839  0.46828     O
C       0.2911   0.7374  0.26925     C
C       0.2911   0.7626  0.98075     C
C       0.2921   0.1268  0.18752     C
C       0.2921   0.3732  0.06248     C
C       0.2924   0.1044  0.13212     C
C       0.2924   0.3956  0.11788     C
C        0.299   0.6875  0.74212     C
C        0.299   0.8125  0.50788     C
C       0.2992   0.1333  0.97451     C
C       0.2992   0.3667  0.27549     C
C       0.3009   0.0661  0.17086     C
C       0.3009   0.4339  0.07914     C
C       0.3023   0.5977  0.98654     C
H       0.3023    0.677   0.4998     H
H       0.3023    0.823   0.7502     H
C       0.3023   0.9023  0.26346     C
C       0.3125    0.201  0.99212     C
C       0.3125    0.299  0.25788     C
H       0.3178    0.741   0.9358     H
H       0.3178    0.759   0.3142     H
C       0.3186   0.6453  0.27944     C
C       0.3186   0.8547  0.97056     C
O       0.3199   0.6308  0.42051     O
O       0.3199   0.8692  0.82949     O
O        0.321   0.5053  0.40135     O
O        0.321   0.9947  0.84865     O
H        0.323   0.1977   0.7498     H
H        0.323   0.3023   0.5002     H
C       0.3234   0.1707  0.22542     C
C       0.3234   0.3293  0.02458     C
H       0.3278   0.5399   0.9831     H
H       0.3278   0.9601   0.2669     H
C       0.3293   0.6766  0.97542     C
C       0.3293   0.8234  0.27458     C
C       0.3332   0.1055  0.20726     C
C       0.3332   0.3945  0.04274     C
C       0.3352   0.5895   0.4032     C
C       0.3352   0.9105   0.8468     C
C       0.3472   0.0938   0.5979     C
C       0.3472   0.4062   0.6521     C
C       0.3505   0.5156  0.07674     C
C       0.3505   0.9844  0.17326     C
C       0.3532   0.1349  0.63435     C
C       0.3532   0.3651  0.61565     C
C       0.3547   0.1814  0.52944     C
C       0.3547   0.3186  0.72056     C
H       0.3572   0.1008   0.1312     H
H       0.3572   0.3992   0.1188     H
H       0.3574   0.5557   0.0881     H
H       0.3574   0.9443   0.1619     H
H       0.3621   0.7259   0.8525     H
H       0.3621   0.7741   0.3975     H
C       0.3651   0.6468  0.38435     C
C       0.3651   0.8532  0.86565     C
C       0.3667   0.7008  0.72451     C
C       0.3667   0.7992  0.52549     C
O       0.3685   0.0944  0.96561     O
O       0.3685   0.4056  0.28439     O
O       0.3692   0.1801  0.67051     O
O       0.3692   0.3199  0.57949     O
O       0.3711   0.5403  0.32123     O
O       0.3711   0.9597  0.92877     O
C       0.3729   0.7429  0.38498     C
C       0.3729   0.7571  0.86502     C
C       0.3732   0.7079  0.93752     C
C       0.3732   0.7921  0.31248     C
O        0.374   0.0965   0.5295     O
O        0.374   0.4035   0.7205     O
H        0.375   0.5375   0.3648     H
H        0.375   0.9625   0.8852     H
C       0.3811   0.6021  0.36566     C
C       0.3811   0.8979  0.88434     C
C       0.3814    0.021  0.20905     C
C       0.3814    0.479  0.04095     C
O       0.3839   0.7182  0.53172     O
O       0.3839   0.7818  0.71828     O
O       0.3861   0.5051  0.68044     O
O       0.3861   0.9949  0.56956     O
C       0.3902    0.539  0.05762     C
C       0.3902    0.961  0.19238     C
C       0.3945   0.6668  0.95726     C
C       0.3945   0.8332  0.29274     C
C       0.3956   0.7076  0.88212     C
C       0.3956   0.7924  0.36788     C
C       0.3961   0.2371  0.99706     C
C       0.3961   0.2629  0.25294     C
C       0.3979   0.1189  0.61566     C
C       0.3979   0.3811  0.63434     C
H       0.3992   0.6428   0.8812     H
H       0.3992   0.8572   0.3688     H
C       0.4012   0.0705  0.57815     C
C       0.4012   0.4295  0.67185     C
C       0.4023   0.1977  0.23654     C
C       0.4023   0.3023  0.01346     C
O       0.4035    0.626   0.2795     O
O       0.4035    0.874   0.9705     O
O        0.405   0.2456  0.53605     O
O        0.405   0.2544  0.71395     O
H       0.4051   0.0775   0.3061     H
H       0.4051   0.4225   0.9439     H
O       0.4056   0.6315  0.71561     O
O       0.4056   0.8685  0.53439     O
C       0.4062   0.6528   0.3479     C
C       0.4062   0.8472   0.9021     C
H       0.4081    0.005   0.2218     H
H       0.4081    0.495   0.0282     H
C       0.4105   0.1648   0.6532     C
C       0.4105   0.3352   0.5968     C
C       0.4139   0.7486  0.34856     C
C       0.4139   0.7514  0.90144     C
H       0.4225   0.5949   0.0561     H
H       0.4225   0.9051   0.1939     H
O       0.4266   0.5086  0.45084     O
O       0.4266   0.9914  0.79916     O
C       0.4295   0.5988  0.32815     C
C       0.4295   0.9012  0.92185     C
C       0.4339   0.6991  0.92086     C
C       0.4339   0.8009  0.32914     C
H       0.4443   0.1426   0.3381     H
H       0.4443   0.3574   0.9119     H
H       0.4493   0.2192   0.9897     H
H       0.4493   0.2808   0.2603     H
O       0.4597   0.1289  0.57123     O
O       0.4597   0.3711  0.67877     O
H       0.4601   0.1722   0.2331     H
H       0.4601   0.3278   0.0169     H
C        0.461   0.1098  0.30762     C
C        0.461   0.3902  0.94238     C
H       0.4625    0.125   0.6148     H
H       0.4625    0.375   0.6352     H
C        0.479   0.6186  0.95905     C
C        0.479   0.8814  0.29095     C
Sm     0.47981  0.72306  0.56202    Sm
Sm     0.47981  0.77694  0.68798    Sm
C       0.4844   0.1495  0.32674     C
C       0.4844   0.3505  0.92326     C
O       0.4914   0.0734  0.70084     O
O       0.4914   0.4266  0.54916     O
O       0.4947    0.179  0.65135     O
O       0.4947    0.321  0.59865     O
O       0.4949   0.1139  0.93044     O
O       0.4949   0.3861  0.31956     O
H        0.495   0.5919   0.9718     H
H        0.495   0.9081   0.2782     H
Sm         0.5      0.0  0.54017    Sm
H          0.5      0.0   0.6773     H
C          0.5      0.0   0.6919     C
C          0.5      0.0   0.8081     C
H          0.5      0.0   0.8227     H
Sm         0.5      0.0  0.95983    Sm
Sm         0.5      0.5  0.29017    Sm
H          0.5      0.5   0.4273     H
C          0.5      0.5   0.4419     C
C          0.5      0.5   0.5581     C
H          0.5      0.5   0.5727     H
Sm         0.5      0.5  0.70983    Sm
H        0.505   0.0919   0.2782     H
H        0.505   0.4081   0.9718     H
O       0.5051   0.6139  0.31956     O
O       0.5051   0.8861  0.93044     O
O       0.5053    0.679  0.59865     O
O       0.5053    0.821  0.65135     O
O       0.5086   0.5734  0.54916     O
O       0.5086   0.9266  0.70084     O
C       0.5156   0.6495  0.92326     C
C       0.5156   0.8505  0.32674     C
Sm     0.52019  0.22306  0.68798    Sm
Sm     0.52019  0.27694  0.56202    Sm
C        0.521   0.1186  0.29095     C
C        0.521   0.3814  0.95905     C
H       0.5375    0.625   0.6352     H
H       0.5375    0.875   0.6148     H
C        0.539   0.6098  0.94238     C
C        0.539   0.8902  0.30762     C
H       0.5399   0.6722   0.0169     H
H       0.5399   0.8278   0.2331     H
O       0.5403   0.6289  0.67877     O
O       0.5403   0.8711  0.57123     O
H       0.5507   0.7192   0.2603     H
H       0.5507   0.7808   0.9897     H
H       0.5557   0.6426   0.9119     H
H       0.5557   0.8574   0.3381     H
C       0.5661   0.1991  0.32914     C
C       0.5661   0.3009  0.92086     C
C       0.5705   0.0988  0.92185     C
C       0.5705   0.4012  0.32815     C
O       0.5734   0.0086  0.79916     O
O       0.5734   0.4914  0.45084     O
H       0.5775   0.0949   0.1939     H
H       0.5775   0.4051   0.0561     H
C       0.5861   0.2486  0.90144     C
C       0.5861   0.2514  0.34856     C
C       0.5895   0.6648   0.5968     C
C       0.5895   0.8352   0.6532     C
H       0.5919    0.505   0.0282     H
H       0.5919    0.995   0.2218     H
C       0.5938   0.1528   0.9021     C
C       0.5938   0.3472   0.3479     C
O       0.5944   0.1315  0.53439     O
O       0.5944   0.3685  0.71561     O
H       0.5949   0.5775   0.9439     H
H       0.5949   0.9225   0.3061     H
O        0.595   0.7456  0.71395     O
O        0.595   0.7544  0.53605     O
O       0.5965    0.126   0.9705     O
O       0.5965    0.374   0.2795     O
C       0.5977   0.6977  0.01346     C
C       0.5977   0.8023  0.23654     C
C       0.5988   0.5705  0.67185     C
C       0.5988   0.9295  0.57815     C
H       0.6008   0.1428   0.3688     H
H       0.6008   0.3572   0.8812     H
C       0.6021   0.6189  0.63434     C
C       0.6021   0.8811  0.61566     C
C       0.6039   0.7371  0.25294     C
C       0.6039   0.7629  0.99706     C
C       0.6044   0.2076  0.36788     C
C       0.6044   0.2924  0.88212     C
C       0.6055   0.1668  0.29274     C
C       0.6055   0.3332  0.95726     C
C       0.6098    0.039  0.19238     C
C       0.6098    0.461  0.05762     C
O       0.6139   0.0051  0.56956     O
O       0.6139   0.4949  0.68044     O
O       0.6161   0.2182  0.71828     O
O       0.6161   0.2818  0.53172     O
C       0.6186    0.521  0.04095     C
C       0.6186    0.979  0.20905     C
C       0.6189   0.1021  0.88434     C
C       0.6189   0.3979  0.36566     C
H        0.625   0.0375   0.8852     H
H        0.625   0.4625   0.3648     H
O        0.626   0.5965   0.7205     O
O        0.626   0.9035   0.5295     O
C       0.6268   0.2079  0.31248     C
C       0.6268   0.2921  0.93752     C
C       0.6271   0.2429  0.86502     C
C       0.6271   0.2571  0.38498     C
O       0.6289   0.0403  0.92877     O
O       0.6289   0.4597  0.32123     O
O       0.6308   0.6801  0.57949     O
O       0.6308   0.8199  0.67051     O
O       0.6315   0.5944  0.28439     O
O       0.6315   0.9056  0.96561     O
C       0.6333   0.2008  0.52549     C
C       0.6333   0.2992  0.72451     C
C       0.6349   0.1468  0.86565     C
C       0.6349   0.3532  0.38435     C
H       0.6379   0.2259   0.3975     H
H       0.6379   0.2741   0.8525     H
H       0.6426   0.0557   0.1619     H
H       0.6426   0.4443   0.0881     H
H       0.6428   0.6008   0.1188     H
H       0.6428   0.8992   0.1312     H
C       0.6453   0.6814  0.72056     C
C       0.6453   0.8186  0.52944     C
C       0.6468   0.6349  0.61565     C
C       0.6468   0.8651  0.63435     C
C       0.6495   0.0156  0.17326     C
C       0.6495   0.4844  0.07674     C
C       0.6528   0.5938   0.6521     C
C       0.6528   0.9062   0.5979     C
C       0.6648   0.0895   0.8468     C
C       0.6648   0.4105   0.4032     C
C       0.6668   0.6055  0.04274     C
C       0.6668   0.8945  0.20726     C
C       0.6707   0.1766  0.27458     C
C       0.6707   0.3234  0.97542     C
H       0.6722   0.0399   0.2669     H
H       0.6722   0.4601   0.9831     H
C       0.6766   0.6707  0.02458     C
C       0.6766   0.8293  0.22542     C
H        0.677   0.6977   0.5002     H
H        0.677   0.8023   0.7498     H
O        0.679   0.0053  0.84865     O
O        0.679   0.4947  0.40135     O
O       0.6801   0.1308  0.82949     O
O       0.6801   0.3692  0.42051     O
C       0.6814   0.1453  0.97056     C
C       0.6814   0.3547  0.27944     C
H       0.6822    0.241   0.3142     H
H       0.6822    0.259   0.9358     H
C       0.6875    0.701  0.25788     C
C       0.6875    0.799  0.99212     C
C       0.6977   0.0977  0.26346     C
H       0.6977    0.177   0.7502     H
H       0.6977    0.323   0.4998     H
C       0.6977   0.4023  0.98654     C
C       0.6991   0.5661  0.07914     C
C       0.6991   0.9339  0.17086     C
C       0.7008   0.6333  0.27549     C
C       0.7008   0.8667  0.97451     C
C        0.701   0.1875  0.50788     C
C        0.701   0.3125  0.74212     C
C       0.7076   0.6044  0.11788     C
C       0.7076   0.8956  0.13212     C
C       0.7079   0.6268  0.06248     C
C       0.7079   0.8732  0.18752     C
C       0.7089   0.2374  0.98075     C
C       0.7089   0.2626  0.26925     C
O       0.7182   0.6161  0.46828     O
O       0.7182   0.8839  0.78172     O
H       0.7192   0.0507   0.5103     H
H       0.7192   0.4493   0.7397     H
Sm     0.72306  0.52019  0.43798    Sm
Sm     0.72306  0.97981  0.81202    Sm
C       0.7258   0.2339  0.75337     C
C       0.7258   0.2661  0.49663     C
H       0.7259   0.6379   0.1475     H
H       0.7259   0.8621   0.1025     H
C       0.7339   0.7258  0.50337     C
C       0.7339   0.7742  0.74663     C
C       0.7371   0.1039  0.50294     C
C       0.7371   0.3961  0.74706     C
C       0.7374   0.7089  0.73075     C
C       0.7374   0.7911  0.51925     C
H        0.741   0.6822   0.0642     H
H        0.741   0.8178   0.1858     H
C       0.7429   0.6271  0.61502     C
C       0.7429   0.8729  0.63498     C
O       0.7456    0.095  0.96395     O
O       0.7456    0.405  0.28605     O
C       0.7486   0.5861  0.65144     C
C       0.7486   0.9139  0.59856     C
C       0.7514   0.5861  0.09856     C
C       0.7514   0.9139  0.15144     C
O       0.7544    0.095  0.78605     O
O       0.7544    0.405  0.46395     O
C       0.7571   0.6271  0.13498     C
C       0.7571   0.8729  0.11502     C
H        0.759   0.6822   0.6858     H
H        0.759   0.8178   0.5642     H
C       0.7626   0.7089  0.01925     C
C       0.7626   0.7911  0.23075     C
C       0.7629   0.1039  0.24706     C
C       0.7629   0.3961  0.00294     C
C       0.7661   0.7258  0.24663     C
C       0.7661   0.7742  0.00337     C
H       0.7741   0.6379   0.6025     H
H       0.7741   0.8621   0.6475     H
C       0.7742   0.2339  0.99663     C
C       0.7742   0.2661  0.25337     C
Sm     0.77694  0.52019  0.31202    Sm
Sm     0.77694  0.97981  0.93798    Sm
H       0.7808   0.0507   0.2397     H
H       0.7808   0.4493   0.0103     H
O       0.7818   0.6161  0.28172     O
O       0.7818   0.8839  0.96828     O
C       0.7911   0.2374  0.76925     C
C       0.7911   0.2626  0.48075     C
C       0.7921   0.6268  0.68752     C
C       0.7921   0.8732  0.56248     C
C       0.7924   0.6044  0.63212     C
C       0.7924   0.8956  0.61788     C
C        0.799   0.1875  0.24212     C
C        0.799   0.3125  0.00788     C
C       0.7992   0.6333  0.47451     C
C       0.7992   0.8667  0.77549     C
C       0.8009   0.5661  0.67086     C
C       0.8009   0.9339  0.57914     C
C       0.8023   0.0977  0.48654     C
H       0.8023    0.177   0.9998     H
H       0.8023    0.323   0.2502     H
C       0.8023   0.4023  0.76346     C
C       0.8125    0.701  0.49212     C
C       0.8125    0.799  0.75788     C
H       0.8178    0.241   0.4358     H
H       0.8178    0.259   0.8142     H
C       0.8186   0.1453  0.77944     C
C       0.8186   0.3547  0.47056     C
O       0.8199   0.1308  0.92051     O
O       0.8199   0.3692  0.32949     O
O        0.821   0.0053  0.90135     O
O        0.821   0.4947  0.34865     O
H        0.823   0.6977   0.2498     H
H        0.823   0.8023   0.0002     H
C       0.8234   0.6707  0.72542     C
C       0.8234   0.8293  0.52458     C
H       0.8278   0.0399   0.4831     H
H       0.8278   0.4601   0.7669     H
C       0.8293   0.1766  0.47542     C
C       0.8293   0.3234  0.77458     C
C       0.8332   0.6055  0.70726     C
C       0.8332   0.8945  0.54274     C
C       0.8352   0.0895   0.9032     C
C       0.8352   0.4105   0.3468     C
C       0.8472   0.5938   0.0979     C
C       0.8472   0.9062   0.1521     C
C       0.8505   0.0156  0.57674     C
C       0.8505   0.4844  0.67326     C
C       0.8532   0.6349  0.13435     C
C       0.8532   0.8651  0.11565     C
C       0.8547   0.6814  0.02944     C
C       0.8547   0.8186  0.22056     C
H       0.8572   0.6008   0.6312     H
H       0.8572   0.8992   0.6188     H
H       0.8574   0.0557   0.5881     H
H       0.8574   0.4443   0.6619     H
H       0.8621   0.2259   0.3525     H
H       0.8621   0.2741   0.8975     H
C       0.8651   0.1468  0.88435     C
C       0.8651   0.3532  0.36565     C
C       0.8667   0.2008  0.22451     C
C       0.8667   0.2992  0.02549     C
O       0.8685   0.5944  0.46561     O
O       0.8685   0.9056  0.78439     O
O       0.8692   0.6801  0.17051     O
O       0.8692   0.8199  0.07949     O
O       0.8711   0.0403  0.82123     O
O       0.8711   0.4597  0.42877     O
C       0.8729   0.2429  0.88498     C
C       0.8729   0.2571  0.36502     C
C       0.8732   0.2079  0.43752     C
C       0.8732   0.2921  0.81248     C
O        0.874   0.5965   0.0295     O
O        0.874   0.9035   0.2205     O
H        0.875   0.0375   0.8648     H
H        0.875   0.4625   0.3852     H
C       0.8811   0.1021  0.86566     C
C       0.8811   0.3979  0.38434     C
C       0.8814    0.521  0.70905     C
C       0.8814    0.979  0.54095     C
O       0.8839   0.2182  0.03172     O
O       0.8839   0.2818  0.21828     O
O       0.8861   0.0051  0.18044     O
O       0.8861   0.4949  0.06956     O
C       0.8902    0.039  0.55762     C
C       0.8902    0.461  0.69238     C
C       0.8945   0.1668  0.45726     C
C       0.8945   0.3332  0.79274     C
C       0.8956   0.2076  0.38212     C
C       0.8956   0.2924  0.86788     C
C       0.8961   0.7371  0.49706     C
C       0.8961   0.7629  0.75294     C
C       0.8979   0.6189  0.11566     C
C       0.8979   0.8811  0.13434     C
H       0.8992   0.1428   0.3812     H
H       0.8992   0.3572   0.8688     H
C       0.9012   0.5705  0.07815     C
C       0.9012   0.9295  0.17185     C
C       0.9023   0.6977  0.73654     C
C       0.9023   0.8023  0.51346     C
O       0.9035    0.126   0.7795     O
O       0.9035    0.374   0.4705     O
O        0.905   0.7456  0.03605     O
O        0.905   0.7544  0.21395     O
H       0.9051   0.5775   0.8061     H
H       0.9051   0.9225   0.4439     H
O       0.9056   0.1315  0.21561     O
O       0.9056   0.3685  0.03439     O
C       0.9062   0.1528   0.8479     C
C       0.9062   0.3472   0.4021     C
H       0.9081    0.505   0.7218     H
H       0.9081    0.995   0.5282     H
C       0.9105   0.6648   0.1532     C
C       0.9105   0.8352   0.0968     C
C       0.9139   0.2486  0.84856     C
C       0.9139   0.2514  0.40144     C
H       0.9225   0.0949   0.5561     H
H       0.9225   0.4051   0.6939     H
O       0.9266   0.0086  0.95084     O
O       0.9266   0.4914  0.29916     O
C       0.9295   0.0988  0.82815     C
C       0.9295   0.4012  0.42185     C
C       0.9339   0.1991  0.42086     C
C       0.9339   0.3009  0.82914     C
H       0.9443   0.6426   0.8381     H
H       0.9443   0.8574   0.4119     H
H       0.9493   0.7192   0.4897     H
H       0.9493   0.7808   0.7603     H
O       0.9597   0.6289  0.07123     O
O       0.9597   0.8711  0.17877     O
H       0.9601   0.6722   0.7331     H
H       0.9601   0.8278   0.5169     H
C        0.961   0.6098  0.80762     C
C        0.961   0.8902  0.44238     C
H       0.9625    0.625   0.1148     H
H       0.9625    0.875   0.1352     H
C        0.979   0.1186  0.45905     C
C        0.979   0.3814  0.79095     C
Sm     0.97981  0.22306  0.06202    Sm
Sm     0.97981  0.27694  0.18798    Sm
C       0.9844   0.6495  0.82674     C
C       0.9844   0.8505  0.42326     C
O       0.9914   0.5734  0.20084     O
O       0.9914   0.9266  0.04916     O
O       0.9947    0.679  0.15135     O
O       0.9947    0.821  0.09865     O
O       0.9949   0.6139  0.43044     O
O       0.9949   0.8861  0.81956     O
H        0.995   0.0919   0.4718     H
H        0.995   0.4081   0.7782     H
