data_I
_chemical_name_common  '/home/zhangsd/repos/MofS-CGCNN/ML/data/TSD/clean_cifs/IZIHEG_clean'
_cell_length_a 14.21180
_cell_length_b 14.21180
_cell_length_c 63.50100
_cell_angle_alpha 90.00000
_cell_angle_beta  90.00000
_cell_angle_gamma 90.00000
_space_group_name_H-M_alt      'P 1'


loop_
_space_group_symop_operation_xyz
  'x, y, z' 

loop_
_atom_site_label
_atom_site_fract_x
_atom_site_fract_y
_atom_site_fract_z
_atom_site_type_symbol
Eu         0.0      0.0   0.2902    Eu
H          0.0      0.0   0.4283     H
C          0.0      0.0    0.443     C
C          0.0      0.0    0.557     C
H          0.0      0.0   0.5717     H
Eu         0.0      0.0   0.7098    Eu
Eu         0.0      0.5   0.5402    Eu
H          0.0      0.5   0.6783     H
C          0.0      0.5    0.693     C
C          0.0      0.5    0.807     C
H          0.0      0.5   0.8217     H
Eu         0.0      0.5   0.9598    Eu
H       0.0015   0.0992   0.9722     H
H       0.0015   0.4008   0.2778     H
O       0.0018   0.6768  0.65194     O
O       0.0018   0.8232  0.59806     O
O       0.0023   0.6136  0.93039     O
O       0.0023   0.8864  0.31961     O
O       0.0118   0.5755   0.7013     O
O       0.0118   0.9245   0.5487     O
C        0.017   0.6495   0.3264     C
C        0.017   0.8505   0.9236     C
Eu      0.0192  0.22204  0.56174    Eu
Eu      0.0192  0.27796  0.68826    Eu
C       0.0201   0.1216    0.959     C
C       0.0201   0.3784    0.291     C
H       0.0347   0.6322    0.615     H
H       0.0347   0.8678    0.635     H
H       0.0361    0.671   0.2334     H
H       0.0361    0.829   0.0166     H
C       0.0385     0.61   0.3079     C
C       0.0385     0.89   0.9421     C
O       0.0448   0.6315  0.57108     O
O       0.0448   0.8685  0.67892     O
H       0.0505   0.7152     0.99     H
H       0.0505   0.7848     0.26     H
H       0.0586   0.6419   0.3376     H
H       0.0586   0.8581   0.9124     H
C       0.0642   0.2016   0.9205     C
C       0.0642   0.2984   0.3295     C
C       0.0719    0.099   0.3277     C
C       0.0719    0.401   0.9223     C
H       0.0747   0.0932   0.0565     H
H       0.0747   0.4068   0.1935     H
O       0.0755   0.0118   0.4513     O
O       0.0755   0.4882   0.7987     O
C       0.0845   0.2476   0.3484     C
C       0.0845   0.2524   0.9016     C
O        0.091   0.1259   0.7156     O
O        0.091   0.3741   0.5344     O
C       0.0928   0.1527   0.3485     C
C       0.0928   0.3473   0.9015     C
H       0.0932   0.5747   0.3065     H
H       0.0932   0.9253   0.9435     H
H       0.0936   0.1413   0.8796     H
H       0.0936   0.3587   0.3704     H
C        0.094   0.6591    0.654     C
C        0.094   0.8409    0.596     C
C       0.0946   0.6964   0.2367     C
C       0.0946   0.8036   0.0133     C
O        0.095   0.7445   0.5352     O
O        0.095   0.7555   0.7148     O
O       0.0951   0.1226   0.2792     O
O       0.0951   0.3774   0.9708     O
C        0.099   0.5719   0.5777     C
C        0.099   0.9281   0.6723     C
H       0.0992   0.5015   0.2222     H
C       0.0992   0.6222   0.6161     C
C       0.0992   0.8778   0.6339     C
H       0.0992   0.9985   0.0278     H
C       0.0997   0.2061   0.8811     C
C       0.0997   0.2939   0.3689     C
C       0.1036   0.1643   0.9571     C
C       0.1036   0.3357   0.2929     C
C       0.1038   0.7373   0.9969     C
C       0.1038   0.7627   0.2531     C
C         0.11   0.0385   0.0579     C
C         0.11   0.4615   0.1921     C
O       0.1136   0.0023  0.68039     O
O       0.1136   0.4977  0.56961     O
O       0.1166   0.2189   0.5332     O
O       0.1166   0.2811   0.7168     O
C       0.1178   0.2083   0.9375     C
C       0.1178   0.2917   0.3125     C
C       0.1216   0.5201    0.209     C
C       0.1216   0.9799    0.041     C
C       0.1222   0.0992   0.3661     C
C       0.1222   0.4008   0.8839     C
O       0.1226   0.5951   0.5292     O
O       0.1226   0.9049   0.7208     O
C       0.1227    0.239   0.3852     C
C       0.1227    0.261   0.8648     C
O       0.1259    0.591   0.9656     O
O       0.1259    0.909   0.2844     O
H       0.1305    0.231   0.8519     H
H       0.1305    0.269   0.3981     H
O       0.1315   0.0448  0.32108     O
O       0.1315   0.4552  0.92892     O
C       0.1317   0.1974   0.7246     C
C       0.1317   0.3026   0.5254     C
H       0.1322   0.0347    0.365     H
H       0.1322   0.4653    0.885     H
C       0.1357   0.1457    0.385     C
C       0.1357   0.3543    0.865     C
O       0.1363   0.6786   0.6711     O
O       0.1363   0.8214   0.5789     O
H       0.1413   0.5936   0.1296     H
H       0.1413   0.9064   0.1204     H
H       0.1419   0.0586   0.0876     H
H       0.1419   0.4414   0.1624     H
C        0.142   0.6813    0.529     C
C        0.142   0.8187    0.721     C
C       0.1457   0.6357    0.635     C
C       0.1457   0.8643    0.615     C
C       0.1495    0.017   0.0764     C
C       0.1495    0.483   0.1736     C
C       0.1527   0.5928   0.5985     C
C       0.1527   0.9072   0.6515     C
C       0.1591    0.094    0.404     C
C       0.1591    0.406    0.846     C
C       0.1643   0.6036   0.2071     C
C       0.1643   0.8964   0.0429     C
C       0.1679    0.179    0.975     C
C       0.1679    0.321    0.275     C
H       0.1708   0.2464   0.9364     H
H       0.1708   0.2536   0.3136     H
H        0.171   0.0361   0.9834     H
H        0.171   0.4639   0.2666     H
O       0.1768   0.0018  0.40194     O
O       0.1768   0.4982  0.84806     O
H        0.177   0.6962   0.7493     H
H        0.177   0.8038   0.5007     H
O       0.1786   0.1363   0.4211     O
O       0.1786   0.3637   0.8289     O
C        0.179   0.6679    0.225     C
C        0.179   0.8321    0.025     C
C       0.1813    0.142    0.279     C
C       0.1813    0.358    0.971     C
C       0.1837   0.7078   0.9916     C
C       0.1837   0.7922   0.2584     C
H       0.1962    0.177   0.4993     H
H       0.1962    0.323   0.7507     H
C       0.1964   0.0946   0.9867     C
C       0.1964   0.4054   0.2633     C
C       0.1974   0.6317   0.9746     C
C       0.1974   0.8683   0.2754     C
C       0.2016   0.5642   0.1705     C
C       0.2016   0.9358   0.0795     C
C       0.2061   0.5997   0.1311     C
C       0.2061   0.9003   0.1189     C
C       0.2075   0.2363   0.2688     C
C       0.2075   0.2637   0.9812     C
C       0.2078   0.1837   0.7416     C
C       0.2078   0.3163   0.5084     C
C       0.2083   0.6178   0.1875     C
C       0.2083   0.8822   0.0625     C
H       0.2152   0.0505     0.74     H
H       0.2152   0.4495     0.51     H
O       0.2189   0.6166   0.7832     O
O       0.2189   0.8834   0.4668     O
Eu     0.22204   0.5192  0.81174    Eu
Eu     0.22204   0.9808  0.43826    Eu
C       0.2279   0.2328   0.4964     C
C       0.2279   0.2672   0.7536     C
H        0.231   0.6305   0.1019     H
H        0.231   0.8695   0.1481     H
C       0.2328   0.7279   0.7464     C
C       0.2328   0.7721   0.5036     C
C       0.2363   0.7075   0.5188     C
C       0.2363   0.7925   0.7312     C
C       0.2373   0.1038   0.7469     C
C       0.2373   0.3962   0.5031     C
C        0.239   0.6227   0.6352     C
C        0.239   0.8773   0.6148     C
O       0.2445    0.095   0.2852     O
O       0.2445    0.405   0.9648     O
H       0.2464   0.6708   0.1864     H
H       0.2464   0.8292   0.0636     H
C       0.2476   0.5845   0.5984     C
C       0.2476   0.9155   0.6516     C
C       0.2524   0.5845   0.1516     C
C       0.2524   0.9155   0.0984     C
H       0.2536   0.6708   0.5636     H
H       0.2536   0.8292   0.6864     H
O       0.2555    0.095   0.4648     O
O       0.2555    0.405   0.7852     O
C        0.261   0.6227   0.1148     C
C        0.261   0.8773   0.1352     C
C       0.2627   0.1038   0.0031     C
C       0.2627   0.3962   0.2469     C
C       0.2637   0.7075   0.2312     C
C       0.2637   0.7925   0.0188     C
C       0.2672   0.7279   0.0036     C
C       0.2672   0.7721   0.2464     C
H        0.269   0.6305   0.6481     H
H        0.269   0.8695   0.6019     H
C       0.2721   0.2328   0.2536     C
C       0.2721   0.2672   0.9964     C
Eu     0.27796   0.5192  0.93826    Eu
Eu     0.27796   0.9808  0.31174    Eu
O       0.2811   0.6166   0.9668     O
O       0.2811   0.8834   0.2832     O
H       0.2848   0.0505     0.01     H
H       0.2848   0.4495     0.24     H
C       0.2917   0.6178   0.5625     C
C       0.2917   0.8822   0.6875     C
C       0.2922   0.1837   0.0084     C
C       0.2922   0.3163   0.2416     C
C       0.2925   0.2363   0.4812     C
C       0.2925   0.2637   0.7688     C
C       0.2939   0.5997   0.6189     C
C       0.2939   0.9003   0.6311     C
C       0.2984   0.5642   0.5795     C
C       0.2984   0.9358   0.6705     C
C       0.3026   0.6317   0.7754     C
C       0.3026   0.8683   0.4746     C
C       0.3036   0.0946   0.7633     C
C       0.3036   0.4054   0.4867     C
H       0.3038    0.177   0.2507     H
H       0.3038    0.323   0.9993     H
C       0.3163   0.7078   0.7584     C
C       0.3163   0.7922   0.4916     C
C       0.3187    0.142    0.471     C
C       0.3187    0.358    0.779     C
C        0.321   0.6679    0.525     C
C        0.321   0.8321    0.725     C
O       0.3214   0.1363   0.3289     O
O       0.3214   0.3637   0.9211     O
H        0.323   0.6962   0.0007     H
H        0.323   0.8038   0.2493     H
O       0.3232   0.0018  0.34806     O
O       0.3232   0.4982  0.90194     O
H        0.329   0.0361   0.7666     H
H        0.329   0.4639   0.4834     H
H       0.3292   0.2464   0.8136     H
H       0.3292   0.2536   0.4364     H
C       0.3321    0.179    0.775     C
C       0.3321    0.321    0.475     C
C       0.3357   0.6036   0.5429     C
C       0.3357   0.8964   0.7071     C
C       0.3409    0.094    0.346     C
C       0.3409    0.406    0.904     C
C       0.3473   0.5928   0.1515     C
C       0.3473   0.9072   0.0985     C
C       0.3505    0.017   0.6736     C
C       0.3505    0.483   0.5764     C
C       0.3543   0.6357    0.115     C
C       0.3543   0.8643    0.135     C
C        0.358   0.6813    0.221     C
C        0.358   0.8187    0.029     C
H       0.3581   0.0586   0.6624     H
H       0.3581   0.4414   0.5876     H
H       0.3587   0.5936   0.6204     H
H       0.3587   0.9064   0.6296     H
O       0.3637   0.6786   0.0789     O
O       0.3637   0.8214   0.1711     O
C       0.3643   0.1457    0.365     C
C       0.3643   0.3543    0.885     C
H       0.3678   0.0347    0.385     H
H       0.3678   0.4653    0.865     H
C       0.3683   0.1974   0.0254     C
C       0.3683   0.3026   0.2246     C
O       0.3685   0.0448  0.42892     O
O       0.3685   0.4552  0.82108     O
H       0.3695    0.231   0.8981     H
H       0.3695    0.269   0.3519     H
O       0.3741    0.591   0.7844     O
O       0.3741    0.909   0.4656     O
C       0.3773    0.239   0.3648     C
C       0.3773    0.261   0.8852     C
O       0.3774   0.5951   0.2208     O
O       0.3774   0.9049   0.0292     O
C       0.3778   0.0992   0.3839     C
C       0.3778   0.4008   0.8661     C
C       0.3784   0.5201    0.541     C
C       0.3784   0.9799    0.709     C
C       0.3822   0.2083   0.8125     C
C       0.3822   0.2917   0.4375     C
O       0.3834   0.2189   0.2168     O
O       0.3834   0.2811   0.0332     O
O       0.3864   0.0023  0.06961     O
O       0.3864   0.4977  0.18039     O
C         0.39   0.0385   0.6921     C
C         0.39   0.4615   0.5579     C
C       0.3962   0.7373   0.7531     C
C       0.3962   0.7627   0.4969     C
C       0.3964   0.1643   0.7929     C
C       0.3964   0.3357   0.4571     C
C       0.4003   0.2061   0.8689     C
C       0.4003   0.2939   0.3811     C
H       0.4008   0.5015   0.5278     H
C       0.4008   0.6222   0.1339     C
C       0.4008   0.8778   0.1161     C
H       0.4008   0.9985   0.7222     H
C        0.401   0.5719   0.1723     C
C        0.401   0.9281   0.0777     C
O       0.4049   0.1226   0.4708     O
O       0.4049   0.3774   0.7792     O
O        0.405   0.7445   0.2148     O
O        0.405   0.7555   0.0352     O
C       0.4054   0.6964   0.5133     C
C       0.4054   0.8036   0.7367     C
C        0.406   0.6591    0.096     C
C        0.406   0.8409    0.154     C
H       0.4064   0.1413   0.8704     H
H       0.4064   0.3587   0.3796     H
H       0.4068   0.5747   0.4435     H
H       0.4068   0.9253   0.8065     H
C       0.4072   0.1527   0.4015     C
C       0.4072   0.3473   0.8485     C
O        0.409   0.1259   0.0344     O
O        0.409   0.3741   0.2156     O
C       0.4155   0.2476   0.4016     C
C       0.4155   0.2524   0.8484     C
O       0.4245   0.0118   0.2987     O
O       0.4245   0.4882   0.9513     O
H       0.4253   0.0932   0.6935     H
H       0.4253   0.4068   0.5565     H
C       0.4281    0.099   0.4223     C
C       0.4281    0.401   0.8277     C
C       0.4358   0.2016   0.8295     C
C       0.4358   0.2984   0.4205     C
H       0.4414   0.6419   0.4124     H
H       0.4414   0.8581   0.8376     H
H       0.4495   0.7152     0.76     H
H       0.4495   0.7848     0.49     H
O       0.4552   0.6315  0.17892     O
O       0.4552   0.8685  0.07108     O
C       0.4615     0.61   0.4421     C
C       0.4615     0.89   0.8079     C
H       0.4639    0.671   0.5166     H
H       0.4639    0.829   0.7334     H
H       0.4653   0.6322    0.135     H
H       0.4653   0.8678    0.115     H
C       0.4799   0.1216    0.791     C
C       0.4799   0.3784    0.459     C
Eu      0.4808  0.22204  0.18826    Eu
Eu      0.4808  0.27796  0.06174    Eu
C        0.483   0.6495   0.4236     C
C        0.483   0.8505   0.8264     C
O       0.4882   0.5755   0.0487     O
O       0.4882   0.9245   0.2013     O
O       0.4977   0.6136  0.81961     O
O       0.4977   0.8864  0.43039     O
O       0.4982   0.6768  0.09806     O
O       0.4982   0.8232  0.15194     O
H       0.4985   0.0992   0.7778     H
H       0.4985   0.4008   0.4722     H
Eu         0.5      0.0   0.0402    Eu
H          0.5      0.0   0.1783     H
C          0.5      0.0    0.193     C
C          0.5      0.0    0.307     C
H          0.5      0.0   0.3217     H
Eu         0.5      0.0   0.4598    Eu
C          0.5      0.5    0.057     C
H          0.5      0.5   0.0717     H
Eu         0.5      0.5   0.2098    Eu
Eu         0.5      0.5   0.7902    Eu
H          0.5      0.5   0.9283     H
C          0.5      0.5    0.943     C
H       0.5015   0.5992   0.4722     H
H       0.5015   0.9008   0.7778     H
O       0.5018   0.1768  0.15194     O
O       0.5018   0.3232  0.09806     O
O       0.5023   0.1136  0.43039     O
O       0.5023   0.3864  0.81961     O
O       0.5118   0.0755   0.2013     O
O       0.5118   0.4245   0.0487     O
C        0.517   0.1495   0.8264     C
C        0.517   0.3505   0.4236     C
Eu      0.5192  0.72204  0.06174    Eu
Eu      0.5192  0.77796  0.18826    Eu
C       0.5201   0.6216    0.459     C
C       0.5201   0.8784    0.791     C
H       0.5347   0.1322    0.115     H
H       0.5347   0.3678    0.135     H
H       0.5361    0.171   0.7334     H
H       0.5361    0.329   0.5166     H
C       0.5385     0.11   0.8079     C
C       0.5385     0.39   0.4421     C
O       0.5448   0.1315  0.07108     O
O       0.5448   0.3685  0.17892     O
H       0.5505   0.2152     0.49     H
H       0.5505   0.2848     0.76     H
H       0.5586   0.1419   0.8376     H
H       0.5586   0.3581   0.4124     H
C       0.5642   0.7016   0.4205     C
C       0.5642   0.7984   0.8295     C
C       0.5719    0.599   0.8277     C
C       0.5719    0.901   0.4223     C
H       0.5747   0.5932   0.5565     H
H       0.5747   0.9068   0.6935     H
O       0.5755   0.5118   0.9513     O
O       0.5755   0.9882   0.2987     O
C       0.5845   0.7476   0.8484     C
C       0.5845   0.7524   0.4016     C
O        0.591   0.6259   0.2156     O
O        0.591   0.8741   0.0344     O
C       0.5928   0.6527   0.8485     C
C       0.5928   0.8473   0.4015     C
H       0.5932   0.0747   0.8065     H
H       0.5932   0.4253   0.4435     H
H       0.5936   0.6413   0.3796     H
H       0.5936   0.8587   0.8704     H
C        0.594   0.1591    0.154     C
C        0.594   0.3409    0.096     C
C       0.5946   0.1964   0.7367     C
C       0.5946   0.3036   0.5133     C
O        0.595   0.2445   0.0352     O
O        0.595   0.2555   0.2148     O
O       0.5951   0.6226   0.7792     O
O       0.5951   0.8774   0.4708     O
C        0.599   0.0719   0.0777     C
C        0.599   0.4281   0.1723     C
H       0.5992   0.0015   0.7222     H
C       0.5992   0.1222   0.1161     C
C       0.5992   0.3778   0.1339     C
H       0.5992   0.4985   0.5278     H
C       0.5997   0.7061   0.3811     C
C       0.5997   0.7939   0.8689     C
C       0.6036   0.6643   0.4571     C
C       0.6036   0.8357   0.7929     C
C       0.6038   0.2373   0.4969     C
C       0.6038   0.2627   0.7531     C
C         0.61   0.5385   0.5579     C
C         0.61   0.9615   0.6921     C
O       0.6136   0.5023  0.18039     O
O       0.6136   0.9977  0.06961     O
O       0.6166   0.7189   0.0332     O
O       0.6166   0.7811   0.2168     O
C       0.6178   0.7083   0.4375     C
C       0.6178   0.7917   0.8125     C
C       0.6216   0.0201    0.709     C
C       0.6216   0.4799    0.541     C
C       0.6222   0.5992   0.8661     C
C       0.6222   0.9008   0.3839     C
O       0.6226   0.0951   0.0292     O
O       0.6226   0.4049   0.2208     O
C       0.6227    0.739   0.8852     C
C       0.6227    0.761   0.3648     C
O       0.6259    0.091   0.4656     O
O       0.6259    0.409   0.7844     O
H       0.6305    0.731   0.3519     H
H       0.6305    0.769   0.8981     H
O       0.6315   0.5448  0.82108     O
O       0.6315   0.9552  0.42892     O
C       0.6317   0.6974   0.2246     C
C       0.6317   0.8026   0.0254     C
H       0.6322   0.5347    0.865     H
H       0.6322   0.9653    0.385     H
C       0.6357   0.6457    0.885     C
C       0.6357   0.8543    0.365     C
O       0.6363   0.1786   0.1711     O
O       0.6363   0.3214   0.0789     O
H       0.6413   0.0936   0.6296     H
H       0.6413   0.4064   0.6204     H
H       0.6419   0.5586   0.5876     H
H       0.6419   0.9414   0.6624     H
C        0.642   0.1813    0.029     C
C        0.642   0.3187    0.221     C
C       0.6457   0.1357    0.135     C
C       0.6457   0.3643    0.115     C
C       0.6495    0.517   0.5764     C
C       0.6495    0.983   0.6736     C
C       0.6527   0.0928   0.0985     C
C       0.6527   0.4072   0.1515     C
C       0.6591    0.594    0.904     C
C       0.6591    0.906    0.346     C
C       0.6643   0.1036   0.7071     C
C       0.6643   0.3964   0.5429     C
C       0.6679    0.679    0.475     C
C       0.6679    0.821    0.775     C
H       0.6708   0.7464   0.4364     H
H       0.6708   0.7536   0.8136     H
H        0.671   0.5361   0.4834     H
H        0.671   0.9639   0.7666     H
O       0.6768   0.5018  0.90194     O
O       0.6768   0.9982  0.34806     O
H        0.677   0.1962   0.2493     H
H        0.677   0.3038   0.0007     H
O       0.6786   0.6363   0.9211     O
O       0.6786   0.8637   0.3289     O
C        0.679   0.1679    0.725     C
C        0.679   0.3321    0.525     C
C       0.6813    0.642    0.779     C
C       0.6813    0.858    0.471     C
C       0.6837   0.2078   0.4916     C
C       0.6837   0.2922   0.7584     C
H       0.6962    0.677   0.9993     H
H       0.6962    0.823   0.2507     H
C       0.6964   0.5946   0.4867     C
C       0.6964   0.9054   0.7633     C
C       0.6974   0.1317   0.4746     C
C       0.6974   0.3683   0.7754     C
C       0.7016   0.0642   0.6705     C
C       0.7016   0.4358   0.5795     C
C       0.7061   0.0997   0.6311     C
C       0.7061   0.4003   0.6189     C
C       0.7075   0.7363   0.7688     C
C       0.7075   0.7637   0.4812     C
C       0.7078   0.6837   0.2416     C
C       0.7078   0.8163   0.0084     C
C       0.7083   0.1178   0.6875     C
C       0.7083   0.3822   0.5625     C
H       0.7152   0.5505     0.24     H
H       0.7152   0.9495     0.01     H
O       0.7189   0.1166   0.2832     O
O       0.7189   0.3834   0.9668     O
Eu     0.72204   0.0192  0.31174    Eu
Eu     0.72204   0.4808  0.93826    Eu
C       0.7279   0.7328   0.9964     C
C       0.7279   0.7672   0.2536     C
H        0.731   0.1305   0.6019     H
H        0.731   0.3695   0.6481     H
C       0.7328   0.2279   0.2464     C
C       0.7328   0.2721   0.0036     C
C       0.7363   0.2075   0.0188     C
C       0.7363   0.2925   0.2312     C
C       0.7373   0.6038   0.2469     C
C       0.7373   0.8962   0.0031     C
C        0.739   0.1227   0.1352     C
C        0.739   0.3773   0.1148     C
O       0.7445    0.595   0.7852     O
O       0.7445    0.905   0.4648     O
H       0.7464   0.1708   0.6864     H
H       0.7464   0.3292   0.5636     H
C       0.7476   0.0845   0.0984     C
C       0.7476   0.4155   0.1516     C
C       0.7524   0.0845   0.6516     C
C       0.7524   0.4155   0.5984     C
H       0.7536   0.1708   0.0636     H
H       0.7536   0.3292   0.1864     H
O       0.7555    0.595   0.9648     O
O       0.7555    0.905   0.2852     O
C        0.761   0.1227   0.6148     C
C        0.761   0.3773   0.6352     C
C       0.7627   0.6038   0.5031     C
C       0.7627   0.8962   0.7469     C
C       0.7637   0.2075   0.7312     C
C       0.7637   0.2925   0.5188     C
C       0.7672   0.2279   0.5036     C
C       0.7672   0.2721   0.7464     C
H        0.769   0.1305   0.1481     H
H        0.769   0.3695   0.1019     H
C       0.7721   0.7328   0.7536     C
C       0.7721   0.7672   0.4964     C
Eu     0.77796   0.0192  0.43826    Eu
Eu     0.77796   0.4808  0.81174    Eu
O       0.7811   0.1166   0.4668     O
O       0.7811   0.3834   0.7832     O
H       0.7848   0.5505     0.51     H
H       0.7848   0.9495     0.74     H
C       0.7917   0.1178   0.0625     C
C       0.7917   0.3822   0.1875     C
C       0.7922   0.6837   0.5084     C
C       0.7922   0.8163   0.7416     C
C       0.7925   0.7363   0.9812     C
C       0.7925   0.7637   0.2688     C
C       0.7939   0.0997   0.1189     C
C       0.7939   0.4003   0.1311     C
C       0.7984   0.0642   0.0795     C
C       0.7984   0.4358   0.1705     C
C       0.8026   0.1317   0.2754     C
C       0.8026   0.3683   0.9746     C
C       0.8036   0.5946   0.2633     C
C       0.8036   0.9054   0.9867     C
H       0.8038    0.677   0.7507     H
H       0.8038    0.823   0.4993     H
C       0.8163   0.2078   0.2584     C
C       0.8163   0.2922   0.9916     C
C       0.8187    0.642    0.971     C
C       0.8187    0.858    0.279     C
C        0.821   0.1679    0.025     C
C        0.821   0.3321    0.225     C
O       0.8214   0.6363   0.8289     O
O       0.8214   0.8637   0.4211     O
H        0.823   0.1962   0.5007     H
H        0.823   0.3038   0.7493     H
O       0.8232   0.5018  0.84806     O
O       0.8232   0.9982  0.40194     O
H        0.829   0.5361   0.2666     H
H        0.829   0.9639   0.9834     H
H       0.8292   0.7464   0.3136     H
H       0.8292   0.7536   0.9364     H
C       0.8321    0.679    0.275     C
C       0.8321    0.821    0.975     C
C       0.8357   0.1036   0.0429     C
C       0.8357   0.3964   0.2071     C
C       0.8409    0.594    0.846     C
C       0.8409    0.906    0.404     C
C       0.8473   0.0928   0.6515     C
C       0.8473   0.4072   0.5985     C
C       0.8505    0.517   0.1736     C
C       0.8505    0.983   0.0764     C
C       0.8543   0.1357    0.615     C
C       0.8543   0.3643    0.635     C
C        0.858   0.1813    0.721     C
C        0.858   0.3187    0.529     C
H       0.8581   0.5586   0.1624     H
H       0.8581   0.9414   0.0876     H
H       0.8587   0.0936   0.1204     H
H       0.8587   0.4064   0.1296     H
O       0.8637   0.1786   0.5789     O
O       0.8637   0.3214   0.6711     O
C       0.8643   0.6457    0.865     C
C       0.8643   0.8543    0.385     C
H       0.8678   0.5347    0.885     H
H       0.8678   0.9653    0.365     H
C       0.8683   0.6974   0.5254     C
C       0.8683   0.8026   0.7246     C
O       0.8685   0.5448  0.92892     O
O       0.8685   0.9552  0.32108     O
H       0.8695    0.731   0.3981     H
H       0.8695    0.769   0.8519     H
O       0.8741    0.091   0.2844     O
O       0.8741    0.409   0.9656     O
C       0.8773    0.739   0.8648     C
C       0.8773    0.761   0.3852     C
O       0.8774   0.0951   0.7208     O
O       0.8774   0.4049   0.5292     O
C       0.8778   0.5992   0.8839     C
C       0.8778   0.9008   0.3661     C
C       0.8784   0.0201    0.041     C
C       0.8784   0.4799    0.209     C
C       0.8822   0.7083   0.3125     C
C       0.8822   0.7917   0.9375     C
O       0.8834   0.7189   0.7168     O
O       0.8834   0.7811   0.5332     O
O       0.8864   0.5023  0.56961     O
O       0.8864   0.9977  0.68039     O
C         0.89   0.5385   0.1921     C
C         0.89   0.9615   0.0579     C
C       0.8962   0.2373   0.2531     C
C       0.8962   0.2627   0.9969     C
C       0.8964   0.6643   0.2929     C
C       0.8964   0.8357   0.9571     C
C       0.9003   0.7061   0.3689     C
C       0.9003   0.7939   0.8811     C
H       0.9008   0.0015   0.0278     H
C       0.9008   0.1222   0.6339     C
C       0.9008   0.3778   0.6161     C
H       0.9008   0.4985   0.2222     H
C        0.901   0.0719   0.6723     C
C        0.901   0.4281   0.5777     C
O       0.9049   0.6226   0.9708     O
O       0.9049   0.8774   0.2792     O
O        0.905   0.2445   0.7148     O
O        0.905   0.2555   0.5352     O
C       0.9054   0.1964   0.0133     C
C       0.9054   0.3036   0.2367     C
C        0.906   0.1591    0.596     C
C        0.906   0.3409    0.654     C
H       0.9064   0.6413   0.3704     H
H       0.9064   0.8587   0.8796     H
H       0.9068   0.0747   0.9435     H
H       0.9068   0.4253   0.3065     H
C       0.9072   0.6527   0.9015     C
C       0.9072   0.8473   0.3485     C
O        0.909   0.6259   0.5344     O
O        0.909   0.8741   0.7156     O
C       0.9155   0.7476   0.9016     C
C       0.9155   0.7524   0.3484     C
O       0.9245   0.5118   0.7987     O
O       0.9245   0.9882   0.4513     O
H       0.9253   0.5932   0.1935     H
H       0.9253   0.9068   0.0565     H
C       0.9281    0.599   0.9223     C
C       0.9281    0.901   0.3277     C
C       0.9358   0.7016   0.3295     C
C       0.9358   0.7984   0.9205     C
H       0.9414   0.1419   0.9124     H
H       0.9414   0.3581   0.3376     H
H       0.9495   0.2152     0.26     H
H       0.9495   0.2848     0.99     H
O       0.9552   0.1315  0.67892     O
O       0.9552   0.3685  0.57108     O
C       0.9615     0.11   0.9421     C
C       0.9615     0.39   0.3079     C
H       0.9639    0.171   0.0166     H
H       0.9639    0.329   0.2334     H
H       0.9653   0.1322    0.635     H
H       0.9653   0.3678    0.615     H
C       0.9799   0.6216    0.291     C
C       0.9799   0.8784    0.959     C
Eu      0.9808  0.72204  0.68826    Eu
Eu      0.9808  0.77796  0.56174    Eu
C        0.983   0.1495   0.9236     C
C        0.983   0.3505   0.3264     C
O       0.9882   0.0755   0.5487     O
O       0.9882   0.4245   0.7013     O
O       0.9977   0.1136  0.31961     O
O       0.9977   0.3864  0.93039     O
O       0.9982   0.1768  0.59806     O
O       0.9982   0.3232  0.65194     O
H       0.9985   0.5992   0.2778     H
H       0.9985   0.9008   0.9722     H
