data_I
_chemical_name_common  '/home/zhangsd/repos/MofS-CGCNN/ML/data/TSD/clean_cifs/IZIHOQ_clean'
_cell_length_a 14.15450
_cell_length_b 14.15450
_cell_length_c 62.93800
_cell_angle_alpha 90.00000
_cell_angle_beta  90.00000
_cell_angle_gamma 90.00000
_space_group_name_H-M_alt      'P 1'


loop_
_space_group_symop_operation_xyz
  'x, y, z' 

loop_
_atom_site_label
_atom_site_fract_x
_atom_site_fract_y
_atom_site_fract_z
_atom_site_type_symbol
C          0.0      0.0   0.0561     C
H          0.0      0.0   0.0708     H
Dy         0.0      0.0  0.20908    Dy
Dy         0.0      0.0  0.79092    Dy
H          0.0      0.0   0.9292     H
C          0.0      0.0   0.9439     C
Dy         0.0      0.5  0.04092    Dy
H          0.0      0.5   0.1792     H
C          0.0      0.5   0.1939     C
C          0.0      0.5   0.3061     C
H          0.0      0.5   0.3208     H
Dy         0.0      0.5  0.45908    Dy
H       0.0019   0.5908   0.7771     H
H       0.0019   0.9092   0.4729     H
O       0.0081   0.6104  0.42981     O
O       0.0081   0.8896  0.82019     O
O       0.0102   0.6786  0.15268     O
O       0.0102   0.8214  0.09732     O
Dy     0.01116  0.22283  0.06111    Dy
Dy     0.01116  0.27717  0.18889    Dy
C       0.0139   0.1174   0.4599     C
C       0.0139   0.3826   0.7901     C
O       0.0255   0.5698    0.206     O
C       0.0255   0.6486  0.82664     C
C       0.0255   0.8514  0.42336     C
O       0.0255   0.9302    0.044     O
H       0.0336   0.6735   0.7335     H
H       0.0336   0.8265   0.5165     H
H       0.0416   0.6299   0.1159     H
H       0.0416   0.8701   0.1341     H
O       0.0447   0.6311   0.0713     O
O       0.0447   0.8689   0.1787     O
H       0.0455    0.721   0.4893     H
H       0.0455    0.779   0.7607     H
C       0.0475   0.6096  0.80708     C
C       0.0475   0.8904  0.44292     C
C       0.0593   0.1952  0.42086     C
C       0.0593   0.3048  0.82914     C
H       0.0675   0.6435   0.8379     H
H       0.0675   0.8565   0.4121     H
O       0.0698   0.0255    0.956     O
O       0.0698   0.4745    0.294     O
C       0.0702   0.1017  0.82853     C
C       0.0702   0.3983  0.42147     C
H       0.0776   0.1044   0.5553     H
H       0.0776   0.3956   0.6947     H
C       0.0829   0.2462   0.4007     C
C       0.0829   0.2538   0.8493     C
H       0.0873   0.1372   0.3805     H
H       0.0873   0.3628   0.8695     H
O       0.0892   0.1274  0.77943     O
O       0.0892   0.3726  0.47057     O
H       0.0908   0.0019   0.5271     H
H       0.0908   0.4981   0.7229     H
O       0.0918   0.1298  0.21527     O
O       0.0918   0.3702  0.03473     O
C       0.0926   0.6972  0.73716     C
C       0.0926   0.8028  0.51284     C
C       0.0933   0.1557  0.84864     C
C       0.0933   0.3443  0.40136     C
O        0.096   0.7414  0.03511     O
O        0.096   0.7586  0.21489     O
C       0.0964   0.2022  0.38148     C
C       0.0964   0.2978  0.86852     C
C       0.0974   0.6637  0.15456     C
C       0.0974   0.8363  0.09544     C
C       0.0982   0.1642  0.45761     C
C       0.0982   0.3358  0.79239     C
C       0.0994    0.739  0.49676     C
C       0.0994    0.761  0.75324     C
C       0.1017   0.5702  0.07853     C
C       0.1017   0.9298  0.17147     C
H       0.1044   0.5776   0.8053     H
H       0.1044   0.9224   0.4447     H
C       0.1065   0.6201  0.11663     C
C       0.1065   0.8799  0.13337     C
C       0.1096   0.0475  0.55708     C
C       0.1096   0.4525  0.69292     C
O       0.1104   0.0081  0.17981     O
O       0.1104   0.4919  0.07019     O
O       0.1138   0.2176  0.03226     O
O       0.1138   0.2824  0.21774     O
C       0.1174   0.5139   0.7099     C
C       0.1174   0.9861   0.5401     C
C       0.1201   0.1065  0.86663     C
C       0.1201   0.3935  0.38337     C
C       0.1221   0.2019  0.43776     C
C       0.1221   0.2981  0.81224     C
C       0.1225   0.2495  0.88618     C
C       0.1225   0.2505  0.36382     C
O       0.1274   0.5892  0.02943     O
O       0.1274   0.9108  0.22057     O
O       0.1298   0.5918  0.46527     O
O       0.1298   0.9082  0.78473     O
H       0.1299   0.0416   0.8659     H
H       0.1299   0.4584   0.3841     H
C         0.13   0.1999  0.22375     C
C         0.13   0.3001  0.02625     C
O       0.1311   0.0447   0.8213     O
O       0.1311   0.4553   0.4287     O
C       0.1323   0.1527   0.8854     C
C       0.1323   0.3473   0.3646     C
H       0.1339   0.2183   0.3512     H
H       0.1339   0.2817   0.8988     H
H       0.1372   0.5873   0.6305     H
H       0.1372   0.9127   0.6195     H
O       0.1376   0.6758  0.17225     O
O       0.1376   0.8242  0.07775     O
H       0.1435   0.0675   0.5879     H
H       0.1435   0.4325   0.6621     H
C       0.1472   0.6758  0.02872     C
C       0.1472   0.8242  0.22128     C
C       0.1486   0.0255  0.57664     C
C       0.1486   0.4745  0.67336     C
C       0.1527   0.6323   0.1354     C
C       0.1527   0.8677   0.1146     C
C       0.1557   0.5933  0.09864     C
C       0.1557   0.9067  0.15136     C
C       0.1637   0.0974  0.90456     C
C       0.1637   0.4026  0.34544     C
C       0.1642   0.5982  0.70761     C
C       0.1642   0.9018  0.54239     C
C       0.1657   0.1745  0.47579     C
C       0.1657   0.3255  0.77421     C
H       0.1735   0.0336   0.4835     H
H       0.1735   0.4664   0.7665     H
C       0.1745   0.6657  0.72579     C
C       0.1745   0.8343  0.52421     C
O       0.1758   0.1376  0.92225     O
C       0.1758   0.1472  0.77872     C
C       0.1758   0.3528  0.47128     C
O       0.1758   0.3624  0.32775     O
H       0.1758   0.7035   0.2509     H
H       0.1758   0.7965   0.9991     H
O       0.1786   0.0102  0.90268     O
O       0.1786   0.4898  0.34732     O
H       0.1802   0.2315   0.4359     H
H       0.1802   0.2685   0.8141     H
C       0.1866   0.7006  0.49138     C
C       0.1866   0.7994  0.75862     C
C       0.1952   0.5593  0.67086     C
C       0.1952   0.9407  0.57914     C
C       0.1972   0.0926  0.48716     C
C       0.1972   0.4074  0.76284     C
C       0.1999     0.63  0.47375     C
C       0.1999     0.87  0.77625     C
C       0.2006   0.1866  0.24138     C
C       0.2006   0.3134  0.00862     C
C       0.2019   0.6221  0.68776     C
C       0.2019   0.8779  0.56224     C
C       0.2022   0.5964  0.63148     C
C       0.2022   0.9036  0.61852     C
H       0.2035   0.1758   0.0009     H
H       0.2035   0.3242   0.2491     H
C       0.2041    0.239  0.76834     C
C       0.2041    0.261  0.48166     C
O       0.2176   0.6138  0.28226     O
O       0.2176   0.8862  0.96774     O
H       0.2183   0.6339   0.6012     H
H       0.2183   0.8661   0.6488     H
H        0.221   0.0455   0.2393     H
H        0.221   0.4545   0.0107     H
Dy     0.22283  0.51116  0.31111    Dy
Dy     0.22283  0.98884  0.93889    Dy
C       0.2297   0.2341  0.99748     C
C       0.2297   0.2659  0.25252     C
H       0.2315   0.6802   0.6859     H
H       0.2315   0.8198   0.5641     H
C       0.2341   0.7297  0.24748     C
C       0.2341   0.7703  0.00252     C
C        0.239   0.0994  0.24676     C
C        0.239   0.4006  0.00324     C
C        0.239   0.7041  0.01834     C
C        0.239   0.7959  0.23166     C
O       0.2414    0.096  0.78511     O
O       0.2414    0.404  0.46489     O
C       0.2462   0.5829   0.6507     C
C       0.2462   0.9171   0.5993     C
C       0.2495   0.6225  0.13618     C
C       0.2495   0.8775  0.11382     C
C       0.2505   0.6225  0.61382     C
C       0.2505   0.8775  0.63618     C
C       0.2538   0.5829   0.0993     C
C       0.2538   0.9171   0.1507     C
O       0.2586    0.096  0.96489     O
O       0.2586    0.404  0.28511     O
C        0.261   0.0994  0.50324     C
C        0.261   0.4006  0.74676     C
C        0.261   0.7041  0.73166     C
C        0.261   0.7959  0.51834     C
C       0.2659   0.7297  0.50252     C
C       0.2659   0.7703  0.74748     C
H       0.2685   0.6802   0.0641     H
H       0.2685   0.8198   0.1859     H
C       0.2703   0.2341  0.75252     C
C       0.2703   0.2659  0.49748     C
Dy     0.27717  0.51116  0.43889    Dy
Dy     0.27717  0.98884  0.81111    Dy
H        0.279   0.0455   0.5107     H
H        0.279   0.4545   0.7393     H
H       0.2817   0.6339   0.1488     H
H       0.2817   0.8661   0.1012     H
O       0.2824   0.6138  0.46774     O
O       0.2824   0.8862  0.78226     O
C       0.2959    0.239  0.98166     C
C       0.2959    0.261  0.26834     C
H       0.2965   0.1758   0.7491     H
H       0.2965   0.3242   0.5009     H
C       0.2978   0.5964  0.11852     C
C       0.2978   0.9036  0.13148     C
C       0.2981   0.6221  0.06224     C
C       0.2981   0.8779  0.18776     C
C       0.2994   0.1866  0.50862     C
C       0.2994   0.3134  0.74138     C
C       0.3001     0.63  0.27625     C
C       0.3001     0.87  0.97375     C
C       0.3028   0.0926  0.26284     C
C       0.3028   0.4074  0.98716     C
C       0.3048   0.5593  0.07914     C
C       0.3048   0.9407  0.17086     C
C       0.3134   0.7006  0.25862     C
C       0.3134   0.7994  0.99138     C
H       0.3198   0.2315   0.3141     H
H       0.3198   0.2685   0.9359     H
O       0.3214   0.0102  0.84732     O
O       0.3214   0.4898  0.40268     O
O       0.3242   0.1376  0.82775     O
C       0.3242   0.1472  0.97128     C
C       0.3242   0.3528  0.27872     C
O       0.3242   0.3624  0.42225     O
H       0.3242   0.7035   0.4991     H
H       0.3242   0.7965   0.7509     H
C       0.3255   0.6657  0.02421     C
C       0.3255   0.8343  0.22579     C
H       0.3265   0.0336   0.2665     H
H       0.3265   0.4664   0.9835     H
C       0.3343   0.1745  0.27421     C
C       0.3343   0.3255  0.97579     C
C       0.3358   0.5982  0.04239     C
C       0.3358   0.9018  0.20761     C
C       0.3363   0.0974  0.84544     C
C       0.3363   0.4026  0.40456     C
C       0.3443   0.5933  0.65136     C
C       0.3443   0.9067  0.59864     C
C       0.3473   0.6323   0.6146     C
C       0.3473   0.8677   0.6354     C
C       0.3514   0.0255  0.17336     C
C       0.3514   0.4745  0.07664     C
C       0.3528   0.6758  0.72128     C
C       0.3528   0.8242  0.52872     C
H       0.3565   0.0675   0.1621     H
H       0.3565   0.4325   0.0879     H
O       0.3624   0.6758  0.57775     O
O       0.3624   0.8242  0.67225     O
H       0.3628   0.5873   0.1195     H
H       0.3628   0.9127   0.1305     H
H       0.3661   0.2183   0.3988     H
H       0.3661   0.2817   0.8512     H
C       0.3677   0.1527   0.8646     C
C       0.3677   0.3473   0.3854     C
O       0.3689   0.0447   0.9287     O
O       0.3689   0.4553   0.3213     O
C         0.37   0.1999  0.52625     C
C         0.37   0.3001  0.72375     C
H       0.3701   0.0416   0.8841     H
H       0.3701   0.4584   0.3659     H
O       0.3702   0.5918  0.28473     O
O       0.3702   0.9082  0.96527     O
O       0.3726   0.5892  0.72057     O
O       0.3726   0.9108  0.52943     O
C       0.3775   0.2495  0.86382     C
C       0.3775   0.2505  0.38618     C
C       0.3779   0.2019  0.31224     C
C       0.3779   0.2981  0.93776     C
C       0.3799   0.1065  0.88337     C
C       0.3799   0.3935  0.36663     C
C       0.3826   0.5139   0.0401     C
C       0.3826   0.9861   0.2099     C
O       0.3862   0.2176  0.71774     O
O       0.3862   0.2824  0.53226     O
O       0.3896   0.0081  0.57019     O
O       0.3896   0.4919  0.67981     O
C       0.3904   0.0475  0.19292     C
C       0.3904   0.4525  0.05708     C
C       0.3935   0.6201  0.63337     C
C       0.3935   0.8799  0.61663     C
H       0.3956   0.5776   0.9447     H
H       0.3956   0.9224   0.3053     H
C       0.3983   0.5702  0.67147     C
C       0.3983   0.9298  0.57853     C
C       0.4006    0.739  0.25324     C
C       0.4006    0.761  0.99676     C
C       0.4018   0.1642  0.29239     C
C       0.4018   0.3358  0.95761     C
C       0.4026   0.6637  0.59544     C
C       0.4026   0.8363  0.65456     C
C       0.4036   0.2022  0.36852     C
C       0.4036   0.2978  0.88148     C
O        0.404   0.7414  0.71489     O
O        0.404   0.7586  0.53511     O
C       0.4067   0.1557  0.90136     C
C       0.4067   0.3443  0.34864     C
C       0.4074   0.6972  0.01284     C
C       0.4074   0.8028  0.23716     C
O       0.4082   0.1298  0.53473     O
O       0.4082   0.3702  0.71527     O
H       0.4092   0.0019   0.2229     H
H       0.4092   0.4981   0.0271     H
O       0.4108   0.1274  0.97057     O
O       0.4108   0.3726  0.27943     O
H       0.4127   0.1372   0.3695     H
H       0.4127   0.3628   0.8805     H
C       0.4171   0.2462   0.3493     C
C       0.4171   0.2538   0.9007     C
H       0.4224   0.1044   0.1947     H
H       0.4224   0.3956   0.0553     H
C       0.4298   0.1017  0.92147     C
C       0.4298   0.3983  0.32853     C
O       0.4302   0.0255    0.794     O
O       0.4302   0.4745    0.456     O
H       0.4325   0.6435   0.9121     H
H       0.4325   0.8565   0.3379     H
C       0.4407   0.1952  0.32914     C
C       0.4407   0.3048  0.92086     C
C       0.4525   0.6096  0.94292     C
C       0.4525   0.8904  0.30708     C
H       0.4545    0.721   0.2607     H
H       0.4545    0.779   0.9893     H
O       0.4553   0.6311   0.6787     O
O       0.4553   0.8689   0.5713     O
H       0.4584   0.6299   0.6341     H
H       0.4584   0.8701   0.6159     H
H       0.4664   0.6735   0.0165     H
H       0.4664   0.8265   0.2335     H
O       0.4745   0.5698    0.544     O
C       0.4745   0.6486  0.92336     C
C       0.4745   0.8514  0.32664     C
O       0.4745   0.9302    0.706     O
C       0.4861   0.1174   0.2901     C
C       0.4861   0.3826   0.9599     C
Dy     0.48884  0.22283  0.68889    Dy
Dy     0.48884  0.27717  0.56111    Dy
O       0.4898   0.6786  0.59732     O
O       0.4898   0.8214  0.65268     O
O       0.4919   0.6104  0.32019     O
O       0.4919   0.8896  0.92981     O
H       0.4981   0.5908   0.9729     H
H       0.4981   0.9092   0.2771     H
Dy         0.5      0.0  0.54092    Dy
H          0.5      0.0   0.6792     H
C          0.5      0.0   0.6939     C
C          0.5      0.0   0.8061     C
H          0.5      0.0   0.8208     H
Dy         0.5      0.0  0.95908    Dy
Dy         0.5      0.5  0.29092    Dy
H          0.5      0.5   0.4292     H
C          0.5      0.5   0.4439     C
C          0.5      0.5   0.5561     C
H          0.5      0.5   0.5708     H
Dy         0.5      0.5  0.70908    Dy
H       0.5019   0.0908   0.2771     H
H       0.5019   0.4092   0.9729     H
O       0.5081   0.1104  0.92981     O
O       0.5081   0.3896  0.32019     O
O       0.5102   0.1786  0.65268     O
O       0.5102   0.3214  0.59732     O
Dy     0.51116  0.72283  0.56111    Dy
Dy     0.51116  0.77717  0.68889    Dy
C       0.5139   0.6174   0.9599     C
C       0.5139   0.8826   0.2901     C
O       0.5255   0.0698    0.706     O
C       0.5255   0.1486  0.32664     C
C       0.5255   0.3514  0.92336     C
O       0.5255   0.4302    0.544     O
H       0.5336   0.1735   0.2335     H
H       0.5336   0.3265   0.0165     H
H       0.5416   0.1299   0.6159     H
H       0.5416   0.3701   0.6341     H
O       0.5447   0.1311   0.5713     O
O       0.5447   0.3689   0.6787     O
H       0.5455    0.221   0.9893     H
H       0.5455    0.279   0.2607     H
C       0.5475   0.1096  0.30708     C
C       0.5475   0.3904  0.94292     C
C       0.5593   0.6952  0.92086     C
C       0.5593   0.8048  0.32914     C
H       0.5675   0.1435   0.3379     H
H       0.5675   0.3565   0.9121     H
O       0.5698   0.5255    0.456     O
O       0.5698   0.9745    0.794     O
C       0.5702   0.6017  0.32853     C
C       0.5702   0.8983  0.92147     C
H       0.5776   0.6044   0.0553     H
H       0.5776   0.8956   0.1947     H
C       0.5829   0.7462   0.9007     C
C       0.5829   0.7538   0.3493     C
H       0.5873   0.6372   0.8805     H
H       0.5873   0.8628   0.3695     H
O       0.5892   0.6274  0.27943     O
O       0.5892   0.8726  0.97057     O
H       0.5908   0.5019   0.0271     H
H       0.5908   0.9981   0.2229     H
O       0.5918   0.6298  0.71527     O
O       0.5918   0.8702  0.53473     O
C       0.5926   0.1972  0.23716     C
C       0.5926   0.3028  0.01284     C
C       0.5933   0.6557  0.34864     C
C       0.5933   0.8443  0.90136     C
O        0.596   0.2414  0.53511     O
O        0.596   0.2586  0.71489     O
C       0.5964   0.7022  0.88148     C
C       0.5964   0.7978  0.36852     C
C       0.5974   0.1637  0.65456     C
C       0.5974   0.3363  0.59544     C
C       0.5982   0.6642  0.95761     C
C       0.5982   0.8358  0.29239     C
C       0.5994    0.239  0.99676     C
C       0.5994    0.261  0.25324     C
C       0.6017   0.0702  0.57853     C
C       0.6017   0.4298  0.67147     C
H       0.6044   0.0776   0.3053     H
H       0.6044   0.4224   0.9447     H
C       0.6065   0.1201  0.61663     C
C       0.6065   0.3799  0.63337     C
C       0.6096   0.5475  0.05708     C
C       0.6096   0.9525  0.19292     C
O       0.6104   0.5081  0.67981     O
O       0.6104   0.9919  0.57019     O
O       0.6138   0.7176  0.53226     O
O       0.6138   0.7824  0.71774     O
C       0.6174   0.0139   0.2099     C
C       0.6174   0.4861   0.0401     C
C       0.6201   0.6065  0.36663     C
C       0.6201   0.8935  0.88337     C
C       0.6221   0.7019  0.93776     C
C       0.6221   0.7981  0.31224     C
C       0.6225   0.7495  0.38618     C
C       0.6225   0.7505  0.86382     C
O       0.6274   0.0892  0.52943     O
O       0.6274   0.4108  0.72057     O
O       0.6298   0.0918  0.96527     O
O       0.6298   0.4082  0.28473     O
H       0.6299   0.5416   0.3659     H
H       0.6299   0.9584   0.8841     H
C         0.63   0.6999  0.72375     C
C         0.63   0.8001  0.52625     C
O       0.6311   0.5447   0.3213     O
O       0.6311   0.9553   0.9287     O
C       0.6323   0.6527   0.3854     C
C       0.6323   0.8473   0.8646     C
H       0.6339   0.7183   0.8512     H
H       0.6339   0.7817   0.3988     H
H       0.6372   0.0873   0.1305     H
H       0.6372   0.4127   0.1195     H
O       0.6376   0.1758  0.67225     O
O       0.6376   0.3242  0.57775     O
H       0.6435   0.5675   0.0879     H
H       0.6435   0.9325   0.1621     H
C       0.6472   0.1758  0.52872     C
C       0.6472   0.3242  0.72128     C
C       0.6486   0.5255  0.07664     C
C       0.6486   0.9745  0.17336     C
C       0.6527   0.1323   0.6354     C
C       0.6527   0.3677   0.6146     C
C       0.6557   0.0933  0.59864     C
C       0.6557   0.4067  0.65136     C
C       0.6637   0.5974  0.40456     C
C       0.6637   0.9026  0.84544     C
C       0.6642   0.0982  0.20761     C
C       0.6642   0.4018  0.04239     C
C       0.6657   0.6745  0.97579     C
C       0.6657   0.8255  0.27421     C
H       0.6735   0.5336   0.9835     H
H       0.6735   0.9664   0.2665     H
C       0.6745   0.1657  0.22579     C
C       0.6745   0.3343  0.02421     C
H       0.6758   0.2035   0.7509     H
H       0.6758   0.2965   0.4991     H
O       0.6758   0.6376  0.42225     O
C       0.6758   0.6472  0.27872     C
C       0.6758   0.8528  0.97128     C
O       0.6758   0.8624  0.82775     O
O       0.6786   0.5102  0.40268     O
O       0.6786   0.9898  0.84732     O
H       0.6802   0.7315   0.9359     H
H       0.6802   0.7685   0.3141     H
C       0.6866   0.2006  0.99138     C
C       0.6866   0.2994  0.25862     C
C       0.6952   0.0593  0.17086     C
C       0.6952   0.4407  0.07914     C
C       0.6972   0.5926  0.98716     C
C       0.6972   0.9074  0.26284     C
C       0.6999     0.13  0.97375     C
C       0.6999     0.37  0.27625     C
C       0.7006   0.6866  0.74138     C
C       0.7006   0.8134  0.50862     C
C       0.7019   0.1221  0.18776     C
C       0.7019   0.3779  0.06224     C
C       0.7022   0.0964  0.13148     C
C       0.7022   0.4036  0.11852     C
H       0.7035   0.6758   0.5009     H
H       0.7035   0.8242   0.7491     H
C       0.7041    0.739  0.26834     C
C       0.7041    0.761  0.98166     C
O       0.7176   0.1138  0.78226     O
O       0.7176   0.3862  0.46774     O
H       0.7183   0.1339   0.1012     H
H       0.7183   0.3661   0.1488     H
H        0.721   0.5455   0.7393     H
H        0.721   0.9545   0.5107     H
Dy     0.72283  0.01116  0.81111    Dy
Dy     0.72283  0.48884  0.43889    Dy
C       0.7297   0.7341  0.49748     C
C       0.7297   0.7659  0.75252     C
H       0.7315   0.1802   0.1859     H
H       0.7315   0.3198   0.0641     H
C       0.7341   0.2297  0.74748     C
C       0.7341   0.2703  0.50252     C
C        0.739   0.2041  0.51834     C
C        0.739   0.2959  0.73166     C
C        0.739   0.5994  0.74676     C
C        0.739   0.9006  0.50324     C
O       0.7414    0.596  0.28511     O
O       0.7414    0.904  0.96489     O
C       0.7462   0.0829   0.1507     C
C       0.7462   0.4171   0.0993     C
C       0.7495   0.1225  0.63618     C
C       0.7495   0.3775  0.61382     C
C       0.7505   0.1225  0.11382     C
C       0.7505   0.3775  0.13618     C
C       0.7538   0.0829   0.5993     C
C       0.7538   0.4171   0.6507     C
O       0.7586    0.596  0.46489     O
O       0.7586    0.904  0.78511     O
C        0.761   0.2041  0.23166     C
C        0.761   0.2959  0.01834     C
C        0.761   0.5994  0.00324     C
C        0.761   0.9006  0.24676     C
C       0.7659   0.2297  0.00252     C
C       0.7659   0.2703  0.24748     C
H       0.7685   0.1802   0.5641     H
H       0.7685   0.3198   0.6859     H
C       0.7703   0.7341  0.25252     C
C       0.7703   0.7659  0.99748     C
Dy     0.77717  0.01116  0.93889    Dy
Dy     0.77717  0.48884  0.31111    Dy
H        0.779   0.5455   0.0107     H
H        0.779   0.9545   0.2393     H
H       0.7817   0.1339   0.6488     H
H       0.7817   0.3661   0.6012     H
O       0.7824   0.1138  0.96774     O
O       0.7824   0.3862  0.28226     O
C       0.7959    0.739  0.48166     C
C       0.7959    0.761  0.76834     C
H       0.7965   0.6758   0.2491     H
H       0.7965   0.8242   0.0009     H
C       0.7978   0.0964  0.61852     C
C       0.7978   0.4036  0.63148     C
C       0.7981   0.1221  0.56224     C
C       0.7981   0.3779  0.68776     C
C       0.7994   0.6866  0.00862     C
C       0.7994   0.8134  0.24138     C
C       0.8001     0.13  0.77625     C
C       0.8001     0.37  0.47375     C
C       0.8028   0.5926  0.76284     C
C       0.8028   0.9074  0.48716     C
C       0.8048   0.0593  0.57914     C
C       0.8048   0.4407  0.67086     C
C       0.8134   0.2006  0.75862     C
C       0.8134   0.2994  0.49138     C
H       0.8198   0.7315   0.8141     H
H       0.8198   0.7685   0.4359     H
O       0.8214   0.5102  0.34732     O
O       0.8214   0.9898  0.90268     O
H       0.8242   0.2035   0.9991     H
H       0.8242   0.2965   0.2509     H
O       0.8242   0.6376  0.32775     O
C       0.8242   0.6472  0.47128     C
C       0.8242   0.8528  0.77872     C
O       0.8242   0.8624  0.92225     O
C       0.8255   0.1657  0.52421     C
C       0.8255   0.3343  0.72579     C
H       0.8265   0.5336   0.7665     H
H       0.8265   0.9664   0.4835     H
C       0.8343   0.6745  0.77421     C
C       0.8343   0.8255  0.47579     C
C       0.8358   0.0982  0.54239     C
C       0.8358   0.4018  0.70761     C
C       0.8363   0.5974  0.34544     C
C       0.8363   0.9026  0.90456     C
C       0.8443   0.0933  0.15136     C
C       0.8443   0.4067  0.09864     C
C       0.8473   0.1323   0.1146     C
C       0.8473   0.3677   0.1354     C
C       0.8514   0.5255  0.67336     C
C       0.8514   0.9745  0.57664     C
C       0.8528   0.1758  0.22128     C
C       0.8528   0.3242  0.02872     C
H       0.8565   0.5675   0.6621     H
H       0.8565   0.9325   0.5879     H
O       0.8624   0.1758  0.07775     O
O       0.8624   0.3242  0.17225     O
H       0.8628   0.0873   0.6195     H
H       0.8628   0.4127   0.6305     H
H       0.8661   0.7183   0.8988     H
H       0.8661   0.7817   0.3512     H
C       0.8677   0.6527   0.3646     C
C       0.8677   0.8473   0.8854     C
O       0.8689   0.5447   0.4287     O
O       0.8689   0.9553   0.8213     O
C         0.87   0.6999  0.02625     C
C         0.87   0.8001  0.22375     C
H       0.8701   0.5416   0.3841     H
H       0.8701   0.9584   0.8659     H
O       0.8702   0.0918  0.78473     O
O       0.8702   0.4082  0.46527     O
O       0.8726   0.0892  0.22057     O
O       0.8726   0.4108  0.02943     O
C       0.8775   0.7495  0.36382     C
C       0.8775   0.7505  0.88618     C
C       0.8779   0.7019  0.81224     C
C       0.8779   0.7981  0.43776     C
C       0.8799   0.6065  0.38337     C
C       0.8799   0.8935  0.86663     C
C       0.8826   0.0139   0.5401     C
C       0.8826   0.4861   0.7099     C
O       0.8862   0.7176  0.21774     O
O       0.8862   0.7824  0.03226     O
O       0.8896   0.5081  0.07019     O
O       0.8896   0.9919  0.17981     O
C       0.8904   0.5475  0.69292     C
C       0.8904   0.9525  0.55708     C
C       0.8935   0.1201  0.13337     C
C       0.8935   0.3799  0.11663     C
H       0.8956   0.0776   0.4447     H
H       0.8956   0.4224   0.8053     H
C       0.8983   0.0702  0.17147     C
C       0.8983   0.4298  0.07853     C
C       0.9006    0.239  0.75324     C
C       0.9006    0.261  0.49676     C
C       0.9018   0.6642  0.79239     C
C       0.9018   0.8358  0.45761     C
C       0.9026   0.1637  0.09544     C
C       0.9026   0.3363  0.15456     C
C       0.9036   0.7022  0.86852     C
C       0.9036   0.7978  0.38148     C
O        0.904   0.2414  0.21489     O
O        0.904   0.2586  0.03511     O
C       0.9067   0.6557  0.40136     C
C       0.9067   0.8443  0.84864     C
C       0.9074   0.1972  0.51284     C
C       0.9074   0.3028  0.73716     C
O       0.9082   0.6298  0.03473     O
O       0.9082   0.8702  0.21527     O
H       0.9092   0.5019   0.7229     H
H       0.9092   0.9981   0.5271     H
O       0.9108   0.6274  0.47057     O
O       0.9108   0.8726  0.77943     O
H       0.9127   0.6372   0.8695     H
H       0.9127   0.8628   0.3805     H
C       0.9171   0.7462   0.8493     C
C       0.9171   0.7538   0.4007     C
H       0.9224   0.6044   0.6947     H
H       0.9224   0.8956   0.5553     H
C       0.9298   0.6017  0.42147     C
C       0.9298   0.8983  0.82853     C
O       0.9302   0.5255    0.294     O
O       0.9302   0.9745    0.956     O
H       0.9325   0.1435   0.4121     H
H       0.9325   0.3565   0.8379     H
C       0.9407   0.6952  0.82914     C
C       0.9407   0.8048  0.42086     C
C       0.9525   0.1096  0.44292     C
C       0.9525   0.3904  0.80708     C
H       0.9545    0.221   0.7607     H
H       0.9545    0.279   0.4893     H
O       0.9553   0.1311   0.1787     O
O       0.9553   0.3689   0.0713     O
H       0.9584   0.1299   0.1341     H
H       0.9584   0.3701   0.1159     H
H       0.9664   0.1735   0.5165     H
H       0.9664   0.3265   0.7335     H
O       0.9745   0.0698    0.044     O
C       0.9745   0.1486  0.42336     C
C       0.9745   0.3514  0.82664     C
O       0.9745   0.4302    0.206     O
C       0.9861   0.6174   0.7901     C
C       0.9861   0.8826   0.4599     C
Dy     0.98884  0.72283  0.18889    Dy
Dy     0.98884  0.77717  0.06111    Dy
O       0.9898   0.1786  0.09732     O
O       0.9898   0.3214  0.15268     O
O       0.9919   0.1104  0.82019     O
O       0.9919   0.3896  0.42981     O
H       0.9981   0.0908   0.4729     H
H       0.9981   0.4092   0.7771     H
