data_I
_chemical_name_common  '/home/zhangsd/repos/MofS-CGCNN/ML/data/TSD/clean_cifs/IZIKEJ_clean'
_cell_length_a  8.42900
_cell_length_b  8.42900
_cell_length_c 39.66190
_cell_angle_alpha 90.00000
_cell_angle_beta  90.00000
_cell_angle_gamma 120.00000
_space_group_name_H-M_alt      'P 1'


loop_
_space_group_symop_operation_xyz
  'x, y, z' 

loop_
_atom_site_label
_atom_site_fract_x
_atom_site_fract_y
_atom_site_fract_z
_atom_site_type_symbol
Fe         0.0      0.0      0.0    Fe
K          0.0      0.0     0.25     K
Fe         0.0      0.0      0.5    Fe
K          0.0      0.0     0.75     K
N      0.01274   0.4566  0.37671     N
N      0.01274  0.55613  0.87671     N
C      0.07759  0.21655  0.47237     C
C      0.07759  0.86104  0.97237     C
N      0.11053   0.3206  0.71005     N
N      0.11053  0.78994  0.21005     N
C      0.11678  0.52771  0.13904     C
C      0.11678  0.58908  0.63904     C
N      0.12327  0.34607  0.45662     N
N      0.12327   0.7772  0.95662     N
C      0.13896  0.21655  0.97237     C
C      0.13896  0.92241  0.47237     C
C      0.19437  0.45012   0.6943     C
C      0.19437  0.74426   0.1943     C
N      0.21006   0.3206  0.21005     N
N      0.21006  0.88947  0.71005     N
C      0.21655  0.07759  0.02763     C
C      0.21655  0.13896  0.52763     C
N       0.2228  0.34607  0.95662     N
N       0.2228  0.87673  0.45662     N
C      0.25574  0.45012   0.1943     C
C      0.25574  0.80563   0.6943     C
N       0.3206  0.11053  0.78995     N
N       0.3206  0.21006  0.28995     N
Fe     0.33333  0.66667  0.16667    Fe
K      0.33333  0.66667  0.41667     K
Fe     0.33333  0.66667  0.66667    Fe
K      0.33333  0.66667  0.91667     K
N      0.34607  0.12327  0.04338     N
N      0.34607   0.2228  0.54338     N
C      0.41092  0.52771  0.63904     C
C      0.41092  0.88322  0.13904     C
N      0.44387   0.4566  0.87671     N
N      0.44387  0.98726  0.37671     N
C      0.45012  0.19437   0.8057     C
C      0.45012  0.25574   0.3057     C
N       0.4566  0.01274  0.12329     N
N       0.4566  0.44387  0.62329     N
C      0.47229  0.58908  0.13904     C
C      0.47229  0.88322  0.63904     C
C      0.52771  0.11678  0.36096     C
C      0.52771  0.41092  0.86096     C
N       0.5434  0.55613  0.37671     N
N       0.5434  0.98726  0.87671     N
C      0.54988  0.74426   0.6943     C
C      0.54988  0.80563   0.1943     C
N      0.55613  0.01274  0.62329     N
N      0.55613   0.5434  0.12329     N
C      0.58908  0.11678  0.86096     C
C      0.58908  0.47229  0.36096     C
N      0.65393   0.7772  0.45662     N
N      0.65393  0.87673  0.95662     N
K      0.66667  0.33333  0.08333     K
Fe     0.66667  0.33333  0.33333    Fe
K      0.66667  0.33333  0.58333     K
Fe     0.66667  0.33333  0.83333    Fe
N       0.6794  0.78994  0.71005     N
N       0.6794  0.88947  0.21005     N
C      0.74426  0.19437   0.3057     C
C      0.74426  0.54988   0.8057     C
N       0.7772  0.12327  0.54338     N
N       0.7772  0.65393  0.04338     N
C      0.78345  0.86104  0.47237     C
C      0.78345  0.92241  0.97237     C
N      0.78994  0.11053  0.28995     N
N      0.78994   0.6794  0.78995     N
C      0.80563  0.25574   0.8057     C
C      0.80563  0.54988   0.3057     C
C      0.86104  0.07759  0.52763     C
C      0.86104  0.78345  0.02763     C
N      0.87673   0.2228  0.04338     N
N      0.87673  0.65393  0.54338     N
C      0.88322  0.41092  0.36096     C
C      0.88322  0.47229  0.86096     C
N      0.88947  0.21006  0.78995     N
N      0.88947   0.6794  0.28995     N
C      0.92241  0.13896  0.02763     C
C      0.92241  0.78345  0.52763     C
N      0.98726  0.44387  0.12329     N
N      0.98726   0.5434  0.62329     N
