data_I
_chemical_name_common  '/home/zhangsd/repos/MofS-CGCNN/ML/data/TSD/clean_cifs/JEWYAM_charged'
_cell_length_a 19.11580
_cell_length_b 19.11580
_cell_length_c 19.11580
_cell_angle_alpha 90.00000
_cell_angle_beta  90.00000
_cell_angle_gamma 90.00000
_space_group_name_H-M_alt      'P 1'


loop_
_space_group_symop_operation_xyz
  'x, y, z' 

loop_
_atom_site_label
_atom_site_fract_x
_atom_site_fract_y
_atom_site_fract_z
_atom_site_type_symbol
Cl         0.0      0.0      0.5    Cl
Mn         0.0   0.1431      0.5    Mn
O          0.0    0.254      0.5     O
Cl         0.0      0.5      0.0    Cl
Mn         0.0      0.5   0.1431    Mn
O          0.0      0.5    0.254     O
O          0.0      0.5    0.746     O
Mn         0.0      0.5   0.8569    Mn
O          0.0    0.746      0.5     O
Mn         0.0   0.8569      0.5    Mn
N      0.08336  0.13224  0.41933     N
N      0.08336  0.13224  0.58067     N
N      0.08336  0.41933  0.13224     N
N      0.08336  0.41933  0.86776     N
N      0.08336  0.58067  0.13224     N
N      0.08336  0.58067  0.86776     N
N      0.08336  0.86776  0.41933     N
N      0.08336  0.86776  0.58067     N
N      0.09274  0.17516  0.36509     N
N      0.09274  0.17516  0.63491     N
N      0.09274  0.36509  0.17516     N
N      0.09274  0.36509  0.82484     N
N      0.09274  0.63491  0.17516     N
N      0.09274  0.63491  0.82484     N
N      0.09274  0.82484  0.36509     N
N      0.09274  0.82484  0.63491     N
H       0.1103   0.2593   0.2593     H
H       0.1103   0.2593   0.7407     H
H       0.1103   0.7407   0.2593     H
H       0.1103   0.7407   0.7407     H
N      0.13224  0.08336  0.41933     N
N      0.13224  0.08336  0.58067     N
N      0.13224  0.41933  0.08336     N
N      0.13224  0.41933  0.91664     N
N      0.13224  0.58067  0.08336     N
N      0.13224  0.58067  0.91664     N
N      0.13224  0.91664  0.41933     N
N      0.13224  0.91664  0.58067     N
Mn      0.1431      0.0      0.5    Mn
Mn      0.1431      0.5      0.0    Mn
C       0.1498   0.1498   0.3329     C
C       0.1498   0.1498   0.6671     C
C       0.1498   0.3329   0.1498     C
C       0.1498   0.3329   0.8502     C
C       0.1498   0.6671   0.1498     C
C       0.1498   0.6671   0.8502     C
C       0.1498   0.8502   0.3329     C
C       0.1498   0.8502   0.6671     C
C       0.1505   0.2399   0.2399     C
C       0.1505   0.2399   0.7601     C
C       0.1505   0.7601   0.2399     C
C       0.1505   0.7601   0.7601     C
N      0.17516  0.09274  0.36509     N
N      0.17516  0.09274  0.63491     N
N      0.17516  0.36509  0.09274     N
N      0.17516  0.36509  0.90726     N
N      0.17516  0.63491  0.09274     N
N      0.17516  0.63491  0.90726     N
N      0.17516  0.90726  0.36509     N
N      0.17516  0.90726  0.63491     N
C      0.18073  0.18073   0.2697     C
C      0.18073  0.18073   0.7303     C
C      0.18073   0.2697  0.18073     C
C      0.18073   0.2697  0.81927     C
C      0.18073   0.7303  0.18073     C
C      0.18073   0.7303  0.81927     C
C      0.18073  0.81927   0.2697     C
C      0.18073  0.81927   0.7303     C
C       0.2399   0.1505   0.2399     C
C       0.2399   0.1505   0.7601     C
C       0.2399   0.2399   0.1505     C
C       0.2399   0.2399   0.8495     C
C       0.2399   0.7601   0.1505     C
C       0.2399   0.7601   0.8495     C
C       0.2399   0.8495   0.2399     C
C       0.2399   0.8495   0.7601     C
O        0.254      0.0      0.5     O
O        0.254      0.5      0.0     O
H       0.2593   0.1103   0.2593     H
H       0.2593   0.1103   0.7407     H
H       0.2593   0.2593   0.1103     H
H       0.2593   0.2593   0.8897     H
H       0.2593   0.7407   0.1103     H
H       0.2593   0.7407   0.8897     H
H       0.2593   0.8897   0.2593     H
H       0.2593   0.8897   0.7407     H
C       0.2697  0.18073  0.18073     C
C       0.2697  0.18073  0.81927     C
C       0.2697  0.81927  0.18073     C
C       0.2697  0.81927  0.81927     C
C       0.3329   0.1498   0.1498     C
C       0.3329   0.1498   0.8502     C
C       0.3329   0.8502   0.1498     C
C       0.3329   0.8502   0.8502     C
N      0.36509  0.09274  0.17516     N
N      0.36509  0.09274  0.82484     N
N      0.36509  0.17516  0.09274     N
N      0.36509  0.17516  0.90726     N
N      0.36509  0.82484  0.09274     N
N      0.36509  0.82484  0.90726     N
N      0.36509  0.90726  0.17516     N
N      0.36509  0.90726  0.82484     N
N      0.41933  0.08336  0.13224     N
N      0.41933  0.08336  0.86776     N
N      0.41933  0.13224  0.08336     N
N      0.41933  0.13224  0.91664     N
N      0.41933  0.86776  0.08336     N
N      0.41933  0.86776  0.91664     N
N      0.41933  0.91664  0.13224     N
N      0.41933  0.91664  0.86776     N
Cl         0.5      0.0      0.0    Cl
Mn         0.5      0.0   0.1431    Mn
O          0.5      0.0    0.254     O
O          0.5      0.0    0.746     O
Mn         0.5      0.0   0.8569    Mn
Mn         0.5   0.1431      0.0    Mn
O          0.5    0.254      0.0     O
O          0.5    0.746      0.0     O
Mn         0.5   0.8569      0.0    Mn
N      0.58067  0.08336  0.13224     N
N      0.58067  0.08336  0.86776     N
N      0.58067  0.13224  0.08336     N
N      0.58067  0.13224  0.91664     N
N      0.58067  0.86776  0.08336     N
N      0.58067  0.86776  0.91664     N
N      0.58067  0.91664  0.13224     N
N      0.58067  0.91664  0.86776     N
N      0.63491  0.09274  0.17516     N
N      0.63491  0.09274  0.82484     N
N      0.63491  0.17516  0.09274     N
N      0.63491  0.17516  0.90726     N
N      0.63491  0.82484  0.09274     N
N      0.63491  0.82484  0.90726     N
N      0.63491  0.90726  0.17516     N
N      0.63491  0.90726  0.82484     N
C       0.6671   0.1498   0.1498     C
C       0.6671   0.1498   0.8502     C
C       0.6671   0.8502   0.1498     C
C       0.6671   0.8502   0.8502     C
C       0.7303  0.18073  0.18073     C
C       0.7303  0.18073  0.81927     C
C       0.7303  0.81927  0.18073     C
C       0.7303  0.81927  0.81927     C
H       0.7407   0.1103   0.2593     H
H       0.7407   0.1103   0.7407     H
H       0.7407   0.2593   0.1103     H
H       0.7407   0.2593   0.8897     H
H       0.7407   0.7407   0.1103     H
H       0.7407   0.7407   0.8897     H
H       0.7407   0.8897   0.2593     H
H       0.7407   0.8897   0.7407     H
O        0.746      0.0      0.5     O
O        0.746      0.5      0.0     O
C       0.7601   0.1505   0.2399     C
C       0.7601   0.1505   0.7601     C
C       0.7601   0.2399   0.1505     C
C       0.7601   0.2399   0.8495     C
C       0.7601   0.7601   0.1505     C
C       0.7601   0.7601   0.8495     C
C       0.7601   0.8495   0.2399     C
C       0.7601   0.8495   0.7601     C
C      0.81927  0.18073   0.2697     C
C      0.81927  0.18073   0.7303     C
C      0.81927   0.2697  0.18073     C
C      0.81927   0.2697  0.81927     C
C      0.81927   0.7303  0.18073     C
C      0.81927   0.7303  0.81927     C
C      0.81927  0.81927   0.2697     C
C      0.81927  0.81927   0.7303     C
N      0.82484  0.09274  0.36509     N
N      0.82484  0.09274  0.63491     N
N      0.82484  0.36509  0.09274     N
N      0.82484  0.36509  0.90726     N
N      0.82484  0.63491  0.09274     N
N      0.82484  0.63491  0.90726     N
N      0.82484  0.90726  0.36509     N
N      0.82484  0.90726  0.63491     N
C       0.8495   0.2399   0.2399     C
C       0.8495   0.2399   0.7601     C
C       0.8495   0.7601   0.2399     C
C       0.8495   0.7601   0.7601     C
C       0.8502   0.1498   0.3329     C
C       0.8502   0.1498   0.6671     C
C       0.8502   0.3329   0.1498     C
C       0.8502   0.3329   0.8502     C
C       0.8502   0.6671   0.1498     C
C       0.8502   0.6671   0.8502     C
C       0.8502   0.8502   0.3329     C
C       0.8502   0.8502   0.6671     C
Mn      0.8569      0.0      0.5    Mn
Mn      0.8569      0.5      0.0    Mn
N      0.86776  0.08336  0.41933     N
N      0.86776  0.08336  0.58067     N
N      0.86776  0.41933  0.08336     N
N      0.86776  0.41933  0.91664     N
N      0.86776  0.58067  0.08336     N
N      0.86776  0.58067  0.91664     N
N      0.86776  0.91664  0.41933     N
N      0.86776  0.91664  0.58067     N
H       0.8897   0.2593   0.2593     H
H       0.8897   0.2593   0.7407     H
H       0.8897   0.7407   0.2593     H
H       0.8897   0.7407   0.7407     H
N      0.90726  0.17516  0.36509     N
N      0.90726  0.17516  0.63491     N
N      0.90726  0.36509  0.17516     N
N      0.90726  0.36509  0.82484     N
N      0.90726  0.63491  0.17516     N
N      0.90726  0.63491  0.82484     N
N      0.90726  0.82484  0.36509     N
N      0.90726  0.82484  0.63491     N
N      0.91664  0.13224  0.41933     N
N      0.91664  0.13224  0.58067     N
N      0.91664  0.41933  0.13224     N
N      0.91664  0.41933  0.86776     N
N      0.91664  0.58067  0.13224     N
N      0.91664  0.58067  0.86776     N
N      0.91664  0.86776  0.41933     N
N      0.91664  0.86776  0.58067     N
