data_I
_chemical_name_common  '/home/zhangsd/repos/MofS-CGCNN/ML/data/TSD/clean_cifs/JEXXAM_clean'
_cell_length_a  7.28610
_cell_length_b  7.28610
_cell_length_c  8.02070
_cell_angle_alpha 90.00000
_cell_angle_beta  90.00000
_cell_angle_gamma 120.00000
_space_group_name_H-M_alt      'P 1'


loop_
_space_group_symop_operation_xyz
  'x, y, z' 

loop_
_atom_site_label
_atom_site_fract_x
_atom_site_fract_y
_atom_site_fract_z
_atom_site_type_symbol
H          0.0    0.423      0.5     H
C          0.0   0.4426      0.0     C
C          0.0   0.5574      0.5     C
H          0.0    0.577      0.0     H
O       0.1114    0.421  0.10589     O
O       0.1114   0.6904  0.39411     O
O       0.3096    0.421  0.39411     O
O       0.3096   0.8886  0.10589     O
Ni     0.33333  0.66667     0.25    Ni
O        0.421   0.1114  0.89411     O
O        0.421   0.3096  0.60589     O
H        0.423      0.0      0.5     H
H        0.423    0.423      0.0     H
C       0.4426      0.0      0.0     C
C       0.4426   0.4426      0.5     C
C       0.5574      0.0      0.5     C
C       0.5574   0.5574      0.0     C
H        0.577      0.0      0.0     H
H        0.577    0.577      0.5     H
O        0.579   0.6904  0.10589     O
O        0.579   0.8886  0.39411     O
Ni     0.66667  0.33333     0.75    Ni
O       0.6904   0.1114  0.60589     O
O       0.6904    0.579  0.89411     O
O       0.8886   0.3096  0.89411     O
O       0.8886    0.579  0.60589     O
