data_I
_chemical_name_common  '/home/zhangsd/repos/MofS-CGCNN/ML/data/TSD/clean_cifs/JIVSEN_clean'
_cell_length_a 36.93600
_cell_length_b  7.00810
_cell_length_c  6.21270
_cell_angle_alpha 90.00000
_cell_angle_beta  97.24600
_cell_angle_gamma 90.00000
_space_group_name_H-M_alt      'P 1'


loop_
_space_group_symop_operation_xyz
  'x, y, z' 

loop_
_atom_site_label
_atom_site_fract_x
_atom_site_fract_y
_atom_site_fract_z
_atom_site_type_symbol
Cu         0.0   0.6916      0.0    Cu
H       0.0305   0.8034   0.6191     H
N      0.04657    0.685    0.904     N
C       0.0508   0.7569    0.707     C
H       0.0741   0.6013    0.179     H
C       0.0765    0.638   0.0377     C
C       0.0849   0.7632    0.631     C
H       0.0862   0.1504    0.983     H
H       0.0874   0.8117   0.4944     H
H       0.0893   0.2679   0.6394     H
C      0.10849    0.157   0.9288     C
C      0.11053   0.2288    0.725     C
C      0.11081   0.6419   0.9733     C
C      0.11495    0.695   0.7665     C
H       0.1311   0.6088   0.0704     H
H       0.1387   0.0438   0.1896     H
C       0.1401   0.0947   0.0526     C
C      0.14364   0.2436   0.6461     C
H       0.1446   0.2939   0.5083     H
C      0.15174      0.7   0.6834     C
O      0.15337   0.7453   0.4899     O
C      0.17365   0.1062   0.9773     C
C      0.17536    0.185   0.7685     C
O      0.18038   0.6689   0.8097     O
O       0.2039    0.891   0.2251     O
C      0.20676   0.0469   0.1297     C
C      0.21017    0.176   0.6674     C
Sm      0.2199  0.68939  0.52263    Sm
O       0.2209   0.3383   0.5899     O
O      0.22717   0.0303   0.6516     O
O      0.23339   0.1658   0.1622     O
O      0.26661   0.6658   0.8378     O
O      0.27283   0.5303   0.3484     O
O       0.2791   0.8383   0.4101     O
Sm      0.2801  0.18939  0.47737    Sm
C      0.28983    0.676   0.3326     C
C      0.29324   0.5469   0.8703     C
O       0.2961    0.391   0.7749     O
O      0.31962   0.1689   0.1903     O
C      0.32464    0.685   0.2315     C
C      0.32635   0.6062   0.0227     C
O      0.34663   0.2453   0.5101     O
C      0.34826      0.2   0.3166     C
H       0.3554   0.7939   0.4917     H
C      0.35636   0.7436   0.3539     C
C       0.3599   0.5947   0.9474     C
H       0.3613   0.5438   0.8104     H
H       0.3689   0.1088   0.9296     H
C      0.38505    0.195   0.2335     C
C      0.38919   0.1419   0.0267     C
C      0.38947   0.7288    0.275     C
C      0.39151    0.657   0.0712     C
H       0.4107   0.7679   0.3606     H
H       0.4126   0.3117   0.5056     H
H       0.4138   0.6504    0.017     H
C       0.4151   0.2632    0.369     C
C       0.4235    0.138   0.9623     C
H       0.4259   0.1013    0.821     H
C       0.4492   0.2569    0.293     C
N      0.45343    0.185    0.096     N
H       0.4695   0.3034   0.3809     H
Cu         0.5   0.1916      0.0    Cu
H       0.5305   0.3034   0.6191     H
N      0.54657    0.185    0.904     N
C       0.5508   0.2569    0.707     C
H       0.5741   0.1013    0.179     H
C       0.5765    0.138   0.0377     C
C       0.5849   0.2632    0.631     C
H       0.5862   0.6504    0.983     H
H       0.5874   0.3117   0.4944     H
H       0.5893   0.7679   0.6394     H
C      0.60849    0.657   0.9288     C
C      0.61053   0.7288    0.725     C
C      0.61081   0.1419   0.9733     C
C      0.61495    0.195   0.7665     C
H       0.6311   0.1088   0.0704     H
H       0.6387   0.5438   0.1896     H
C       0.6401   0.5947   0.0526     C
C      0.64364   0.7436   0.6461     C
H       0.6446   0.7939   0.5083     H
C      0.65174      0.2   0.6834     C
O      0.65337   0.2453   0.4899     O
C      0.67365   0.6062   0.9773     C
C      0.67536    0.685   0.7685     C
O      0.68038   0.1689   0.8097     O
O       0.7039    0.391   0.2251     O
C      0.70676   0.5469   0.1297     C
C      0.71017    0.676   0.6674     C
Sm      0.7199  0.18939  0.52263    Sm
O       0.7209   0.8383   0.5899     O
O      0.72717   0.5303   0.6516     O
O      0.73339   0.6658   0.1622     O
O      0.76661   0.1658   0.8378     O
O      0.77283   0.0303   0.3484     O
O       0.7791   0.3383   0.4101     O
Sm      0.7801  0.68939  0.47737    Sm
C      0.78983    0.176   0.3326     C
C      0.79324   0.0469   0.8703     C
O       0.7961    0.891   0.7749     O
O      0.81962   0.6689   0.1903     O
C      0.82464    0.185   0.2315     C
C      0.82635   0.1062   0.0227     C
O      0.84663   0.7453   0.5101     O
C      0.84826      0.7   0.3166     C
H       0.8554   0.2939   0.4917     H
C      0.85636   0.2436   0.3539     C
C       0.8599   0.0947   0.9474     C
H       0.8613   0.0438   0.8104     H
H       0.8689   0.6088   0.9296     H
C      0.88505    0.695   0.2335     C
C      0.88919   0.6419   0.0267     C
C      0.88947   0.2288    0.275     C
C      0.89151    0.157   0.0712     C
H       0.9107   0.2679   0.3606     H
H       0.9126   0.8117   0.5056     H
H       0.9138   0.1504    0.017     H
C       0.9151   0.7632    0.369     C
C       0.9235    0.638   0.9623     C
H       0.9259   0.6013    0.821     H
C       0.9492   0.7569    0.293     C
N      0.95343    0.685    0.096     N
H       0.9695   0.8034   0.3809     H
