data_I
_chemical_name_common  '/home/zhangsd/repos/MofS-CGCNN/ML/data/TSD/clean_cifs/JIYXUL_clean'
_cell_length_a 12.58980
_cell_length_b 14.93390
_cell_length_c 19.73900
_cell_angle_alpha 111.35000
_cell_angle_beta  101.66100
_cell_angle_gamma 93.97700
_space_group_name_H-M_alt      'P 1'


loop_
_space_group_symop_operation_xyz
  'x, y, z' 

loop_
_atom_site_label
_atom_site_fract_x
_atom_site_fract_y
_atom_site_fract_z
_atom_site_type_symbol
O       0.0105   0.4953   0.7563     O
Na      0.0219   0.0268   0.4264    Na
O       0.0221   0.8612   0.3667     O
O       0.0349   0.9718   0.6965     O
Na      0.0571   0.1453   0.7582    Na
O       0.0616   0.2025   0.4782     O
O       0.0708   0.6622   0.4818     O
O       0.0812   0.3609   0.2823     O
C       0.0822   0.8186   0.3974     C
O       0.0882   0.4581   0.4598     O
O       0.0982   0.7309   0.3689     O
Na      0.1057   0.5897   0.5786    Na
W       0.1202  0.47793  0.26567     W
O       0.1228   0.3963   0.1629     O
O       0.1314   0.9563   0.5148     O
C       0.1478   0.8743   0.4793     C
C       0.1537   0.2343   0.4775     C
O       0.1669    0.548   0.3679     O
O       0.1686   0.2365   0.1836     O
Na      0.1695   0.5745   0.8636    Na
W      0.19416  0.28243  0.29355     W
O       0.1968   0.3246   0.5042     O
O       0.2007   0.0754   0.4214     O
Fe     0.20503  0.68359  0.43647    Fe
O       0.2083   0.5793   0.2527     O
O       0.2189   0.8277   0.5034     O
C       0.2305   0.1638   0.4424     C
W      0.23922  0.31884  0.14597     W
O       0.2411   0.4209   0.8306     O
O       0.2433   0.5979   0.7716     O
O       0.2595   0.3597   0.3894     O
O       0.2741   0.4077   0.2726     O
O       0.2956    0.616   0.6478     O
O       0.2999    0.667   0.5233     O
O       0.3184   0.2041    0.437     O
O       0.3228   0.4292   0.1414     O
O       0.3233   0.6964   0.3879     O
O        0.329   0.2295   0.2836     O
W      0.33286  0.68093  0.29261     W
O       0.3333   0.6229   0.9617     O
O       0.3361   0.4538   0.6771     O
Fe     0.34663  0.35335  0.48166    Fe
W      0.35382  0.58929  0.73217     W
Na      0.3569   0.4618   0.9528    Na
O       0.3611   0.4958   0.5337     O
O       0.3638   0.6263   0.1919     O
O       0.3689   0.2728   0.1727     O
O       0.3758   0.0444   0.5834     O
Na      0.3787   0.8916   0.6128    Na
W      0.39471  0.62529  0.58054     W
Sb     0.40051  0.49158  0.35593    Sb
W      0.40365  0.33528  0.65843     W
O       0.4228   0.7242    0.785     O
O       0.4253   0.3778   0.7679     O
O       0.4282   0.3431   0.5736     O
O       0.4335   0.5617   0.2917     O
O       0.4474   0.7602   0.6646     O
W      0.45035   0.5227  0.17065     W
W      0.45745  0.22825  0.24635     W
O       0.4629   0.5658   0.8066     O
O        0.467   0.5132   0.0834     O
O       0.4741   0.8477   0.5141     O
O       0.4809   0.3591   0.4474     O
O       0.4841   0.7454   0.3308     O
O       0.4977   0.6036   0.6779     O
Na         0.5      0.0      0.5    Na
O       0.5023   0.3964   0.3221     O
O       0.5159   0.2546   0.6692     O
O       0.5191   0.6409   0.5526     O
O       0.5259   0.1523   0.4859     O
O        0.533   0.4868   0.9166     O
O       0.5371   0.4342   0.1934     O
W      0.54255  0.77175  0.75365     W
W      0.54965   0.4773  0.82935     W
O       0.5526   0.2398   0.3354     O
O       0.5665   0.4383   0.7083     O
O       0.5718   0.6569   0.4264     O
O       0.5747   0.6222   0.2321     O
O       0.5772   0.2758    0.215     O
W      0.59635  0.66472  0.34157     W
Sb     0.59949  0.50842  0.64407    Sb
W      0.60529  0.37471  0.41946     W
Na      0.6213   0.1084   0.3872    Na
O       0.6242   0.9556   0.4166     O
O       0.6311   0.7272   0.8273     O
O       0.6362   0.3737   0.8081     O
O       0.6389   0.5042   0.4663     O
Na      0.6431   0.5382   0.0472    Na
W      0.64618  0.41071  0.26783     W
Fe     0.65337  0.64665  0.51834    Fe
O       0.6639   0.5462   0.3229     O
O       0.6667   0.3771   0.0383     O
W      0.66714  0.31907  0.70739     W
O        0.671   0.7705   0.7164     O
O       0.6767   0.3036   0.6121     O
O       0.6772   0.5708   0.8586     O
O       0.6816   0.7959    0.563     O
O       0.7001    0.333   0.4767     O
O       0.7044    0.384   0.3522     O
O       0.7259   0.5923   0.7274     O
O       0.7405   0.6403   0.6106     O
O       0.7567   0.4021   0.2284     O
O       0.7589   0.5791   0.1694     O
W      0.76078  0.68116  0.85403     W
C       0.7695   0.8362   0.5576     C
O       0.7811   0.1723   0.4966     O
O       0.7917   0.4207   0.7473     O
Fe     0.79497  0.31641  0.56353    Fe
O       0.7993   0.9246   0.5786     O
O       0.8032   0.6754   0.4958     O
W      0.80584  0.71757  0.70645     W
Na      0.8305   0.4255   0.1364    Na
O       0.8314   0.7635   0.8164     O
O       0.8331    0.452   0.6321     O
C       0.8463   0.7657   0.5225     C
C       0.8522   0.1257   0.5207     C
O       0.8686   0.0437   0.4852     O
O       0.8772   0.6037   0.8371     O
W       0.8798  0.52207  0.73433     W
Na      0.8943   0.4103   0.4214    Na
O       0.9018   0.2691   0.6311     O
O       0.9118   0.5419   0.5402     O
C       0.9178   0.1814   0.6026     C
O       0.9188   0.6391   0.7177     O
O       0.9292   0.3378   0.5182     O
O       0.9384   0.7975   0.5218     O
Na      0.9429   0.8547   0.2418    Na
O       0.9651   0.0282   0.3035     O
O       0.9779   0.1388   0.6333     O
Na      0.9781   0.9732   0.5736    Na
O       0.9895   0.5047   0.2437     O
