data_I
_chemical_name_common  '/home/zhangsd/repos/MofS-CGCNN/ML/data/TSD/clean_cifs/JIZJOT_clean'
_cell_length_a 15.19020
_cell_length_b 17.50960
_cell_length_c 17.50960
_cell_angle_alpha 90.00000
_cell_angle_beta  90.00000
_cell_angle_gamma 90.00000
_space_group_name_H-M_alt      'P 1'


loop_
_space_group_symop_operation_xyz
  'x, y, z' 

loop_
_atom_site_label
_atom_site_fract_x
_atom_site_fract_y
_atom_site_fract_z
_atom_site_type_symbol
C       0.0015   0.3726   0.8721     C
C       0.0015   0.6274   0.1279     C
N        0.014   0.0996   0.7427     N
N        0.014   0.9004   0.2573     N
C       0.0182     0.12   0.4491     C
C       0.0182     0.88   0.5509     C
O       0.0229   0.0167   0.1223     O
O       0.0229   0.9833   0.8777     O
C       0.0258   0.4143   0.1089     C
C       0.0258   0.5857   0.8911     C
Co     0.03218  0.10233  0.86035    Co
Co     0.03218  0.89767  0.13965    Co
H        0.045   0.1303   0.3363     H
H        0.045   0.8697   0.6637     H
C       0.0471   0.4971   0.1159     C
C       0.0471   0.5029   0.8841     C
C        0.048   0.1442   0.6155     C
C        0.048   0.8558   0.3845     C
O       0.0508   0.2187   0.8596     O
O       0.0508   0.7813   0.1404     O
C        0.057   0.2876   0.0644     C
C        0.057   0.7124   0.9356     C
C       0.0656   0.1373   0.6946     C
C       0.0656   0.8627   0.3054     C
H        0.078   0.1174   0.4648     H
H        0.078   0.8826   0.5352     H
C       0.0786   0.3652    0.068     C
C       0.0786   0.6348    0.932     C
H       0.0863   0.1726   0.5834     H
H       0.0863   0.8274   0.4166     H
C       0.0884   0.3477   0.8677     C
C       0.0884   0.6523   0.1323     C
H       0.0941   0.2545   0.0358     H
H       0.0941   0.7455   0.9642     H
C       0.0961   0.0496   0.1278     C
C       0.0961   0.9504   0.8722     C
O       0.1021   0.1205   0.1192     O
O       0.1021   0.8795   0.8808     O
C       0.1158   0.2657   0.8579     C
C       0.1158   0.7343   0.1421     C
H       0.1171    0.161   0.7142     H
H       0.1171    0.839   0.2858     H
H       0.1293   0.3839   0.0424     H
H       0.1293   0.6161   0.9576     H
C       0.1329   0.4805   0.8793     C
C       0.1329   0.5195   0.1207     C
C       0.1567   0.4038   0.8681     C
C       0.1567   0.5962   0.1319     C
H       0.1583    0.013   0.2652     H
H       0.1583    0.987   0.7348     H
O        0.159   0.0749   0.8614     O
O        0.159   0.9251   0.1386     O
H       0.1779   0.4821   0.1163     H
H       0.1779   0.5179   0.8837     H
C       0.1782   0.0029   0.1456     C
C       0.1782   0.9971   0.8544     C
O       0.1933   0.2502   0.8515     O
O       0.1933   0.7498   0.1485     O
C       0.2062   0.0254   0.2299     C
C       0.2062   0.9746   0.7701     C
H       0.2165   0.3896    0.861     H
H       0.2165   0.6104    0.139     H
H       0.2186   0.0802   0.2322     H
H       0.2186   0.9198   0.7678     H
H       0.2263   0.0169   0.1093     H
H       0.2263   0.9831   0.8907     H
H       0.2409   0.2443   0.9968     H
H       0.2409   0.7557   0.0032     H
Co        0.25  0.14943  0.85057    Co
Co        0.25  0.85057  0.14943    Co
H       0.2591   0.0032   0.7557     H
H       0.2591   0.9968   0.2443     H
H       0.2737   0.1093   0.0169     H
H       0.2737   0.8907   0.9831     H
H       0.2814   0.2322   0.0802     H
H       0.2814   0.7678   0.9198     H
H       0.2835    0.139   0.6104     H
H       0.2835    0.861   0.3896     H
C       0.2938   0.2299   0.0254     C
C       0.2938   0.7701   0.9746     C
O       0.3067   0.1485   0.7498     O
O       0.3067   0.8515   0.2502     O
C       0.3218   0.1456   0.0029     C
C       0.3218   0.8544   0.9971     C
H       0.3221   0.1163   0.4821     H
H       0.3221   0.8837   0.5179     H
O        0.341   0.1386   0.9251     O
O        0.341   0.8614   0.0749     O
H       0.3417   0.2652    0.013     H
H       0.3417   0.7348    0.987     H
C       0.3433   0.1319   0.5962     C
C       0.3433   0.8681   0.4038     C
C       0.3671   0.1207   0.5195     C
C       0.3671   0.8793   0.4805     C
H       0.3707   0.0424   0.3839     H
H       0.3707   0.9576   0.6161     H
H       0.3829   0.2858    0.839     H
H       0.3829   0.7142    0.161     H
C       0.3842   0.1421   0.7343     C
C       0.3842   0.8579   0.2657     C
O       0.3979   0.1192   0.1205     O
O       0.3979   0.8808   0.8795     O
C       0.4039   0.1278   0.0496     C
C       0.4039   0.8722   0.9504     C
H       0.4059   0.0358   0.2545     H
H       0.4059   0.9642   0.7455     H
C       0.4116   0.1323   0.6523     C
C       0.4116   0.8677   0.3477     C
H       0.4137   0.4166   0.8274     H
H       0.4137   0.5834   0.1726     H
C       0.4214    0.068   0.3652     C
C       0.4214    0.932   0.6348     C
H        0.422   0.4648   0.1174     H
H        0.422   0.5352   0.8826     H
C       0.4344   0.3054   0.8627     C
C       0.4344   0.6946   0.1373     C
C        0.443   0.0644   0.2876     C
C        0.443   0.9356   0.7124     C
O       0.4492   0.1404   0.7813     O
O       0.4492   0.8596   0.2187     O
C        0.452   0.3845   0.8558     C
C        0.452   0.6155   0.1442     C
C       0.4529   0.1159   0.4971     C
C       0.4529   0.8841   0.5029     C
H        0.455   0.3363   0.1303     H
H        0.455   0.6637   0.8697     H
Co     0.46782  0.13965  0.89767    Co
Co     0.46782  0.86035  0.10233    Co
C       0.4742   0.1089   0.4143     C
C       0.4742   0.8911   0.5857     C
O       0.4771   0.1223   0.0167     O
O       0.4771   0.8777   0.9833     O
C       0.4818   0.4491     0.12     C
C       0.4818   0.5509     0.88     C
N        0.486   0.2573   0.9004     N
N        0.486   0.7427   0.0996     N
C       0.4985   0.1279   0.6274     C
C       0.4985   0.8721   0.3726     C
C       0.5015   0.3726   0.1279     C
C       0.5015   0.6274   0.8721     C
N        0.514   0.0996   0.2573     N
N        0.514   0.9004   0.7427     N
C       0.5182     0.12   0.5509     C
C       0.5182     0.88   0.4491     C
O       0.5229   0.0167   0.8777     O
O       0.5229   0.9833   0.1223     O
C       0.5258   0.4143   0.8911     C
C       0.5258   0.5857   0.1089     C
Co     0.53218  0.10233  0.13965    Co
Co     0.53218  0.89767  0.86035    Co
H        0.545   0.1303   0.6637     H
H        0.545   0.8697   0.3363     H
C       0.5471   0.4971   0.8841     C
C       0.5471   0.5029   0.1159     C
C        0.548   0.1442   0.3845     C
C        0.548   0.8558   0.6155     C
O       0.5508   0.2187   0.1404     O
O       0.5508   0.7813   0.8596     O
C        0.557   0.2876   0.9356     C
C        0.557   0.7124   0.0644     C
C       0.5656   0.1373   0.3054     C
C       0.5656   0.8627   0.6946     C
H        0.578   0.1174   0.5352     H
H        0.578   0.8826   0.4648     H
C       0.5786   0.3652    0.932     C
C       0.5786   0.6348    0.068     C
H       0.5863   0.1726   0.4166     H
H       0.5863   0.8274   0.5834     H
C       0.5884   0.3477   0.1323     C
C       0.5884   0.6523   0.8677     C
H       0.5941   0.2545   0.9642     H
H       0.5941   0.7455   0.0358     H
C       0.5961   0.0496   0.8722     C
C       0.5961   0.9504   0.1278     C
O       0.6021   0.1205   0.8808     O
O       0.6021   0.8795   0.1192     O
C       0.6158   0.2657   0.1421     C
C       0.6158   0.7343   0.8579     C
H       0.6171    0.161   0.2858     H
H       0.6171    0.839   0.7142     H
H       0.6293   0.3839   0.9576     H
H       0.6293   0.6161   0.0424     H
C       0.6329   0.4805   0.1207     C
C       0.6329   0.5195   0.8793     C
C       0.6567   0.4038   0.1319     C
C       0.6567   0.5962   0.8681     C
H       0.6583    0.013   0.7348     H
H       0.6583    0.987   0.2652     H
O        0.659   0.0749   0.1386     O
O        0.659   0.9251   0.8614     O
H       0.6779   0.4821   0.8837     H
H       0.6779   0.5179   0.1163     H
C       0.6782   0.0029   0.8544     C
C       0.6782   0.9971   0.1456     C
O       0.6933   0.2502   0.1485     O
O       0.6933   0.7498   0.8515     O
C       0.7062   0.0254   0.7701     C
C       0.7062   0.9746   0.2299     C
H       0.7165   0.3896    0.139     H
H       0.7165   0.6104    0.861     H
H       0.7186   0.0802   0.7678     H
H       0.7186   0.9198   0.2322     H
H       0.7263   0.0169   0.8907     H
H       0.7263   0.9831   0.1093     H
H       0.7409   0.2443   0.0032     H
H       0.7409   0.7557   0.9968     H
Co        0.75  0.14943  0.14943    Co
Co        0.75  0.85057  0.85057    Co
H       0.7591   0.0032   0.2443     H
H       0.7591   0.9968   0.7557     H
H       0.7737   0.1093   0.9831     H
H       0.7737   0.8907   0.0169     H
H       0.7814   0.2322   0.9198     H
H       0.7814   0.7678   0.0802     H
H       0.7835    0.139   0.3896     H
H       0.7835    0.861   0.6104     H
C       0.7938   0.2299   0.9746     C
C       0.7938   0.7701   0.0254     C
O       0.8067   0.1485   0.2502     O
O       0.8067   0.8515   0.7498     O
C       0.8218   0.1456   0.9971     C
C       0.8218   0.8544   0.0029     C
H       0.8221   0.1163   0.5179     H
H       0.8221   0.8837   0.4821     H
O        0.841   0.1386   0.0749     O
O        0.841   0.8614   0.9251     O
H       0.8417   0.2652    0.987     H
H       0.8417   0.7348    0.013     H
C       0.8433   0.1319   0.4038     C
C       0.8433   0.8681   0.5962     C
C       0.8671   0.1207   0.4805     C
C       0.8671   0.8793   0.5195     C
H       0.8707   0.0424   0.6161     H
H       0.8707   0.9576   0.3839     H
H       0.8829   0.2858    0.161     H
H       0.8829   0.7142    0.839     H
C       0.8842   0.1421   0.2657     C
C       0.8842   0.8579   0.7343     C
O       0.8979   0.1192   0.8795     O
O       0.8979   0.8808   0.1205     O
C       0.9039   0.1278   0.9504     C
C       0.9039   0.8722   0.0496     C
H       0.9059   0.0358   0.7455     H
H       0.9059   0.9642   0.2545     H
C       0.9116   0.1323   0.3477     C
C       0.9116   0.8677   0.6523     C
H       0.9137   0.4166   0.1726     H
H       0.9137   0.5834   0.8274     H
C       0.9214    0.068   0.6348     C
C       0.9214    0.932   0.3652     C
H        0.922   0.4648   0.8826     H
H        0.922   0.5352   0.1174     H
C       0.9344   0.3054   0.1373     C
C       0.9344   0.6946   0.8627     C
C        0.943   0.0644   0.7124     C
C        0.943   0.9356   0.2876     C
O       0.9492   0.1404   0.2187     O
O       0.9492   0.8596   0.7813     O
C        0.952   0.3845   0.1442     C
C        0.952   0.6155   0.8558     C
C       0.9529   0.1159   0.5029     C
C       0.9529   0.8841   0.4971     C
H        0.955   0.3363   0.8697     H
H        0.955   0.6637   0.1303     H
Co     0.96782  0.13965  0.10233    Co
Co     0.96782  0.86035  0.89767    Co
C       0.9742   0.1089   0.5857     C
C       0.9742   0.8911   0.4143     C
O       0.9771   0.1223   0.9833     O
O       0.9771   0.8777   0.0167     O
C       0.9818   0.4491     0.88     C
C       0.9818   0.5509     0.12     C
N        0.986   0.2573   0.0996     N
N        0.986   0.7427   0.9004     N
C       0.9985   0.1279   0.3726     C
C       0.9985   0.8721   0.6274     C
