data_I
_chemical_name_common  '/home/zhangsd/repos/MofS-CGCNN/ML/data/TSD/clean_cifs/JIZJUZ_clean'
_cell_length_a 15.08830
_cell_length_b 17.53100
_cell_length_c 17.53100
_cell_angle_alpha 90.00000
_cell_angle_beta  90.00000
_cell_angle_gamma 90.00000
_space_group_name_H-M_alt      'P 1'


loop_
_space_group_symop_operation_xyz
  'x, y, z' 

loop_
_atom_site_label
_atom_site_fract_x
_atom_site_fract_y
_atom_site_fract_z
_atom_site_type_symbol
C       0.0007   0.3738     0.13     C
C       0.0007   0.6262     0.87     C
N      0.01358  0.40399  0.75985     N
N      0.01358  0.59601  0.24015     N
C       0.0226   0.3844   0.0539     C
C       0.0226   0.6156   0.9461     C
O      0.02308  0.48071   0.3776     O
O      0.02308  0.51929   0.6224     O
C       0.0231  0.08342  0.39443     C
C       0.0231  0.91658  0.60557     C
Co     0.02995   0.4005  0.64081    Co
Co     0.02995   0.5995  0.35919    Co
C       0.0439  0.00141  0.38622     C
C       0.0439  0.99859  0.61378     C
H       0.0465   0.3716   0.1671     H
H       0.0465   0.6284   0.8329     H
O      0.04659  0.28276   0.6437     O
O      0.04659  0.71724   0.3563     O
C       0.0524   0.3624   0.8849     C
C       0.0524   0.6376   0.1151     C
C       0.0587  0.21006  0.43553     C
C       0.0587  0.78994  0.56447     C
C       0.0687   0.3696   0.8084     C
C       0.0687   0.6304   0.1916     C
C       0.0791  0.13322   0.4321     C
C       0.0791  0.86678   0.5679     C
H       0.0829   0.3905   0.0395     H
H       0.0829   0.6095   0.9605     H
C       0.0869  0.15294   0.6336     C
C       0.0869  0.84706   0.3664     C
H        0.093   0.3355   0.9163     H
H        0.093   0.6645   0.0837     H
C      0.09771  0.44841  0.37585     C
C      0.09771  0.55159  0.62415     C
H       0.0983   0.2431   0.4617     H
H       0.0983   0.7569   0.5383     H
O      0.10577  0.37791  0.38737     O
O      0.10577  0.62209  0.61263     O
C       0.1098  0.23523  0.64339     C
C       0.1098  0.76477  0.35661     C
H       0.1222   0.3489   0.7888     H
H       0.1222   0.6511   0.2112     H
C       0.1316   0.0207   0.6228     C
H       0.1316   0.1147   0.4557     H
H       0.1316   0.8853   0.5443     H
C       0.1316   0.9793   0.3772     C
C       0.1544  0.09901    0.632     C
C       0.1544  0.90099    0.368     C
H       0.1576   0.4841   0.2384     H
H       0.1576   0.5159   0.7616     H
O      0.15839   0.4258  0.64054     O
O      0.15839   0.5742  0.35946     O
H        0.177   0.0169   0.3771     H
H        0.177   0.9831   0.6229     H
C       0.1798  0.49611   0.3542     C
C       0.1798  0.50389   0.6458     C
O      0.19172    0.251  0.64939     O
O      0.19172    0.749  0.35061     O
C       0.2066   0.4733   0.2735     C
C       0.2066   0.5267   0.7265     C
H       0.2146   0.1141   0.6368     H
H       0.2146   0.8859   0.3632     H
H       0.2203   0.4187   0.2722     H
H       0.2203   0.5813   0.7278     H
H       0.2294   0.4842   0.3902     H
H       0.2294   0.5158   0.6098     H
H       0.2411    0.258   0.5026     H
H       0.2411    0.742   0.4974     H
Co        0.25  0.35121  0.64879    Co
Co        0.25  0.64879  0.35121    Co
H       0.2589   0.4974    0.742     H
H       0.2589   0.5026    0.258     H
H       0.2706   0.3902   0.4842     H
H       0.2706   0.6098   0.5158     H
H       0.2797   0.2722   0.4187     H
H       0.2797   0.7278   0.5813     H
H       0.2854   0.3632   0.8859     H
H       0.2854   0.6368   0.1141     H
C       0.2934   0.2735   0.4733     C
C       0.2934   0.7265   0.5267     C
O      0.30828  0.35061    0.749     O
O      0.30828  0.64939    0.251     O
C       0.3202   0.3542  0.49611     C
C       0.3202   0.6458  0.50389     C
H        0.323   0.3771   0.0169     H
H        0.323   0.6229   0.9831     H
O      0.34161  0.35946   0.5742     O
O      0.34161  0.64054   0.4258     O
H       0.3424   0.2384   0.4841     H
H       0.3424   0.7616   0.5159     H
C       0.3456    0.368  0.90099     C
C       0.3456    0.632  0.09901     C
C       0.3684   0.3772   0.9793     C
H       0.3684   0.4557   0.1147     H
H       0.3684   0.5443   0.8853     H
C       0.3684   0.6228   0.0207     C
H       0.3778   0.2112   0.6511     H
H       0.3778   0.7888   0.3489     H
C       0.3902  0.35661  0.76477     C
C       0.3902  0.64339  0.23523     C
O      0.39423  0.38737  0.37791     O
O      0.39423  0.61263  0.62209     O
H       0.4017   0.4617   0.2431     H
H       0.4017   0.5383   0.7569     H
C      0.40229  0.37585  0.44841     C
C      0.40229  0.62415  0.55159     C
H        0.407   0.0837   0.6645     H
H        0.407   0.9163   0.3355     H
C       0.4131   0.3664  0.84706     C
C       0.4131   0.6336  0.15294     C
H       0.4171   0.0395   0.3905     H
H       0.4171   0.9605   0.6095     H
C       0.4209   0.4321  0.13322     C
C       0.4209   0.5679  0.86678     C
C       0.4313   0.1916   0.6304     C
C       0.4313   0.8084   0.3696     C
C       0.4413  0.43553  0.21006     C
C       0.4413  0.56447  0.78994     C
C       0.4476   0.1151   0.6376     C
C       0.4476   0.8849   0.3624     C
O      0.45341   0.3563  0.71724     O
O      0.45341   0.6437  0.28276     O
H       0.4535   0.1671   0.3716     H
H       0.4535   0.8329   0.6284     H
C       0.4561  0.38622  0.00141     C
C       0.4561  0.61378  0.99859     C
Co     0.47005  0.35919   0.5995    Co
Co     0.47005  0.64081   0.4005    Co
C       0.4769  0.39443  0.08342     C
C       0.4769  0.60557  0.91658     C
O      0.47692   0.3776  0.48071     O
O      0.47692   0.6224  0.51929     O
C       0.4774   0.0539   0.3844     C
C       0.4774   0.9461   0.6156     C
N      0.48642  0.24015  0.59601     N
N      0.48642  0.75985  0.40399     N
C       0.4993     0.13   0.3738     C
C       0.4993     0.87   0.6262     C
C       0.5007   0.3738     0.87     C
C       0.5007   0.6262     0.13     C
N      0.51358  0.40399  0.24015     N
N      0.51358  0.59601  0.75985     N
C       0.5226   0.3844   0.9461     C
C       0.5226   0.6156   0.0539     C
O      0.52308  0.48071   0.6224     O
O      0.52308  0.51929   0.3776     O
C       0.5231  0.08342  0.60557     C
C       0.5231  0.91658  0.39443     C
Co     0.52995   0.4005  0.35919    Co
Co     0.52995   0.5995  0.64081    Co
C       0.5439  0.00141  0.61378     C
C       0.5439  0.99859  0.38622     C
H       0.5465   0.3716   0.8329     H
H       0.5465   0.6284   0.1671     H
O      0.54659  0.28276   0.3563     O
O      0.54659  0.71724   0.6437     O
C       0.5524   0.3624   0.1151     C
C       0.5524   0.6376   0.8849     C
C       0.5587  0.21006  0.56447     C
C       0.5587  0.78994  0.43553     C
C       0.5687   0.3696   0.1916     C
C       0.5687   0.6304   0.8084     C
C       0.5791  0.13322   0.5679     C
C       0.5791  0.86678   0.4321     C
H       0.5829   0.3905   0.9605     H
H       0.5829   0.6095   0.0395     H
C       0.5869  0.15294   0.3664     C
C       0.5869  0.84706   0.6336     C
H        0.593   0.3355   0.0837     H
H        0.593   0.6645   0.9163     H
C      0.59771  0.44841  0.62415     C
C      0.59771  0.55159  0.37585     C
H       0.5983   0.2431   0.5383     H
H       0.5983   0.7569   0.4617     H
O      0.60577  0.37791  0.61263     O
O      0.60577  0.62209  0.38737     O
C       0.6098  0.23523  0.35661     C
C       0.6098  0.76477  0.64339     C
H       0.6222   0.3489   0.2112     H
H       0.6222   0.6511   0.7888     H
C       0.6316   0.0207   0.3772     C
H       0.6316   0.1147   0.5443     H
H       0.6316   0.8853   0.4557     H
C       0.6316   0.9793   0.6228     C
C       0.6544  0.09901    0.368     C
C       0.6544  0.90099    0.632     C
H       0.6576   0.4841   0.7616     H
H       0.6576   0.5159   0.2384     H
O      0.65839   0.4258  0.35946     O
O      0.65839   0.5742  0.64054     O
H        0.677   0.0169   0.6229     H
H        0.677   0.9831   0.3771     H
C       0.6798  0.49611   0.6458     C
C       0.6798  0.50389   0.3542     C
O      0.69172    0.251  0.35061     O
O      0.69172    0.749  0.64939     O
C       0.7066   0.4733   0.7265     C
C       0.7066   0.5267   0.2735     C
H       0.7146   0.1141   0.3632     H
H       0.7146   0.8859   0.6368     H
H       0.7203   0.4187   0.7278     H
H       0.7203   0.5813   0.2722     H
H       0.7294   0.4842   0.6098     H
H       0.7294   0.5158   0.3902     H
H       0.7411    0.258   0.4974     H
H       0.7411    0.742   0.5026     H
Co        0.75  0.35121  0.35121    Co
Co        0.75  0.64879  0.64879    Co
H       0.7589   0.4974    0.258     H
H       0.7589   0.5026    0.742     H
H       0.7706   0.3902   0.5158     H
H       0.7706   0.6098   0.4842     H
H       0.7797   0.2722   0.5813     H
H       0.7797   0.7278   0.4187     H
H       0.7854   0.3632   0.1141     H
H       0.7854   0.6368   0.8859     H
C       0.7934   0.2735   0.5267     C
C       0.7934   0.7265   0.4733     C
O      0.80828  0.35061    0.251     O
O      0.80828  0.64939    0.749     O
C       0.8202   0.3542  0.50389     C
C       0.8202   0.6458  0.49611     C
H        0.823   0.3771   0.9831     H
H        0.823   0.6229   0.0169     H
O      0.84161  0.35946   0.4258     O
O      0.84161  0.64054   0.5742     O
H       0.8424   0.2384   0.5159     H
H       0.8424   0.7616   0.4841     H
C       0.8456    0.368  0.09901     C
C       0.8456    0.632  0.90099     C
C       0.8684   0.3772   0.0207     C
H       0.8684   0.4557   0.8853     H
H       0.8684   0.5443   0.1147     H
C       0.8684   0.6228   0.9793     C
H       0.8778   0.2112   0.3489     H
H       0.8778   0.7888   0.6511     H
C       0.8902  0.35661  0.23523     C
C       0.8902  0.64339  0.76477     C
O      0.89423  0.38737  0.62209     O
O      0.89423  0.61263  0.37791     O
H       0.9017   0.4617   0.7569     H
H       0.9017   0.5383   0.2431     H
C      0.90229  0.37585  0.55159     C
C      0.90229  0.62415  0.44841     C
H        0.907   0.0837   0.3355     H
H        0.907   0.9163   0.6645     H
C       0.9131   0.3664  0.15294     C
C       0.9131   0.6336  0.84706     C
H       0.9171   0.0395   0.6095     H
H       0.9171   0.9605   0.3905     H
C       0.9209   0.4321  0.86678     C
C       0.9209   0.5679  0.13322     C
C       0.9313   0.1916   0.3696     C
C       0.9313   0.8084   0.6304     C
C       0.9413  0.43553  0.78994     C
C       0.9413  0.56447  0.21006     C
C       0.9476   0.1151   0.3624     C
C       0.9476   0.8849   0.6376     C
O      0.95341   0.3563  0.28276     O
O      0.95341   0.6437  0.71724     O
H       0.9535   0.1671   0.6284     H
H       0.9535   0.8329   0.3716     H
C       0.9561  0.38622  0.99859     C
C       0.9561  0.61378  0.00141     C
Co     0.97005  0.35919   0.4005    Co
Co     0.97005  0.64081   0.5995    Co
C       0.9769  0.39443  0.91658     C
C       0.9769  0.60557  0.08342     C
O      0.97692   0.3776  0.51929     O
O      0.97692   0.6224  0.48071     O
C       0.9774   0.0539   0.6156     C
C       0.9774   0.9461   0.3844     C
N      0.98642  0.24015  0.40399     N
N      0.98642  0.75985  0.59601     N
C       0.9993     0.13   0.6262     C
C       0.9993     0.87   0.3738     C
