data_I
_chemical_name_common  '/home/zhangsd/repos/MofS-CGCNN/ML/data/TSD/clean_cifs/JOCWIJ_clean'
_cell_length_a 21.13730
_cell_length_b 21.13730
_cell_length_c 21.13730
_cell_angle_alpha 90.00000
_cell_angle_beta  90.00000
_cell_angle_gamma 90.00000
_space_group_name_H-M_alt      'P 1'


loop_
_space_group_symop_operation_xyz
  'x, y, z' 

loop_
_atom_site_label
_atom_site_fract_x
_atom_site_fract_y
_atom_site_fract_z
_atom_site_type_symbol
C       0.0068   0.3515   0.6485     C
C       0.0068   0.6485   0.3515     C
H       0.0079   0.3438   0.6037     H
H       0.0079   0.3963   0.6562     H
H       0.0079   0.6037   0.3438     H
H       0.0079   0.6562   0.3963     H
N        0.053  0.32554  0.32554     N
N        0.053  0.67446  0.67446     N
O       0.0596  0.28035  0.71965     O
O       0.0596  0.71965  0.28035     O
C       0.0644   0.3217   0.6783     C
C       0.0644   0.6783   0.3217     C
H       0.0698   0.2486   0.3795     H
H       0.0698   0.3795   0.2486     H
H       0.0698   0.6205   0.7514     H
H       0.0698   0.7514   0.6205     H
C       0.0822   0.2735   0.3454     C
C       0.0822   0.3454   0.2735     C
C       0.0822   0.6546   0.7265     C
C       0.0822   0.7265   0.6546     C
H       0.1037   0.1562   0.4921     H
H       0.1037   0.4921   0.1562     H
H       0.1037   0.5079   0.8438     H
H       0.1037   0.8438   0.5079     H
O       0.1158  0.34333  0.65667     O
O       0.1158  0.65667  0.34333     O
H       0.1205   0.2514   0.5698     H
H       0.1205   0.4302   0.7486     H
H       0.1205   0.5698   0.2514     H
H       0.1205   0.7486   0.4302     H
N      0.13138  0.26276   0.3089     N
N      0.13138   0.3089  0.26276     N
N      0.13138   0.6911  0.73724     N
N      0.13138  0.73724   0.6911     N
C       0.1485   0.1485   0.4932     C
C       0.1485   0.4932   0.1485     C
C       0.1485   0.5068   0.8515     C
C       0.1485   0.8515   0.5068     C
C       0.1546   0.2265   0.5822     C
C       0.1546   0.4178   0.7735     C
C       0.1546   0.5822   0.2265     C
C       0.1546   0.7735   0.4178     C
H       0.1562   0.1037   0.4921     H
H       0.1562   0.4921   0.1037     H
H       0.1562   0.5079   0.8963     H
H       0.1562   0.8963   0.5079     H
O      0.15667  0.15667   0.3842     O
O      0.15667   0.3842  0.15667     O
O      0.15667   0.6158  0.84333     O
O      0.15667  0.84333   0.6158     O
N      0.17446  0.17446    0.553     N
N      0.17446    0.447  0.82554     N
N      0.17446    0.553  0.17446     N
N      0.17446  0.82554    0.447     N
C       0.1783   0.1783   0.4356     C
C       0.1783   0.4356   0.1783     C
C       0.1783   0.5644   0.8217     C
C       0.1783   0.8217   0.5644     C
N       0.1911  0.23724  0.63138     N
N       0.1911  0.36862  0.76276     N
N       0.1911  0.63138  0.23724     N
N       0.1911  0.76276  0.36862     N
Cu     0.19312   0.3067   0.6933    Cu
Cu     0.19312   0.6933   0.3067    Cu
Cu      0.1933   0.1933  0.30688    Cu
Cu      0.1933  0.30688   0.1933    Cu
Cu      0.1933  0.69312   0.8067    Cu
Cu      0.1933   0.8067  0.69312    Cu
O      0.21965  0.21965   0.4404     O
O      0.21965   0.4404  0.21965     O
O      0.21965   0.5596  0.78035     O
O      0.21965  0.78035   0.5596     O
C       0.2265   0.1546   0.5822     C
C       0.2265   0.4178   0.8454     C
C       0.2265   0.5822   0.1546     C
C       0.2265   0.8454   0.4178     C
H        0.233    0.233    0.767     H
H        0.233    0.767    0.233     H
N      0.23724   0.1911  0.63138     N
N      0.23724  0.36862   0.8089     N
N      0.23724  0.63138   0.1911     N
N      0.23724   0.8089  0.36862     N
O       0.2432   0.2432   0.2432     O
O       0.2432   0.7568   0.7568     O
H       0.2486   0.0698   0.3795     H
H       0.2486   0.3795   0.0698     H
H       0.2486   0.6205   0.9302     H
H       0.2486   0.9302   0.6205     H
H       0.2514   0.1205   0.5698     H
H       0.2514   0.4302   0.8795     H
H       0.2514   0.5698   0.1205     H
H       0.2514   0.8795   0.4302     H
O       0.2568   0.2568   0.7432     O
O       0.2568   0.7432   0.2568     O
N      0.26276  0.13138   0.3089     N
N      0.26276   0.3089  0.13138     N
N      0.26276   0.6911  0.86862     N
N      0.26276  0.86862   0.6911     N
H        0.267    0.267    0.267     H
H        0.267    0.733    0.733     H
C       0.2735   0.0822   0.3454     C
C       0.2735   0.3454   0.0822     C
C       0.2735   0.6546   0.9178     C
C       0.2735   0.9178   0.6546     C
O      0.28035   0.0596  0.71965     O
O      0.28035  0.28035   0.9404     O
O      0.28035  0.71965   0.0596     O
O      0.28035   0.9404  0.28035     O
Cu      0.3067  0.19312   0.6933    Cu
Cu      0.3067   0.3067  0.80688    Cu
Cu      0.3067   0.6933  0.19312    Cu
Cu      0.3067  0.80688   0.3067    Cu
Cu     0.30688   0.1933   0.1933    Cu
Cu     0.30688   0.8067   0.8067    Cu
N       0.3089  0.13138  0.26276     N
N       0.3089  0.26276  0.13138     N
N       0.3089  0.73724  0.86862     N
N       0.3089  0.86862  0.73724     N
C       0.3217   0.0644   0.6783     C
C       0.3217   0.3217   0.9356     C
C       0.3217   0.6783   0.0644     C
C       0.3217   0.9356   0.3217     C
N      0.32554    0.053  0.32554     N
N      0.32554  0.32554    0.053     N
N      0.32554  0.67446    0.947     N
N      0.32554    0.947  0.67446     N
O      0.34333   0.1158  0.65667     O
O      0.34333  0.34333   0.8842     O
O      0.34333  0.65667   0.1158     O
O      0.34333   0.8842  0.34333     O
H       0.3438   0.0079   0.6037     H
H       0.3438   0.3963   0.9921     H
H       0.3438   0.6037   0.0079     H
H       0.3438   0.9921   0.3963     H
C       0.3454   0.0822   0.2735     C
C       0.3454   0.2735   0.0822     C
C       0.3454   0.7265   0.9178     C
C       0.3454   0.9178   0.7265     C
C       0.3515   0.0068   0.6485     C
C       0.3515   0.3515   0.9932     C
C       0.3515   0.6485   0.0068     C
C       0.3515   0.9932   0.3515     C
N      0.36862   0.1911  0.76276     N
N      0.36862  0.23724   0.8089     N
N      0.36862  0.76276   0.1911     N
N      0.36862   0.8089  0.23724     N
H       0.3795   0.0698   0.2486     H
H       0.3795   0.2486   0.0698     H
H       0.3795   0.7514   0.9302     H
H       0.3795   0.9302   0.7514     H
O       0.3842  0.15667  0.15667     O
O       0.3842  0.84333  0.84333     O
H       0.3963   0.0079   0.6562     H
H       0.3963   0.3438   0.9921     H
H       0.3963   0.6562   0.0079     H
H       0.3963   0.9921   0.3438     H
C       0.4178   0.1546   0.7735     C
C       0.4178   0.2265   0.8454     C
C       0.4178   0.7735   0.1546     C
C       0.4178   0.8454   0.2265     C
H       0.4302   0.1205   0.7486     H
H       0.4302   0.2514   0.8795     H
H       0.4302   0.7486   0.1205     H
H       0.4302   0.8795   0.2514     H
C       0.4356   0.1783   0.1783     C
C       0.4356   0.8217   0.8217     C
O       0.4404  0.21965  0.21965     O
O       0.4404  0.78035  0.78035     O
N        0.447  0.17446  0.82554     N
N        0.447  0.82554  0.17446     N
H       0.4921   0.1037   0.1562     H
H       0.4921   0.1562   0.1037     H
H       0.4921   0.8438   0.8963     H
H       0.4921   0.8963   0.8438     H
C       0.4932   0.1485   0.1485     C
C       0.4932   0.8515   0.8515     C
C       0.5068   0.1485   0.8515     C
C       0.5068   0.8515   0.1485     C
H       0.5079   0.1037   0.8438     H
H       0.5079   0.1562   0.8963     H
H       0.5079   0.8438   0.1037     H
H       0.5079   0.8963   0.1562     H
N        0.553  0.17446  0.17446     N
N        0.553  0.82554  0.82554     N
O       0.5596  0.21965  0.78035     O
O       0.5596  0.78035  0.21965     O
C       0.5644   0.1783   0.8217     C
C       0.5644   0.8217   0.1783     C
H       0.5698   0.1205   0.2514     H
H       0.5698   0.2514   0.1205     H
H       0.5698   0.7486   0.8795     H
H       0.5698   0.8795   0.7486     H
C       0.5822   0.1546   0.2265     C
C       0.5822   0.2265   0.1546     C
C       0.5822   0.7735   0.8454     C
C       0.5822   0.8454   0.7735     C
H       0.6037   0.0079   0.3438     H
H       0.6037   0.3438   0.0079     H
H       0.6037   0.6562   0.9921     H
H       0.6037   0.9921   0.6562     H
O       0.6158  0.15667  0.84333     O
O       0.6158  0.84333  0.15667     O
H       0.6205   0.0698   0.7514     H
H       0.6205   0.2486   0.9302     H
H       0.6205   0.7514   0.0698     H
H       0.6205   0.9302   0.2486     H
N      0.63138   0.1911  0.23724     N
N      0.63138  0.23724   0.1911     N
N      0.63138  0.76276   0.8089     N
N      0.63138   0.8089  0.76276     N
C       0.6485   0.0068   0.3515     C
C       0.6485   0.3515   0.0068     C
C       0.6485   0.6485   0.9932     C
C       0.6485   0.9932   0.6485     C
C       0.6546   0.0822   0.7265     C
C       0.6546   0.2735   0.9178     C
C       0.6546   0.7265   0.0822     C
C       0.6546   0.9178   0.2735     C
H       0.6562   0.0079   0.3963     H
H       0.6562   0.3963   0.0079     H
H       0.6562   0.6037   0.9921     H
H       0.6562   0.9921   0.6037     H
O      0.65667   0.1158  0.34333     O
O      0.65667  0.34333   0.1158     O
O      0.65667  0.65667   0.8842     O
O      0.65667   0.8842  0.65667     O
N      0.67446    0.053  0.67446     N
N      0.67446  0.32554    0.947     N
N      0.67446  0.67446    0.053     N
N      0.67446    0.947  0.32554     N
C       0.6783   0.0644   0.3217     C
C       0.6783   0.3217   0.0644     C
C       0.6783   0.6783   0.9356     C
C       0.6783   0.9356   0.6783     C
N       0.6911  0.13138  0.73724     N
N       0.6911  0.26276  0.86862     N
N       0.6911  0.73724  0.13138     N
N       0.6911  0.86862  0.26276     N
Cu     0.69312   0.1933   0.8067    Cu
Cu     0.69312   0.8067   0.1933    Cu
Cu      0.6933  0.19312   0.3067    Cu
Cu      0.6933   0.3067  0.19312    Cu
Cu      0.6933   0.6933  0.80688    Cu
Cu      0.6933  0.80688   0.6933    Cu
O      0.71965   0.0596  0.28035     O
O      0.71965  0.28035   0.0596     O
O      0.71965  0.71965   0.9404     O
O      0.71965   0.9404  0.71965     O
C       0.7265   0.0822   0.6546     C
C       0.7265   0.3454   0.9178     C
C       0.7265   0.6546   0.0822     C
C       0.7265   0.9178   0.3454     C
H        0.733    0.267    0.733     H
H        0.733    0.733    0.267     H
N      0.73724  0.13138   0.6911     N
N      0.73724   0.3089  0.86862     N
N      0.73724   0.6911  0.13138     N
N      0.73724  0.86862   0.3089     N
O       0.7432   0.2568   0.2568     O
O       0.7432   0.7432   0.7432     O
H       0.7486   0.1205   0.4302     H
H       0.7486   0.4302   0.1205     H
H       0.7486   0.5698   0.8795     H
H       0.7486   0.8795   0.5698     H
H       0.7514   0.0698   0.6205     H
H       0.7514   0.3795   0.9302     H
H       0.7514   0.6205   0.0698     H
H       0.7514   0.9302   0.3795     H
O       0.7568   0.2432   0.7568     O
O       0.7568   0.7568   0.2432     O
N      0.76276   0.1911  0.36862     N
N      0.76276  0.36862   0.1911     N
N      0.76276  0.63138   0.8089     N
N      0.76276   0.8089  0.63138     N
H        0.767    0.233    0.233     H
H        0.767    0.767    0.767     H
C       0.7735   0.1546   0.4178     C
C       0.7735   0.4178   0.1546     C
C       0.7735   0.5822   0.8454     C
C       0.7735   0.8454   0.5822     C
O      0.78035  0.21965   0.5596     O
O      0.78035   0.4404  0.78035     O
O      0.78035   0.5596  0.21965     O
O      0.78035  0.78035   0.4404     O
Cu      0.8067   0.1933  0.69312    Cu
Cu      0.8067  0.30688   0.8067    Cu
Cu      0.8067  0.69312   0.1933    Cu
Cu      0.8067   0.8067  0.30688    Cu
Cu     0.80688   0.3067   0.3067    Cu
Cu     0.80688   0.6933   0.6933    Cu
N       0.8089  0.23724  0.36862     N
N       0.8089  0.36862  0.23724     N
N       0.8089  0.63138  0.76276     N
N       0.8089  0.76276  0.63138     N
C       0.8217   0.1783   0.5644     C
C       0.8217   0.4356   0.8217     C
C       0.8217   0.5644   0.1783     C
C       0.8217   0.8217   0.4356     C
N      0.82554  0.17446    0.447     N
N      0.82554    0.447  0.17446     N
N      0.82554    0.553  0.82554     N
N      0.82554  0.82554    0.553     N
O      0.84333  0.15667   0.6158     O
O      0.84333   0.3842  0.84333     O
O      0.84333   0.6158  0.15667     O
O      0.84333  0.84333   0.3842     O
H       0.8438   0.1037   0.5079     H
H       0.8438   0.4921   0.8963     H
H       0.8438   0.5079   0.1037     H
H       0.8438   0.8963   0.4921     H
C       0.8454   0.2265   0.4178     C
C       0.8454   0.4178   0.2265     C
C       0.8454   0.5822   0.7735     C
C       0.8454   0.7735   0.5822     C
C       0.8515   0.1485   0.5068     C
C       0.8515   0.4932   0.8515     C
C       0.8515   0.5068   0.1485     C
C       0.8515   0.8515   0.4932     C
N      0.86862  0.26276   0.6911     N
N      0.86862   0.3089  0.73724     N
N      0.86862   0.6911  0.26276     N
N      0.86862  0.73724   0.3089     N
H       0.8795   0.2514   0.4302     H
H       0.8795   0.4302   0.2514     H
H       0.8795   0.5698   0.7486     H
H       0.8795   0.7486   0.5698     H
O       0.8842  0.34333  0.34333     O
O       0.8842  0.65667  0.65667     O
H       0.8963   0.1562   0.5079     H
H       0.8963   0.4921   0.8438     H
H       0.8963   0.5079   0.1562     H
H       0.8963   0.8438   0.4921     H
C       0.9178   0.2735   0.6546     C
C       0.9178   0.3454   0.7265     C
C       0.9178   0.6546   0.2735     C
C       0.9178   0.7265   0.3454     C
H       0.9302   0.2486   0.6205     H
H       0.9302   0.3795   0.7514     H
H       0.9302   0.6205   0.2486     H
H       0.9302   0.7514   0.3795     H
C       0.9356   0.3217   0.3217     C
C       0.9356   0.6783   0.6783     C
O       0.9404  0.28035  0.28035     O
O       0.9404  0.71965  0.71965     O
N        0.947  0.32554  0.67446     N
N        0.947  0.67446  0.32554     N
H       0.9921   0.3438   0.3963     H
H       0.9921   0.3963   0.3438     H
H       0.9921   0.6037   0.6562     H
H       0.9921   0.6562   0.6037     H
C       0.9932   0.3515   0.3515     C
C       0.9932   0.6485   0.6485     C
