data_I
_chemical_name_common  '/home/zhangsd/repos/MofS-CGCNN/ML/data/TSD/clean_cifs/JOQSOZ_clean'
_cell_length_a 16.27170
_cell_length_b 12.66840
_cell_length_c 17.60210
_cell_angle_alpha 90.00000
_cell_angle_beta  112.52300
_cell_angle_gamma 90.00000
_space_group_name_H-M_alt      'P 1'


loop_
_space_group_symop_operation_xyz
  'x, y, z' 

loop_
_atom_site_label
_atom_site_fract_x
_atom_site_fract_y
_atom_site_fract_z
_atom_site_type_symbol
H        0.001   0.2292   0.5342     H
H        0.001   0.2708   0.0342     H
N      0.03229   0.6193  0.05068     N
N      0.03229   0.8807  0.55068     N
C       0.0463   0.6875   0.9986     C
C       0.0463   0.8125   0.4986     C
Cu     0.08008  0.11289  0.44143    Cu
Cu     0.08008  0.38711  0.94143    Cu
H       0.0915   0.5107   0.1301     H
H       0.0915   0.9893   0.6301     H
C       0.0998   0.5591   0.0939     C
C       0.0998   0.9409   0.5939     C
C       0.1273   0.6994   0.9909     C
C       0.1273   0.8006   0.4909     C
H       0.1342   0.7493    0.456     H
H       0.1342   0.7507    0.956     H
H       0.1345   0.0558   0.3101     H
H       0.1345   0.4442   0.8101     H
C      0.18233   0.5635  0.08876     C
C      0.18233   0.9365  0.58876     C
N      0.18722   0.0997   0.4255     N
N      0.18722   0.4003   0.9255     N
C       0.1886   0.0706   0.3527     C
C       0.1886   0.4294   0.8527     C
C        0.198   0.6345  0.03538     C
C        0.198   0.8655  0.53538     C
H       0.2276   0.5189   0.1211     H
H       0.2276   0.9811   0.6211     H
H        0.235   0.6925   0.9196     H
H        0.235   0.8075   0.4196     H
H       0.2422   0.6861   0.8002     H
H       0.2422   0.8139   0.3002     H
H       0.2572   0.7457   0.1863     H
H       0.2572   0.7543   0.6863     H
H        0.261   0.0419   0.2851     H
H        0.261   0.4581   0.7851     H
C      0.26441   0.0614  0.33711     C
C      0.26441   0.4386  0.83711     C
C       0.2665    0.119   0.4854     C
C       0.2665    0.381   0.9854     C
H       0.2677   0.1388   0.5367     H
H       0.2677   0.3612   0.0367     H
N      0.28228     0.64  0.03287     N
N      0.28228     0.86  0.53287     N
C      0.28745   0.6774  0.96411     C
C      0.28745   0.8226  0.46411     C
C      0.29449   0.7204  0.80507     C
C      0.29449   0.7796  0.30507     C
C      0.30439   0.7379   0.2367     C
C      0.30439   0.7621   0.7367     C
C      0.34598   0.1113   0.4757     C
C      0.34598   0.3887   0.9757     C
C      0.34728   0.0815  0.40006     C
C      0.34728   0.4185  0.90006     C
N      0.36386  0.69378   0.9567     N
N      0.36386  0.80622   0.4567     N
C      0.36447   0.7307  0.88194     C
C      0.36447   0.7693  0.38194     C
H       0.3735   0.1134   0.6944     H
H       0.3735   0.3866   0.1944     H
N      0.37673   0.6871  0.23733     N
N      0.37673   0.8129  0.73733     N
H       0.3778   0.6338   0.5692     H
H       0.3778   0.8662   0.0692     H
H        0.379   0.5159   0.6678     H
H        0.379   0.9841   0.1678     H
H       0.3839   0.2313   0.7967     H
H       0.3839   0.2687   0.2967     H
H       0.3859    0.521   0.7997     H
H       0.3859    0.979   0.2997     H
Cu     0.38634  0.60409  0.13292    Cu
Cu     0.38634  0.89591  0.63292    Cu
H        0.399   0.1259   0.5196     H
H        0.399   0.3741   0.0196     H
C      0.42549   0.1171  0.74133     C
C      0.42549   0.3829  0.24133     C
N      0.42786  0.07895  0.39037     N
N      0.42786  0.42105  0.89037     N
C       0.4279   0.6303  0.61785     C
C       0.4279   0.8697  0.11785     C
C      0.42806   0.5591  0.67683     C
C      0.42806   0.9409  0.17683     C
C        0.432   0.1872  0.80365     C
C        0.432   0.3128  0.30365     C
C      0.43456   0.0197  0.33138     C
C      0.43456   0.4803  0.83138     C
C      0.44037   0.7196  0.38224     C
C      0.44037   0.7804  0.88224     C
C      0.44361   0.6808  0.31005     C
C      0.44361   0.8192  0.81005     C
Cu     0.47472  0.67199  0.04906    Cu
Cu     0.47472  0.82801  0.54906    Cu
H       0.4895   0.7122   0.4313     H
H       0.4895   0.7878   0.9313     H
N      0.49263   0.5155  0.18461     N
N      0.49263   0.9845  0.68461     N
H       0.4958   0.6483   0.3126     H
H       0.4958   0.8517   0.8126     H
N      0.49599   0.6948  0.62662     N
N      0.49599   0.8052  0.12662     N
C      0.49736   0.0523  0.74943     C
C      0.49736   0.4477  0.24943     C
C      0.50264   0.5523  0.75057     C
C      0.50264   0.9477  0.25057     C
N      0.50401   0.1948  0.87338     N
N      0.50401   0.3052  0.37338     N
H       0.5042   0.1483   0.1874     H
H       0.5042   0.3517   0.6874     H
N      0.50737   0.0155  0.31539     N
N      0.50737   0.4845  0.81539     N
H       0.5105   0.2122   0.0687     H
H       0.5105   0.2878   0.5687     H
Cu     0.52528  0.17199  0.45094    Cu
Cu     0.52528  0.32801  0.95094    Cu
C      0.55639   0.1808  0.18995     C
C      0.55639   0.3192  0.68995     C
C      0.55963   0.2196  0.11776     C
C      0.55963   0.2804  0.61776     C
C      0.56544   0.5197  0.16862     C
C      0.56544   0.9803  0.66862     C
C        0.568   0.6872  0.69635     C
C        0.568   0.8128  0.19635     C
C      0.57194   0.0591  0.82317     C
C      0.57194   0.4409  0.32317     C
C       0.5721   0.1303  0.88215     C
C       0.5721   0.3697  0.38215     C
N      0.57214  0.57895  0.10963     N
N      0.57214  0.92105  0.60963     N
C      0.57451   0.6171  0.75867     C
C      0.57451   0.8829  0.25867     C
H        0.601   0.6259   0.9804     H
H        0.601   0.8741   0.4804     H
Cu     0.61366  0.10409  0.36708    Cu
Cu     0.61366  0.39591  0.86708    Cu
H       0.6141    0.021   0.7003     H
H       0.6141    0.479   0.2003     H
H       0.6161   0.7313   0.7033     H
H       0.6161   0.7687   0.2033     H
H        0.621   0.0159   0.8322     H
H        0.621   0.4841   0.3322     H
H       0.6222   0.1338   0.9308     H
H       0.6222   0.3662   0.4308     H
N      0.62327   0.1871  0.26267     N
N      0.62327   0.3129  0.76267     N
H       0.6265   0.6134   0.8056     H
H       0.6265   0.8866   0.3056     H
C      0.63553   0.2307  0.61806     C
C      0.63553   0.2693  0.11806     C
N      0.63614  0.19378   0.5433     N
N      0.63614  0.30622   0.0433     N
C      0.65272   0.5815  0.09994     C
C      0.65272   0.9185  0.59994     C
C      0.65402   0.6113   0.0243     C
C      0.65402   0.8887   0.5243     C
C      0.69561   0.2379   0.2633     C
C      0.69561   0.2621   0.7633     C
C      0.70551   0.2204  0.69493     C
C      0.70551   0.2796  0.19493     C
C      0.71255   0.1774  0.53589     C
C      0.71255   0.3226  0.03589     C
N      0.71772     0.14  0.46713     N
N      0.71772     0.36  0.96713     N
H       0.7323   0.6388   0.9633     H
H       0.7323   0.8612   0.4633     H
C       0.7335    0.619   0.0146     C
C       0.7335    0.881   0.5146     C
C      0.73559   0.5614  0.16289     C
C      0.73559   0.9386  0.66289     C
H        0.739   0.5419   0.2149     H
H        0.739   0.9581   0.7149     H
H       0.7428   0.2457   0.3137     H
H       0.7428   0.2543   0.8137     H
H       0.7578   0.1861   0.6998     H
H       0.7578   0.3139   0.1998     H
H        0.765   0.1925   0.5804     H
H        0.765   0.3075   0.0804     H
H       0.7724   0.0189   0.3789     H
H       0.7724   0.4811   0.8789     H
C        0.802   0.1345  0.46462     C
C        0.802   0.3655  0.96462     C
C       0.8114   0.5706   0.1473     C
C       0.8114   0.9294   0.6473     C
N      0.81278   0.5997   0.0745     N
N      0.81278   0.9003   0.5745     N
C      0.81767   0.0635  0.41124     C
C      0.81767   0.4365  0.91124     C
H       0.8655   0.5558   0.1899     H
H       0.8655   0.9442   0.6899     H
H       0.8658   0.2493    0.044     H
H       0.8658   0.2507    0.544     H
C       0.8727   0.1994   0.5091     C
C       0.8727   0.3006   0.0091     C
C       0.9002   0.0591   0.4061     C
C       0.9002   0.4409   0.9061     C
H       0.9085   0.0107   0.3699     H
H       0.9085   0.4893   0.8699     H
Cu     0.91992  0.61289  0.05857    Cu
Cu     0.91992  0.88711  0.55857    Cu
C       0.9537   0.1875   0.5014     C
C       0.9537   0.3125   0.0014     C
N      0.96771   0.1193  0.44932     N
N      0.96771   0.3807  0.94932     N
H        0.999   0.7292   0.9658     H
H        0.999   0.7708   0.4658     H
