data_I
_chemical_name_common  '/home/zhangsd/repos/MofS-CGCNN/ML/data/TSD/clean_cifs/JOQZUM_clean'
_cell_length_a 13.06990
_cell_length_b 13.75920
_cell_length_c 13.89640
_cell_angle_alpha 113.72800
_cell_angle_beta  111.88300
_cell_angle_gamma 101.36500
_space_group_name_H-M_alt      'P 1'


loop_
_space_group_symop_operation_xyz
  'x, y, z' 

loop_
_atom_site_label
_atom_site_fract_x
_atom_site_fract_y
_atom_site_fract_z
_atom_site_type_symbol
C       0.0107   0.6993    0.686     C
N      0.02252  0.97288  0.17038     N
C       0.0293   0.9751      0.8     C
N      0.03632   0.4775  0.79766     N
N      0.04208  0.29065   0.9536     N
C      0.04405  0.17555   0.4169     C
N      0.04448  0.39307   0.3407     N
C       0.1173   0.4951   0.8842     C
Mn     0.11791  0.86153  0.13124    Mn
C       0.1196   0.3699   0.9796     C
Mo     0.12071  0.87071  0.74142    Mo
Mn     0.12251  0.55167   0.3548    Mn
N      0.12365  0.86947   0.9794     N
C      0.12613  0.87033  0.89846     C
C      0.12715  0.75865   0.5831     C
N      0.12732  0.69462  0.49924     N
N      0.12808  0.19538  0.50076     N
C       0.1753   0.9867    0.686     C
N      0.20378  0.05237   0.6593     N
N       0.2209   0.5656    0.265     N
N      0.22907  0.76231  0.13496     N
C       0.2404   0.5503   0.1882     C
C       0.2435   0.6782    0.102     C
N      0.26134  0.32016  0.79766     N
C       0.2669   0.3891   0.8842     C
Mn     0.26771  0.19687   0.6452    Mn
Mo     0.26917  0.51917  0.03834    Mo
C       0.2707   0.8249      0.8     C
C      0.27233  0.02813  0.89846     C
N      0.35214   0.8025  0.82962     N
N      0.35575  0.10993   0.9794     N
C       0.3585   0.4238    0.102     C
C         0.36   0.6097   0.9796     C
N      0.40589  0.37265  0.13496     N
N      0.41152  0.66295   0.9536     N
C       0.4478   0.6379   0.1882     C
N       0.4559   0.3006    0.735     N
Mn     0.48667  0.73029  0.86876    Mn
Mn     0.51333  0.26971  0.13124    Mn
N       0.5441   0.6994    0.265     N
C       0.5522   0.3621   0.8118     C
N      0.58848  0.33705   0.0464     N
N      0.59411  0.62735  0.86504     N
C         0.64   0.3903   0.0204     C
C       0.6415   0.5762    0.898     C
N      0.64425  0.89007   0.0206     N
N      0.64786   0.1975  0.17038     N
C      0.72767  0.97187  0.10154     C
C       0.7293   0.1751      0.2     C
Mo     0.73083  0.48083  0.96166    Mo
Mn     0.73229  0.80313   0.3548    Mn
C       0.7331   0.6109   0.1158     C
N      0.73866  0.67984  0.20234     N
C       0.7565   0.3218    0.898     C
C       0.7596   0.4497   0.8118     C
N      0.77093  0.23769  0.86504     N
N       0.7791   0.4344    0.735     N
N      0.79622  0.94763   0.3407     N
C       0.8247   0.0133    0.314     C
N      0.87192  0.80462  0.49924     N
N      0.87268  0.30538  0.50076     N
C      0.87285  0.24135   0.4169     C
C      0.87387  0.12967  0.10154     C
N      0.87635  0.13053   0.0206     N
Mn     0.87749  0.44833   0.6452    Mn
Mo     0.87929  0.12929  0.25858    Mo
C       0.8804   0.6301   0.0204     C
Mn     0.88209  0.13847  0.86876    Mn
C       0.8827   0.5049   0.1158     C
N      0.95552  0.60693   0.6593     N
C      0.95595  0.82445   0.5831     C
N      0.95792  0.70935   0.0464     N
N      0.96368   0.5225  0.20234     N
C       0.9707   0.0249      0.2     C
N      0.97748  0.02712  0.82962     N
C       0.9893   0.3007    0.314     C
