data_I
_chemical_name_common  '/home/zhangsd/repos/MofS-CGCNN/ML/data/TSD/clean_cifs/JOXPIX_clean'
_cell_length_a 13.84750
_cell_length_b 15.17190
_cell_length_c 16.47700
_cell_angle_alpha 75.79800
_cell_angle_beta  81.44900
_cell_angle_gamma 63.07400
_space_group_name_H-M_alt      'P 1'


loop_
_space_group_symop_operation_xyz
  'x, y, z' 

loop_
_atom_site_label
_atom_site_fract_x
_atom_site_fract_y
_atom_site_fract_z
_atom_site_type_symbol
Ag       6e-05   0.5367  0.35714    Ag
C       0.0133   0.9238   0.8806     C
H       0.0161   0.7255   0.3869     H
C       0.0226   0.3277   0.9087     C
O       0.0296    0.971   0.8116     O
O       0.0313   0.4065   0.8929     O
C       0.0433   0.2397   0.6469     C
N       0.0445   0.7714   0.1459     N
O       0.0531   0.7368     0.87     O
C        0.054   0.6801   0.1432     C
H       0.0604   0.1017   0.6451     H
O       0.0699   0.2499   0.9647     O
O       0.0752   0.0766    0.088     O
N       0.0832   0.2911   0.6747     N
Ag     0.08765  0.08627  0.92252    Ag
C       0.0885   0.1356   0.6672     C
H       0.0889   0.3057    0.415     H
H       0.1064   0.8384   0.1949     H
C       0.1123   0.8616   0.9345     C
C        0.113   0.7756   0.1915     C
O       0.1147   0.4426   0.2484     O
N       0.1204   0.4047   0.4484     N
O       0.1293   0.5474   0.5667     O
Gd     0.13212  0.20129  0.10366    Gd
C        0.133   0.6902    0.916     C
C       0.1355   0.5929    0.188     C
C       0.1356   0.3126   0.4455     C
N       0.1458   0.9163   0.9656     N
C       0.1521   0.4858   0.1876     C
C       0.1659   0.7561   0.9524     C
C       0.1677   0.2394    0.724     C
C        0.168   0.5192   0.4965     C
N       0.1714   0.0826   0.7178     N
O       0.1811    0.572   0.4311     O
O       0.1876   0.5987    0.932     O
C       0.1907    0.411   0.4937     C
O       0.1908   0.3865   0.7108     O
C       0.1946   0.6892   0.2346     C
N       0.2041   0.5984    0.233     N
C       0.2105   0.1353    0.746     C
O       0.2105   0.4495   0.1271     O
C       0.2149   0.2981   0.7528     C
C       0.2186   0.2263   0.4862     C
O        0.222   0.7588    0.732     O
H       0.2247   0.1634   0.4837     H
C       0.2314    0.866   0.0146     C
Ag     0.23787  0.91289   0.7399    Ag
H       0.2427    0.695   0.2645     H
Gd     0.24415  0.51869  0.67679    Gd
H       0.2517   0.6723   0.5541     H
N       0.2522   0.7075   0.0007     N
H       0.2554   0.9025   0.0375     H
O       0.2693   0.2573   0.8149     O
O       0.2748   0.9654   0.5833     O
C       0.2761   0.3247   0.5323     C
O       0.2812   0.0397    0.878     O
C       0.2843   0.7631   0.0319     C
N       0.2896   0.2315   0.5286     N
C       0.3011   0.6781   0.7567     C
H       0.3042   0.2626   0.2696     H
C       0.3056   0.0701   0.8044     C
O       0.3064   0.6153   0.5644     O
H       0.3088   0.5812   0.5296     H
O       0.3182   0.5916   0.7467     O
Ag      0.3302  0.46181  0.30488    Ag
Ag     0.33509    0.533  0.02744    Ag
H       0.3436   0.7311   0.0659     H
O       0.3506   0.4156   0.5778     O
C       0.3602   0.3277     0.58     C
C        0.364   0.9307    0.546     C
C       0.3642   0.2305   0.3029     C
N        0.371   0.7725   0.8101     N
O        0.381   0.7451   0.5625     O
O       0.3826   0.9455   0.4686     O
C       0.3835   0.6802   0.8059     C
H       0.3886   0.0906   0.3018     H
O        0.399   0.0481   0.7712     O
N       0.3993   0.2859   0.3309     N
C       0.4149   0.1272   0.3223     C
O       0.4248   0.2491   0.6193     O
Ag     0.42727  0.09333  0.59894    Ag
H       0.4348   0.3017   0.0699     H
H       0.4366   0.8402   0.8544     H
C       0.4411   0.7774   0.8536     C
O       0.4439    0.446   0.9098     O
O       0.4511   0.5559   0.2071     O
C       0.4635    0.868   0.6007     C
C       0.4664    0.593   0.8486     C
N       0.4671    0.399   0.1063     N
O       0.4685   0.3929   0.3973     O
C       0.4728   0.6994   0.5924     C
C       0.4798   0.3079   0.1026     C
C       0.4861   0.2374   0.3796     C
C       0.4868    0.485   0.8495     C
N       0.4986   0.9225   0.6298     N
N       0.5014   0.0775   0.3702     N
C       0.5132    0.515   0.1505     C
C       0.5139   0.7626   0.6204     C
C       0.5202   0.6921   0.8974     C
C       0.5272   0.3006   0.4076     C
O       0.5315   0.6071   0.6027     O
N       0.5329    0.601   0.8937     N
C       0.5336    0.407   0.1514     C
C       0.5365    0.132   0.3993     C
O       0.5489   0.4441   0.7929     O
O       0.5561    0.554   0.0902     O
C       0.5589   0.2226   0.1464     C
H       0.5634   0.1598   0.1456     H
H       0.5652   0.6983   0.9301     H
Ag     0.57273  0.90667  0.40106    Ag
O       0.5752   0.7509   0.3807     O
C       0.5851   0.8728   0.6777     C
N       0.6007   0.7141   0.6691     N
O        0.601   0.9519   0.2288     O
H       0.6114   0.9094   0.6982     H
C       0.6165   0.3198   0.1941     C
O       0.6174   0.0545   0.5314     O
O        0.619   0.2549   0.4375     O
N        0.629   0.2275   0.1899     N
C       0.6358   0.7695   0.6971     C
C        0.636   0.0693    0.454     C
C       0.6398   0.6723     0.42     C
O       0.6494   0.5844   0.4222     O
H       0.6564   0.2689   0.9341     H
Ag     0.66491    0.467  0.97256    Ag
Ag      0.6698  0.53819  0.69512    Ag
O       0.6818   0.4084   0.2533     O
H       0.6912   0.4188   0.4704     H
O       0.6936   0.3847   0.4356     O
C       0.6944   0.9299   0.1956     C
H       0.6958   0.7374   0.7304     H
C       0.6989   0.3219   0.2433     C
N       0.7104   0.7685   0.4714     N
C       0.7157   0.2369   0.9681     C
O       0.7188   0.9603    0.122     O
C       0.7239   0.6753   0.4677     C
O       0.7252   0.0346   0.4167     O
O       0.7307   0.7427   0.1851     O
H       0.7446   0.0975   0.9625     H
N       0.7478   0.2925   0.9993     N
H       0.7483   0.3277   0.4459     H
Gd     0.75585  0.48131  0.32321    Gd
H       0.7573    0.305   0.7355     H
Ag     0.76213  0.08711   0.2601    Ag
C       0.7686    0.134   0.9854     C
H       0.7753   0.8366   0.5163     H
O        0.778   0.2412    0.268     O
C       0.7814   0.7737   0.5138     C
C       0.7851   0.7019   0.2472     C
O       0.7895   0.5505   0.8729     O
C       0.7895   0.8647    0.254     C
N       0.7959   0.4016    0.767     N
C       0.8054   0.3108   0.7654     C
O       0.8092   0.6135   0.2892     O
C       0.8093    0.589   0.5063     C
O       0.8124   0.4013    0.068     O
O       0.8189    0.428   0.5689     O
N       0.8286   0.9174   0.2822     N
C        0.832   0.4808   0.5035     C
C       0.8323   0.7606    0.276     C
C       0.8341   0.2439   0.0476     C
C       0.8479   0.5142   0.8124     C
N       0.8542   0.0837   0.0344     N
C       0.8644   0.6874   0.5545     C
C       0.8645   0.4071    0.812     C
C        0.867   0.3098    0.084     C
Gd     0.86788  0.79871  0.89634    Gd
O       0.8707   0.4526   0.4333     O
N       0.8796   0.5953   0.5516     N
O       0.8853   0.5574   0.7516     O
C        0.887   0.2244   0.8085     C
C       0.8877   0.1384   0.0655     C
H       0.8936   0.1616   0.8051     H
H       0.9111   0.6943    0.585     H
C       0.9115   0.8644   0.3328     C
Ag     0.91235  0.91373  0.07748    Ag
N       0.9168   0.7089   0.3253     N
O       0.9248   0.9234    0.912     O
O       0.9301   0.7501   0.0353     O
H       0.9396   0.8983   0.3549     H
C        0.946   0.3199   0.8568     C
O       0.9469   0.2632     0.13     O
N       0.9555   0.2286   0.8541     N
C       0.9567   0.7603   0.3531     C
O       0.9687   0.5935   0.1071     O
O       0.9704    0.029   0.1884     O
C       0.9774   0.6723   0.0913     C
H       0.9839   0.2745   0.6131     H
C       0.9867   0.0762   0.1194     C
Ag     0.99994   0.4633  0.64286    Ag
