data_I
_chemical_name_common  '/home/zhangsd/repos/MofS-CGCNN/ML/data/TSD/clean_cifs/JUFREJ_clean'
_cell_length_a 15.89560
_cell_length_b 15.89560
_cell_length_c  7.60280
_cell_angle_alpha 90.00000
_cell_angle_beta  90.00000
_cell_angle_gamma 120.00000
_space_group_name_H-M_alt      'P 1'


loop_
_space_group_symop_operation_xyz
  'x, y, z' 

loop_
_atom_site_label
_atom_site_fract_x
_atom_site_fract_y
_atom_site_fract_z
_atom_site_type_symbol
H       0.0172   0.5088   0.6476     H
C       0.0328   0.3565   0.0576     C
C       0.0334   0.6764   0.0581     C
C       0.0354   0.5175   0.0708     C
O      0.03946  0.67834   0.6554     O
O      0.03986  0.36123   0.6556     O
O      0.07236  0.75909   0.9925     O
O      0.07272  0.31331   0.9923     O
C        0.076   0.4636   0.0114     C
C       0.0764   0.6128   0.0108     C
N       0.1524   0.5011   0.9017     N
N       0.1524   0.6512   0.9014     N
Gd      0.1851  0.37021  0.75515    Gd
Gd     0.18511   0.8149  0.75515    Gd
C       0.1866   0.5932   0.8507     C
O        0.187   0.8125   0.4236     O
O       0.1875   0.3745   0.4236     O
N       0.2327   0.4657   0.4135     N
N        0.233   0.7673   0.4135     N
H       0.2388   0.6193    0.773     H
O      0.24059  0.92728   0.9923     O
O      0.24091  0.31327   0.9925     O
O        0.254   0.7457   0.2741     O
O       0.2543   0.5083   0.2741     O
O       0.2553  0.74425   0.5618     O
O      0.25575  0.51105   0.5618     O
O      0.31327  0.07236   0.4925     O
O      0.31331  0.24059   0.4923     O
O      0.32137  0.96014   0.6556     O
O      0.32166  0.36112   0.6554     O
C       0.3236    0.357   0.0581     C
C       0.3237   0.9672   0.0576     C
N       0.3487   0.8476   0.9017     N
N       0.3488   0.5012   0.9014     N
C       0.3565   0.3237   0.5576     C
C        0.357   0.0334   0.5581     C
O      0.36112  0.03946   0.1554     O
O      0.36123  0.32137   0.1556     O
Gd     0.37021  0.18511  0.25515    Gd
O       0.3745    0.187   0.9236     O
H       0.3805   0.7612    0.773     H
H       0.3807   0.6195    0.773     H
C       0.3872   0.4636   0.0108     C
C       0.3876    0.924   0.0114     C
C       0.4066   0.8134   0.8507     C
C       0.4068   0.5934   0.8507     C
C       0.4636   0.0764   0.5108     C
C       0.4636   0.3876   0.5114     C
N       0.4657    0.233   0.9135     N
C       0.4821   0.9646   0.0708     C
C       0.4825   0.5179   0.0708     C
O      0.48895   0.7447   0.5618     O
H       0.4912   0.5084   0.6476     H
H       0.4916   0.9828   0.6476     H
O       0.4917    0.746   0.2741     O
N       0.4988   0.8476   0.9014     N
N       0.4989   0.6513   0.9017     N
N       0.5011   0.3487   0.4017     N
N       0.5012   0.1524   0.4014     N
O       0.5083    0.254   0.7741     O
H       0.5084   0.0172   0.1476     H
H       0.5088   0.4916   0.1476     H
O      0.51105   0.2553   0.0618     O
C       0.5175   0.4821   0.5708     C
C       0.5179   0.0354   0.5708     C
N       0.5343    0.767   0.4135     N
C       0.5364   0.6124   0.0114     C
C       0.5364   0.9236   0.0108     C
C       0.5932   0.4066   0.3507     C
C       0.5934   0.1866   0.3507     C
C       0.6124    0.076   0.5114     C
C       0.6128   0.5364   0.5108     C
H       0.6193   0.3805    0.273     H
H       0.6195   0.2388    0.273     H
O       0.6255    0.813   0.4236     O
Gd     0.62979  0.81489  0.75515    Gd
O      0.63877  0.67863   0.6556     O
O      0.63888  0.96054   0.6554     O
C        0.643   0.9666   0.0581     C
C       0.6435   0.6763   0.0576     C
N       0.6512   0.4988   0.4014     N
N       0.6513   0.1524   0.4017     N
C       0.6763   0.0328   0.5576     C
C       0.6764    0.643   0.5581     C
O      0.67834  0.63888   0.1554     O
O      0.67863  0.03986   0.1556     O
O      0.68669  0.75941   0.9923     O
O      0.68673  0.92764   0.9925     O
O      0.74425  0.48895   0.0618     O
O       0.7447  0.25575   0.0618     O
O       0.7457   0.4917   0.7741     O
O        0.746   0.2543   0.7741     O
O      0.75909  0.68673   0.4925     O
O      0.75941  0.07272   0.4923     O
H       0.7612   0.3807    0.273     H
N        0.767   0.2327   0.9135     N
N       0.7673   0.5343   0.9135     N
O       0.8125   0.6255   0.9236     O
O        0.813   0.1875   0.9236     O
C       0.8134   0.4068   0.3507     C
Gd     0.81489   0.1851  0.25515    Gd
Gd      0.8149  0.62979  0.25515    Gd
N       0.8476   0.3488   0.4014     N
N       0.8476   0.4989   0.4017     N
C       0.9236   0.3872   0.5108     C
C        0.924   0.5364   0.5114     C
O      0.92728  0.68669   0.4923     O
O      0.92764  0.24091   0.4925     O
O      0.96014  0.63877   0.1556     O
O      0.96054  0.32166   0.1554     O
C       0.9646   0.4825   0.5708     C
C       0.9666   0.3236   0.5581     C
C       0.9672   0.6435   0.5576     C
H       0.9828   0.4912   0.1476     H
