data_I
_chemical_name_common  '/home/zhangsd/repos/MofS-CGCNN/ML/data/TSD/clean_cifs/JUNBUR_clean'
_cell_length_a 10.24000
_cell_length_b 13.77200
_cell_length_c 16.70000
_cell_angle_alpha 90.00000
_cell_angle_beta  127.04600
_cell_angle_gamma 90.00000
_space_group_name_H-M_alt      'P 1'


loop_
_space_group_symop_operation_xyz
  'x, y, z' 

loop_
_atom_site_label
_atom_site_fract_x
_atom_site_fract_y
_atom_site_fract_z
_atom_site_type_symbol
C       0.0015   0.1152   0.3695     C
C       0.0015   0.3848   0.8695     C
C        0.009   0.2011   0.2466     C
C        0.009   0.2989   0.7466     C
H       0.0515   0.0753   0.4256     H
H       0.0515   0.4247   0.9256     H
H       0.0645   0.2188   0.2207     H
H       0.0645   0.2812   0.7207     H
C       0.0872    0.144   0.3339     C
C       0.0872    0.356   0.8339     C
C       0.1484   0.7305   0.2999     C
C       0.1484   0.7695   0.7999     C
C       0.1582   0.6454    0.178     C
C       0.1582   0.8546    0.678     C
O       0.1711   0.7059   0.9408     O
O       0.1711   0.7941   0.4408     O
O       0.2008   0.5471   0.0773     O
O       0.2008   0.9529   0.5773     O
C       0.2331   0.7039   0.2609     C
C       0.2331   0.7961   0.7609     C
C       0.2347   0.7097   0.8957     C
C       0.2347   0.7903   0.3957     C
C       0.2535   0.6145   0.1402     C
C       0.2535   0.8855   0.6402     C
C         0.26   0.1096   0.3821     C
C         0.26   0.3904   0.8821     C
O       0.3195   0.0458   0.4467     O
O       0.3195   0.4542   0.9467     O
O       0.3334    0.148   0.3516     O
O       0.3334    0.352   0.8516     O
H       0.3391   0.7259   0.2914     H
H       0.3391   0.7741   0.7914     H
O        0.366   0.6668   0.9273     O
O        0.366   0.8332   0.4273     O
O       0.3876   0.6569   0.1743     O
O       0.3876   0.8431   0.6743     O
Cd      0.4178  0.57587  0.06186    Cd
Cd      0.4178  0.92413  0.56186    Cd
Cd      0.5822  0.07587  0.43814    Cd
Cd      0.5822  0.42413  0.93814    Cd
O       0.6124   0.1569   0.3257     O
O       0.6124   0.3431   0.8257     O
O        0.634   0.1668   0.5727     O
O        0.634   0.3332   0.0727     O
H       0.6609   0.2259   0.2086     H
H       0.6609   0.2741   0.7086     H
O       0.6666    0.648   0.1484     O
O       0.6666    0.852   0.6484     O
O       0.6805   0.5458   0.0533     O
O       0.6805   0.9542   0.5533     O
C         0.74   0.6096   0.1179     C
C         0.74   0.8904   0.6179     C
C       0.7465   0.1145   0.3598     C
C       0.7465   0.3855   0.8598     C
C       0.7653   0.2097   0.6043     C
C       0.7653   0.2903   0.1043     C
C       0.7669   0.2039   0.2391     C
C       0.7669   0.2961   0.7391     C
O       0.7992   0.0471   0.4227     O
O       0.7992   0.4529   0.9227     O
O       0.8289   0.2059   0.5592     O
O       0.8289   0.2941   0.0592     O
C       0.8418   0.1454    0.322     C
C       0.8418   0.3546    0.822     C
C       0.8516   0.2305   0.2001     C
C       0.8516   0.2695   0.7001     C
C       0.9128    0.644   0.1661     C
C       0.9128    0.856   0.6661     C
H       0.9355   0.7188   0.2793     H
H       0.9355   0.7812   0.7793     H
H       0.9485   0.5753   0.0744     H
H       0.9485   0.9247   0.5744     H
C        0.991   0.7011   0.2534     C
C        0.991   0.7989   0.7534     C
C       0.9985   0.6152   0.1305     C
C       0.9985   0.8848   0.6305     C
