data_I
_chemical_name_common  '/home/zhangsd/repos/MofS-CGCNN/ML/data/TSD/clean_cifs/JUYROM_clean'
_cell_length_a 11.47200
_cell_length_b 19.94000
_cell_length_c 12.00250
_cell_angle_alpha 90.00000
_cell_angle_beta  101.47500
_cell_angle_gamma 90.00000
_space_group_name_H-M_alt      'P 1'


loop_
_space_group_symop_operation_xyz
  'x, y, z' 

loop_
_atom_site_label
_atom_site_fract_x
_atom_site_fract_y
_atom_site_fract_z
_atom_site_type_symbol
H       0.0513   0.1027   0.9157     H
H       0.0513   0.3973   0.4157     H
C       0.0598  0.08119   0.0816     C
C       0.0598  0.41881   0.5816     C
H       0.0615   0.5617   0.2514     H
H       0.0615   0.9383   0.7514     H
C       0.0686  0.58321    0.418     C
C       0.0686  0.91679    0.918     C
C       0.1036  0.09314   0.9835     C
C       0.1036  0.40686   0.4835     C
C       0.1133  0.57011     0.32     C
C       0.1133  0.92989     0.82     C
H       0.1207   0.0578   0.2457     H
H       0.1207   0.4422   0.7457     H
H       0.1288   0.6072    0.583     H
H       0.1288   0.8928    0.083     H
C       0.1442  0.06613   0.1773     C
C       0.1442  0.43387   0.6773     C
C       0.1531  0.59725   0.5155     C
C       0.1531  0.90275   0.0155     C
C       0.2233  0.09086   0.9864     C
C       0.2233  0.40914   0.4864     C
C       0.2337  0.56969   0.3255     C
C       0.2337  0.93031   0.8255     C
H       0.2497   0.1004   0.9197     H
H       0.2497   0.3996   0.4197     H
H       0.2608   0.5598   0.2593     H
H       0.2608   0.9402   0.7593     H
C       0.2628  0.06328   0.1724     C
C       0.2628  0.43672   0.6724     C
C       0.2718  0.59655   0.5126     C
C       0.2718  0.90345   0.0126     C
N      0.30447  0.07586  0.07875     N
N      0.30447  0.42414  0.57875     N
N      0.31487  0.58248  0.41948     N
N      0.31487  0.91752  0.91948     N
H       0.3169   0.0519   0.2382     H
H       0.3169   0.4481   0.7382     H
H       0.3257   0.6064   0.5793     H
H       0.3257   0.8936   0.0793     H
O      0.45846  0.06986   0.9115     O
O      0.45846  0.43014   0.4115     O
O       0.4588  0.09331  0.41853     O
O       0.4588  0.40669  0.91853     O
H       0.4602   0.0277   0.5979     H
H       0.4602   0.4723   0.0979     H
C       0.4618  0.11891   0.5248     C
C       0.4618  0.38109   0.0248     C
C       0.4622  0.07356   0.6124     C
C       0.4622  0.42644   0.1124     C
C       0.4655  0.09697  0.72148     C
C       0.4655  0.40303  0.22148     C
C       0.4669  0.18695   0.5463     C
H       0.4669    0.217    0.487     H
H       0.4669    0.283    0.987     H
C       0.4669  0.31305   0.0463     C
C      0.46805  0.04777   0.8162     C
C      0.46805  0.45223   0.3162     C
O       0.4695  0.19355  0.27137     O
O       0.4695  0.30645  0.77137     O
C       0.4704  0.16535  0.74405     C
C       0.4704  0.33465  0.24405     C
C        0.472   0.2109   0.6561     C
C        0.472   0.2891   0.1561     C
H       0.4725   0.1807   0.8176     H
H       0.4725   0.3193   0.3176     H
H       0.4728   0.1226   0.3768     H
H       0.4728   0.3774   0.8768     H
O      0.47863  0.51335   0.2943     O
O      0.47863  0.98665   0.7943     O
C       0.4791  0.21475   0.1782     C
C       0.4791  0.28525   0.6782     C
O      0.49499  0.17937  0.09589     O
O      0.49499  0.32063  0.59589     O
Zn     0.49513  0.08161  0.08149    Zn
Zn     0.49513  0.41839  0.58149    Zn
Zn     0.50487  0.58161  0.41851    Zn
Zn     0.50487  0.91839  0.91851    Zn
O      0.50501  0.67937  0.40411     O
O      0.50501  0.82063  0.90411     O
C       0.5209  0.71475   0.3218     C
C       0.5209  0.78525   0.8218     C
O      0.52137  0.01335   0.2057     O
O      0.52137  0.48665   0.7057     O
H       0.5272   0.6226   0.1232     H
H       0.5272   0.8774   0.6232     H
H       0.5275   0.6807   0.6824     H
H       0.5275   0.8193   0.1824     H
C        0.528   0.7109   0.8439     C
C        0.528   0.7891   0.3439     C
C       0.5296  0.66535  0.75595     C
C       0.5296  0.83465  0.25595     C
O       0.5305  0.69355  0.22863     O
O       0.5305  0.80645  0.72863     O
C      0.53195  0.54777   0.6838     C
C      0.53195  0.95223   0.1838     C
C       0.5331  0.68695   0.9537     C
H       0.5331    0.717    0.013     H
H       0.5331    0.783    0.513     H
C       0.5331  0.81305   0.4537     C
C       0.5345  0.59697  0.77852     C
C       0.5345  0.90303  0.27852     C
C       0.5378  0.57356   0.8876     C
C       0.5378  0.92644   0.3876     C
C       0.5382  0.61891   0.9752     C
C       0.5382  0.88109   0.4752     C
H       0.5398   0.5277   0.9021     H
H       0.5398   0.9723   0.4021     H
O       0.5412  0.59331  0.08147     O
O       0.5412  0.90669  0.58147     O
O      0.54154  0.56986   0.5885     O
O      0.54154  0.93014   0.0885     O
H       0.6743   0.1064   0.9207     H
H       0.6743   0.3936   0.4207     H
H       0.6831   0.5519   0.2618     H
H       0.6831   0.9481   0.7618     H
N      0.68513  0.08248  0.08052     N
N      0.68513  0.41752  0.58052     N
N      0.69553  0.57586  0.42125     N
N      0.69553  0.92414  0.92125     N
C       0.7282  0.09655   0.9874     C
C       0.7282  0.40345   0.4874     C
C       0.7372  0.56328   0.3276     C
C       0.7372  0.93672   0.8276     C
H       0.7392   0.0598   0.2407     H
H       0.7392   0.4402   0.7407     H
H       0.7503   0.6004   0.5803     H
H       0.7503   0.8996   0.0803     H
C       0.7663  0.06969   0.1745     C
C       0.7663  0.43031   0.6745     C
C       0.7767  0.59086   0.5136     C
C       0.7767  0.90914   0.0136     C
C       0.8469  0.09725   0.9845     C
C       0.8469  0.40275   0.4845     C
C       0.8558  0.56613   0.3227     C
C       0.8558  0.93387   0.8227     C
H       0.8712   0.1072    0.917     H
H       0.8712   0.3928    0.417     H
H       0.8793   0.5578   0.2543     H
H       0.8793   0.9422   0.7543     H
C       0.8867  0.07011     0.18     C
C       0.8867  0.42989     0.68     C
C       0.8964  0.59314   0.5165     C
C       0.8964  0.90686   0.0165     C
C       0.9314  0.08321    0.082     C
C       0.9314  0.41679    0.582     C
H       0.9385   0.0617   0.2486     H
H       0.9385   0.4383   0.7486     H
C       0.9402  0.58119   0.4184     C
C       0.9402  0.91881   0.9184     C
H       0.9487   0.6027   0.5843     H
H       0.9487   0.8973   0.0843     H
