data_I
_chemical_name_common  '/home/zhangsd/repos/MofS-CGCNN/ML/data/TSD/clean_cifs/KATDAM_clean'
_cell_length_a 11.20290
_cell_length_b 21.07470
_cell_length_c 21.07470
_cell_angle_alpha 120.00000
_cell_angle_beta  90.00000
_cell_angle_gamma 90.00000
_space_group_name_H-M_alt      'P 1'


loop_
_space_group_symop_operation_xyz
  'x, y, z' 

loop_
_atom_site_label
_atom_site_fract_x
_atom_site_fract_y
_atom_site_fract_z
_atom_site_type_symbol
H      0.00383      0.1   0.4923     H
H      0.00767   0.7565   0.8444     H
N      0.01267    0.492    0.362     N
H      0.01487   0.8533    0.219     H
C      0.01687   0.7213   0.7952     C
H      0.02037   0.9374   0.4324     H
C      0.02053   0.4851   0.7144     C
H      0.02323   0.4465   0.6053     H
C      0.02493   0.2051   0.5162     C
H       0.0276   0.2665   0.3405     H
H       0.0281   0.7927   0.0637     H
C      0.03263   0.5239   0.8481     C
C      0.03807   0.8792   0.2679     C
C      0.04237   0.9254   0.3852     C
C      0.04503   0.4354   0.6412     C
C      0.04557   0.6151     0.65     C
C      0.04877   0.5052   0.3105     C
H      0.04987   0.5357   0.2052     H
C      0.05023   0.4695   0.7688     C
H       0.0529   0.6746   0.0375     H
C      0.05643   0.1369   0.4988     C
C      0.05987   0.2648   0.1684     C
C      0.06167   0.5579   0.5711     C
C       0.0693   0.1995   0.8612     C
C       0.0796   0.2078   0.9737     C
H      0.08323   0.3293   0.5125     H
C      0.08573   0.9337    0.687     C
H      0.08787   0.3573   0.1635     H
O       0.0905   0.3833   0.0177     O
H      0.09347   0.1763   0.1794     H
C      0.09673   0.9535   0.6331     C
C      0.10243   0.3687   0.6211     C
C      0.10373   0.4014   0.7474     C
H       0.1057   0.2055   0.8249     H
Cd     0.10586  0.45263    0.429    Cd
H       0.1145   0.7001   0.2238     H
O      0.11893   0.1012   0.2505     O
H       0.1214   0.2181    0.016     H
H      0.12253   0.3894   0.7831     H
O       0.1246   0.3741   0.9102     O
C      0.12477   0.3253   0.1758     C
N      0.12753   0.2416   0.5207     N
C      0.12837   0.2187   0.1845     C
H      0.12847   0.5037   0.2975     H
C      0.12857    0.704   0.7648     C
C      0.12863   0.3527   0.6762     C
N       0.1337   0.2157   0.9219     N
C      0.13543   0.3195   0.5433     C
C      0.13707   0.9189   0.2943     C
N      0.14177   0.9476   0.3688     N
C      0.14297   0.6503   0.6939     C
O      0.14373   0.0169   0.5447     O
H       0.1438   0.7085   0.5613     H
N      0.14443   0.5582   0.8839     N
H       0.1504   0.8025   0.5294     H
C       0.1529   0.3634   0.9615     C
O      0.16097   0.5262   0.5492     O
H      0.16373   0.3081   0.6641     H
H       0.1646   0.6271   0.4994     H
H       0.1705   0.6077      0.1     H
H      0.17433   0.9121   0.7565     H
N      0.17933     0.13    0.492     N
H      0.18153   0.6343   0.8533     H
C      0.18353   0.9261   0.7213     C
H      0.18703    0.505   0.9374     H
C       0.1872   0.7707   0.4851     C
H       0.1899   0.8412   0.4465     H
C       0.1916   0.6889   0.2051     C
H      0.19427    0.926   0.2665     H
H      0.19477    0.729   0.7927     H
C       0.1993   0.6758   0.5239     C
C      0.20473   0.6113   0.8792     C
C      0.20903   0.5402   0.9254     C
C       0.2117   0.7942   0.4354     C
C      0.21223   0.9651   0.6151     C
C      0.21543   0.1947   0.5052     C
H      0.21653   0.3305   0.5357     H
C       0.2169   0.7007   0.4695     C
H      0.21957   0.6371   0.6746     H
C       0.2231   0.6381   0.1369     C
C      0.22653   0.0964   0.2648     C
C      0.22833   0.9868   0.5579     C
C      0.23597   0.3383   0.1995     C
C      0.24627   0.2341   0.2078     C
H       0.2499   0.8168   0.3293     H
C       0.2524   0.2467   0.9337     C
H      0.25453   0.1938   0.3573     H
O      0.25717   0.3656   0.3833     O
H      0.26013   0.9969   0.1763     H
C       0.2634   0.3204   0.9535     C
C       0.2691   0.7476   0.3687     C
C       0.2704    0.654   0.4014     C
H      0.27237   0.3806   0.2055     H
Cd     0.27252  0.02363  0.45263    Cd
H      0.28117   0.4763   0.7001     H
O       0.2856   0.8507   0.1012     O
H      0.28807   0.2021   0.2181     H
H       0.2892   0.6063   0.3894     H
O      0.29127   0.4639   0.3741     O
C      0.29143   0.1495   0.3253     C
N       0.2942   0.7209   0.2416     N
C      0.29503   0.0342   0.2187     C
H      0.29513   0.2062   0.5037     H
C      0.29523   0.9392    0.704     C
C       0.2953   0.6765   0.3527     C
N      0.30037   0.2938   0.2157     N
C       0.3021   0.7762   0.3195     C
C      0.30373   0.6246   0.9189     C
N      0.30843   0.5788   0.9476     N
C      0.30963   0.9564   0.6503     C
O       0.3104   0.4722   0.0169     O
H      0.31047   0.1472   0.7085     H
N       0.3111   0.6743   0.5582     N
H      0.31707   0.2731   0.8025     H
C      0.31957   0.4019   0.3634     C
O      0.32763    0.977   0.5262     O
H       0.3304    0.644   0.3081     H
H      0.33127   0.1277   0.6271     H
H      0.33717   0.5077   0.6077     H
H        0.341   0.1556   0.9121     H
N        0.346    0.638     0.13     N
H       0.3482    0.781   0.6343     H
C       0.3502   0.2048   0.9261     C
H       0.3537   0.5676    0.505     H
C      0.35387   0.2856   0.7707     C
H      0.35657   0.3947   0.8412     H
C      0.35827   0.4838   0.6889     C
H      0.36093   0.6595    0.926     H
H      0.36143   0.9363    0.729     H
C      0.36597   0.1519   0.6758     C
C       0.3714   0.7321   0.6113     C
C       0.3757   0.6148   0.5402     C
C      0.37837   0.3588   0.7942     C
C       0.3789     0.35   0.9651     C
C       0.3821   0.6895   0.1947     C
H       0.3832   0.7948   0.3305     H
C      0.38357   0.2312   0.7007     C
H      0.38623   0.9625   0.6371     H
C      0.38977   0.5012   0.6381     C
C       0.3932   0.8316   0.0964     C
C        0.395   0.4289   0.9868     C
C      0.40263   0.1388   0.3383     C
C      0.41293   0.0263   0.2341     C
H      0.41657   0.4875   0.8168     H
C      0.41907    0.313   0.2467     C
H       0.4212   0.8365   0.1938     H
O      0.42383   0.9823   0.3656     O
H       0.4268   0.8206   0.9969     H
C      0.43007   0.3669   0.3204     C
C      0.43577   0.3789   0.7476     C
C      0.43707   0.2526    0.654     C
H      0.43903   0.1751   0.3806     H
Cd     0.43919    0.571  0.02363    Cd
H      0.44783   0.7762   0.4763     H
O      0.45227   0.7495   0.8507     O
H      0.45473    0.984   0.2021     H
H      0.45587   0.2169   0.6063     H
O      0.45793   0.0898   0.4639     O
C       0.4581   0.8242   0.1495     C
N      0.46087   0.4793   0.7209     N
C       0.4617   0.8155   0.0342     C
H       0.4618   0.7025   0.2062     H
C       0.4619   0.2352   0.9392     C
C      0.46197   0.3238   0.6765     C
N      0.46703   0.0781   0.2938     N
C      0.46877   0.4567   0.7762     C
C       0.4704   0.7057   0.6246     C
N       0.4751   0.6312   0.5788     N
C       0.4763   0.3061   0.9564     C
O      0.47707   0.4553   0.4722     O
H      0.47713   0.4387   0.1472     H
N      0.47777   0.1161   0.6743     N
H      0.48373   0.4706   0.2731     H
C      0.48623   0.0385   0.4019     C
O       0.4943   0.4508    0.977     O
H      0.49707   0.3359    0.644     H
H      0.49793   0.5006   0.1277     H
H      0.50383      0.9   0.5077     H
H      0.50767   0.2435   0.1556     H
N      0.51267    0.508    0.638     N
H      0.51487   0.1467    0.781     H
C      0.51687   0.2787   0.2048     C
H      0.52037   0.0626   0.5676     H
C      0.52053   0.5149   0.2856     C
H      0.52323   0.5535   0.3947     H
C      0.52493   0.7949   0.4838     C
H       0.5276   0.7335   0.6595     H
H       0.5281   0.2073   0.9363     H
C      0.53263   0.4761   0.1519     C
C      0.53807   0.1208   0.7321     C
C      0.54237   0.0746   0.6148     C
C      0.54503   0.5646   0.3588     C
C      0.54557   0.3849     0.35     C
C      0.54877   0.4948   0.6895     C
H      0.54987   0.4643   0.7948     H
C      0.55023   0.5305   0.2312     C
H       0.5529   0.3254   0.9625     H
C      0.55643   0.8631   0.5012     C
C      0.55987   0.7352   0.8316     C
C      0.56167   0.4421   0.4289     C
C       0.5693   0.8005   0.1388     C
C       0.5796   0.7922   0.0263     C
H      0.58323   0.6707   0.4875     H
C      0.58573   0.0663    0.313     C
H      0.58787   0.6427   0.8365     H
O       0.5905   0.6167   0.9823     O
H      0.59347   0.8237   0.8206     H
C      0.59673   0.0465   0.3669     C
C      0.60243   0.6313   0.3789     C
C      0.60373   0.5986   0.2526     C
H       0.6057   0.7945   0.1751     H
Cd     0.60586  0.54737    0.571    Cd
H       0.6145   0.2999   0.7762     H
O      0.61893   0.8988   0.7495     O
H       0.6214   0.7819    0.984     H
H      0.62253   0.6106   0.2169     H
O       0.6246   0.6259   0.0898     O
C      0.62477   0.6747   0.8242     C
N      0.62753   0.7584   0.4793     N
C      0.62837   0.7813   0.8155     C
H      0.62847   0.4963   0.7025     H
C      0.62857    0.296   0.2352     C
C      0.62863   0.6473   0.3238     C
N       0.6337   0.7843   0.0781     N
C      0.63543   0.6805   0.4567     C
C      0.63707   0.0811   0.7057     C
N      0.64177   0.0524   0.6312     N
C      0.64297   0.3497   0.3061     C
O      0.64373   0.9831   0.4553     O
H       0.6438   0.2915   0.4387     H
N      0.64443   0.4418   0.1161     N
H       0.6504   0.1975   0.4706     H
C       0.6529   0.6366   0.0385     C
O      0.66097   0.4738   0.4508     O
H      0.66373   0.6919   0.3359     H
H       0.6646   0.3729   0.5006     H
H       0.6705   0.3923      0.9     H
H      0.67433   0.0879   0.2435     H
N      0.67933     0.87    0.508     N
H      0.68153   0.3657   0.1467     H
C      0.68353   0.0739   0.2787     C
H      0.68703    0.495   0.0626     H
C       0.6872   0.2293   0.5149     C
H       0.6899   0.1588   0.5535     H
C       0.6916   0.3111   0.7949     C
H      0.69427    0.074   0.7335     H
H      0.69477    0.271   0.2073     H
C       0.6993   0.3242   0.4761     C
C      0.70473   0.3887   0.1208     C
C      0.70903   0.4598   0.0746     C
C       0.7117   0.2058   0.5646     C
C      0.71223   0.0349   0.3849     C
C      0.71543   0.8053   0.4948     C
H      0.71653   0.6695   0.4643     H
C       0.7169   0.2993   0.5305     C
H      0.71957   0.3629   0.3254     H
C       0.7231   0.3619   0.8631     C
C      0.72653   0.9036   0.7352     C
C      0.72833   0.0132   0.4421     C
C      0.73597   0.6617   0.8005     C
C      0.74627   0.7659   0.7922     C
H       0.7499   0.1832   0.6707     H
C       0.7524   0.7533   0.0663     C
H      0.75453   0.8062   0.6427     H
O      0.75717   0.6344   0.6167     O
H      0.76013   0.0031   0.8237     H
C       0.7634   0.6796   0.0465     C
C       0.7691   0.2524   0.6313     C
C       0.7704    0.346   0.5986     C
H      0.77237   0.6194   0.7945     H
Cd     0.77252  0.97637  0.54737    Cd
H      0.78117   0.5237   0.2999     H
O       0.7856   0.1493   0.8988     O
H      0.78807   0.7979   0.7819     H
H       0.7892   0.3937   0.6106     H
O      0.79127   0.5361   0.6259     O
C      0.79143   0.8505   0.6747     C
N       0.7942   0.2791   0.7584     N
C      0.79503   0.9658   0.7813     C
H      0.79513   0.7938   0.4963     H
C      0.79523   0.0608    0.296     C
C       0.7953   0.3235   0.6473     C
N      0.80037   0.7062   0.7843     N
C       0.8021   0.2238   0.6805     C
C      0.80373   0.3754   0.0811     C
N      0.80843   0.4212   0.0524     N
C      0.80963   0.0436   0.3497     C
O       0.8104   0.5278   0.9831     O
H      0.81047   0.8528   0.2915     H
N       0.8111   0.3257   0.4418     N
H      0.81707   0.7269   0.1975     H
C      0.81957   0.5981   0.6366     C
O      0.82763    0.023   0.4738     O
H       0.8304    0.356   0.6919     H
H      0.83127   0.8723   0.3729     H
H      0.83717   0.4923   0.3923     H
H        0.841   0.8444   0.0879     H
N        0.846    0.362     0.87     N
H       0.8482    0.219   0.3657     H
C       0.8502   0.7952   0.0739     C
H       0.8537   0.4324    0.495     H
C      0.85387   0.7144   0.2293     C
H      0.85657   0.6053   0.1588     H
C      0.85827   0.5162   0.3111     C
H      0.86093   0.3405    0.074     H
H      0.86143   0.0637    0.271     H
C      0.86597   0.8481   0.3242     C
C       0.8714   0.2679   0.3887     C
C       0.8757   0.3852   0.4598     C
C      0.87837   0.6412   0.2058     C
C       0.8789     0.65   0.0349     C
C       0.8821   0.3105   0.8053     C
H       0.8832   0.2052   0.6695     H
C      0.88357   0.7688   0.2993     C
H      0.88623   0.0375   0.3629     H
C      0.88977   0.4988   0.3619     C
C       0.8932   0.1684   0.9036     C
C        0.895   0.5711   0.0132     C
C      0.90263   0.8612   0.6617     C
C      0.91293   0.9737   0.7659     C
H      0.91657   0.5125   0.1832     H
C      0.91907    0.687   0.7533     C
H       0.9212   0.1635   0.8062     H
O      0.92383   0.0177   0.6344     O
H       0.9268   0.1794   0.0031     H
C      0.93007   0.6331   0.6796     C
C      0.93577   0.6211   0.2524     C
C      0.93707   0.7474    0.346     C
H      0.93903   0.8249   0.6194     H
Cd     0.93919    0.429  0.97637    Cd
H      0.94783   0.2238   0.5237     H
O      0.95227   0.2505   0.1493     O
H      0.95473    0.016   0.7979     H
H      0.95587   0.7831   0.3937     H
O      0.95793   0.9102   0.5361     O
C       0.9581   0.1758   0.8505     C
N      0.96087   0.5207   0.2791     N
C       0.9617   0.1845   0.9658     C
H       0.9618   0.2975   0.7938     H
C       0.9619   0.7648   0.0608     C
C      0.96197   0.6762   0.3235     C
N      0.96703   0.9219   0.7062     N
C      0.96877   0.5433   0.2238     C
C       0.9704   0.2943   0.3754     C
N       0.9751   0.3688   0.4212     N
C       0.9763   0.6939   0.0436     C
O      0.97707   0.5447   0.5278     O
H      0.97713   0.5613   0.8528     H
N      0.97777   0.8839   0.3257     N
H      0.98373   0.5294   0.7269     H
C      0.98623   0.9615   0.5981     C
O       0.9943   0.5492    0.023     O
H      0.99707   0.6641    0.356     H
H      0.99793   0.4994   0.8723     H
