data_I
_chemical_name_common  '/home/zhangsd/repos/MofS-CGCNN/ML/data/TSD/clean_cifs/KAVTUY_clean'
_cell_length_a  4.82180
_cell_length_b 18.29500
_cell_length_c 19.89110
_cell_angle_alpha 90.00000
_cell_angle_beta  90.00000
_cell_angle_gamma 95.07700
_space_group_name_H-M_alt      'P 1'


loop_
_space_group_symop_operation_xyz
  'x, y, z' 

loop_
_atom_site_label
_atom_site_fract_x
_atom_site_fract_y
_atom_site_fract_z
_atom_site_type_symbol
O       0.0127   0.6524   0.1013     O
Cu     0.02202   0.2024  0.70356    Cu
C       0.0251    0.437   0.7921     C
C       0.0299   0.4125   0.6026     C
C       0.0432   0.5933   0.3302     C
H       0.0585    0.981   0.2329     H
H       0.0645   0.6186   0.4938     H
P       0.0724   0.7316  0.44278     P
P       0.0761  0.15321  0.85278     P
P       0.0771  0.34847   0.8254     P
Cu     0.07966  0.75126  0.65741    Cu
C       0.1017   0.9942   0.1329     C
C       0.1034   0.4462   0.7188     C
Cu      0.1073   0.2965     0.97    Cu
O       0.1099   0.7092  0.21328     O
O       0.1161   0.1633  0.31674     O
C       0.1238   0.6356   0.4495     C
C       0.1245   0.0648    0.887     C
H       0.1301   0.0684   0.9357     H
H       0.1347    0.474   0.8181     H
O       0.1644    0.757  0.37253     O
C       0.1673   0.0056   0.1999     C
H       0.1693   0.5543   0.2026     H
H       0.1787     0.87   0.9456     H
O       0.1875  0.15634  0.78094     O
H       0.1963    0.625   0.3179     H
H        0.197   0.4499   0.3721     H
H       0.2034   0.0297   0.0404     H
O       0.2309  0.83485  0.14022     O
O       0.2338   0.2567  0.54588     O
O       0.2393  0.28933  0.39503     O
O       0.2468   0.7724   0.4971     O
C       0.2493    0.464   0.5855     C
C       0.2507    0.036   0.0855     C
O       0.2532   0.7276   0.9971     O
O       0.2607  0.21067  0.89503     O
O       0.2662   0.2433  0.04588     O
O       0.2691  0.66515  0.64022     O
H       0.2966   0.4703   0.5404     H
H        0.303   0.0501   0.8721     H
H       0.3037    0.875   0.8179     H
O       0.3125  0.34366  0.28094     O
H       0.3213     0.63   0.4456     H
H       0.3307   0.9457   0.7026     H
C       0.3327   0.4944   0.6999     C
O       0.3356    0.743  0.87253     O
H       0.3653    0.026   0.3181     H
H       0.3699   0.4316   0.4357     H
C       0.3755   0.4352    0.387     C
C       0.3762   0.8644   0.9495     C
O       0.3839   0.3367  0.81674     O
O       0.3901   0.7908  0.71328     O
Cu      0.3927   0.2035     0.47    Cu
C       0.3966   0.0538   0.2188     C
C       0.3983   0.5058   0.6329     C
Cu     0.42034  0.74874  0.15741    Cu
P       0.4229  0.15153   0.3254     P
P       0.4239  0.34679  0.35278     P
P       0.4276   0.7684  0.94278     P
H       0.4355   0.8814   0.9938     H
H       0.4415    0.519   0.7329     H
C       0.4568   0.9067   0.8302     C
C       0.4701   0.0875   0.1026     C
C       0.4749    0.063   0.2921     C
Cu     0.47798   0.2976  0.20356    Cu
O       0.4873   0.8476   0.6013     O
O       0.5127   0.1524   0.3987     O
Cu     0.52202   0.7024  0.79644    Cu
C       0.5251    0.937   0.7079     C
C       0.5299   0.9125   0.8974     C
C       0.5432   0.0933   0.1698     C
H       0.5585    0.481   0.2671     H
H       0.5645   0.1186   0.0062     H
P       0.5724   0.2316  0.05722     P
P       0.5761  0.65321  0.64722     P
P       0.5771  0.84847   0.6746     P
Cu     0.57966  0.25126  0.84259    Cu
C       0.6017   0.4942   0.3671     C
C       0.6034   0.9462   0.7812     C
Cu      0.6073   0.7965     0.53    Cu
O       0.6099   0.2092  0.28672     O
O       0.6161   0.6633  0.18326     O
C       0.6238   0.1356   0.0505     C
C       0.6245   0.5648    0.613     C
H       0.6301   0.5684   0.5643     H
H       0.6347    0.974   0.6819     H
O       0.6644    0.257  0.12747     O
C       0.6673   0.5056   0.3001     C
H       0.6693   0.0543   0.2974     H
H       0.6787     0.37   0.5544     H
O       0.6875  0.65634  0.71906     O
H       0.6963    0.125   0.1821     H
H        0.697   0.9499   0.1279     H
H       0.7034   0.5297   0.4596     H
O       0.7309  0.33485  0.35978     O
O       0.7338   0.7567  0.95412     O
O       0.7393  0.78933  0.10497     O
O       0.7468   0.2724   0.0029     O
C       0.7493    0.964   0.9145     C
C       0.7507    0.536   0.4145     C
O       0.7532   0.2276   0.5029     O
O       0.7607  0.71067  0.60497     O
O       0.7662   0.7433  0.45412     O
O       0.7691  0.16515  0.85978     O
H       0.7966   0.9703   0.9596     H
H        0.803   0.5501   0.6279     H
H       0.8037    0.375   0.6821     H
O       0.8125  0.84366  0.21906     O
H       0.8213     0.13   0.0544     H
H       0.8307   0.4457   0.7974     H
C       0.8327   0.9944   0.8001     C
O       0.8356    0.243  0.62747     O
H       0.8653    0.526   0.1819     H
H       0.8699   0.9316   0.0643     H
C       0.8755   0.9352    0.113     C
C       0.8762   0.3644   0.5505     C
O       0.8839   0.8367  0.68326     O
O       0.8901   0.2908  0.78672     O
Cu      0.8927   0.7035     0.03    Cu
C       0.8966   0.5538   0.2812     C
C       0.8983   0.0058   0.8671     C
Cu     0.92034  0.24874  0.34259    Cu
P       0.9229  0.65153   0.1746     P
P       0.9239  0.84679  0.14722     P
P       0.9276   0.2684  0.55722     P
H       0.9355   0.3814   0.5062     H
H       0.9415    0.019   0.7671     H
C       0.9568   0.4067   0.6698     C
C       0.9701   0.5875   0.3974     C
C       0.9749    0.563   0.2079     C
Cu     0.97798   0.7976  0.29644    Cu
O       0.9873   0.3476   0.8987     O
