data_I
_chemical_name_common  '/home/zhangsd/repos/MofS-CGCNN/ML/data/TSD/clean_cifs/KAYBUJ_clean'
_cell_length_a  6.42750
_cell_length_b 10.97640
_cell_length_c 16.38700
_cell_angle_alpha 90.00000
_cell_angle_beta  90.00000
_cell_angle_gamma 99.18200
_space_group_name_H-M_alt      'P 1'


loop_
_space_group_symop_operation_xyz
  'x, y, z' 

loop_
_atom_site_label
_atom_site_fract_x
_atom_site_fract_y
_atom_site_fract_z
_atom_site_type_symbol
C        0.004   0.6807  0.20571     C
O       0.0095  0.60068  0.07063     O
C       0.0485      0.8  0.32904     C
H       0.0725    0.232   0.2148     H
C        0.102   0.6152  0.13807     C
O       0.1053  0.92833  0.44634     O
O       0.1239  0.65404  0.89496     O
C       0.1326   0.7421  0.26517     C
N       0.1596   0.2013   0.6629     N
C       0.1899   0.8644  0.39571     C
H       0.1959   0.1366   0.3246     H
C       0.2108   0.3227  0.78638     C
C       0.2174    0.236  0.22021     C
Ca     0.21779   0.4194  0.04215    Ca
H       0.2223   0.7556   0.7621     H
O       0.2308  0.92408  0.65317     O
O       0.2692  0.57592  0.15317     O
H       0.2777   0.7444   0.2621     H
Ca     0.28221   0.0806  0.54215    Ca
C       0.2826    0.264  0.72021     C
C       0.2892   0.1773  0.28638     C
H       0.3041   0.3634   0.8246     H
C       0.3101   0.6356  0.89571     C
N       0.3404   0.2987   0.1629     N
C       0.3674   0.7579  0.76517     C
O       0.3761  0.84596  0.39496     O
O       0.3947  0.57167  0.94634     O
C        0.398   0.8848  0.63807     C
H       0.4275    0.268   0.7148     H
C       0.4515      0.7  0.82904     C
O       0.4905  0.89932  0.57063     O
C        0.496   0.8193  0.70571     C
C        0.504   0.1807  0.29429     C
O       0.5095  0.10068  0.42937     O
C       0.5485      0.3  0.17096     C
H       0.5725    0.732   0.2852     H
C        0.602   0.1152  0.36193     C
O       0.6053  0.42833  0.05366     O
O       0.6239  0.15404  0.60504     O
C       0.6326   0.2421  0.23483     C
N       0.6596   0.7013   0.8371     N
C       0.6899   0.3644  0.10429     C
H       0.6959   0.6366   0.1754     H
C       0.7108   0.8227  0.71362     C
C       0.7174    0.736  0.27979     C
Ca     0.71779   0.9194  0.45785    Ca
H       0.7223   0.2556   0.7379     H
O       0.7308  0.42408  0.84683     O
O       0.7692  0.07592  0.34683     O
H       0.7777   0.2444   0.2379     H
Ca     0.78221   0.5806  0.95785    Ca
C       0.7826    0.764  0.77979     C
C       0.7892   0.6773  0.21362     C
H       0.8041   0.8634   0.6754     H
C       0.8101   0.1356  0.60429     C
N       0.8404   0.7987   0.3371     N
C       0.8674   0.2579  0.73483     C
O       0.8761  0.34596  0.10504     O
O       0.8947  0.07167  0.55366     O
C        0.898   0.3848  0.86193     C
H       0.9275    0.768   0.7852     H
C       0.9515      0.2  0.67096     C
O       0.9905  0.39932  0.92937     O
C        0.996   0.3193  0.79429     C
