data_I
_chemical_name_common  '/home/zhangsd/repos/MofS-CGCNN/ML/data/TSD/clean_cifs/KAYBIX_clean'
_cell_length_a  6.44630
_cell_length_b 10.97280
_cell_length_c 16.09960
_cell_angle_alpha 90.00000
_cell_angle_beta  99.77500
_cell_angle_gamma 90.00000
_space_group_name_H-M_alt      'P 1'


loop_
_space_group_symop_operation_xyz
  'x, y, z' 

loop_
_atom_site_label
_atom_site_fract_x
_atom_site_fract_y
_atom_site_fract_z
_atom_site_type_symbol
C       0.0119   0.6897   0.7026     C
O        0.016   0.6005  0.56863     O
N       0.0337   0.8191   0.8241     N
O       0.0386    0.648  0.38799     O
H       0.0669   0.7824   0.2653     H
C       0.1214   0.6246   0.6393     C
C       0.1217   0.7624    0.765     C
O        0.146    0.069  0.05737     O
C       0.1714    0.197    0.177     C
O       0.1918   0.0947  0.83924     O
C       0.1999    0.327   0.2971     C
C       0.2092   0.7708   0.2639     C
H       0.2199   0.8757   0.1624     H
C       0.2307   0.6327   0.3903     C
H       0.2346   0.2726   0.7338     H
Ca     0.24297  0.92848  0.95223    Ca
Ca     0.25703  0.42848  0.54777    Ca
H       0.2654   0.7726   0.7662     H
C       0.2693   0.1327   0.1097     C
H       0.2801   0.3757   0.3376     H
C       0.2908   0.2708   0.2361     C
C       0.3001    0.827   0.2029     C
O       0.3082   0.5947  0.66076     O
C       0.3286    0.697    0.323     C
O        0.354    0.569  0.44263     O
C       0.3783   0.2624    0.735     C
C       0.3786   0.1246   0.8607     C
H       0.4331   0.2824   0.2347     H
O       0.4614    0.148  0.11201     O
N       0.4663   0.3191   0.6759     N
O        0.484   0.1005  0.93137     O
C       0.4881   0.1897   0.7974     C
C       0.5119   0.8103   0.2026     C
O        0.516   0.8995  0.06863     O
N       0.5337   0.6809   0.3241     N
O       0.5386    0.852  0.88799     O
H       0.5669   0.7176   0.7653     H
C       0.6214   0.8754   0.1393     C
C       0.6217   0.7376    0.265     C
O        0.646    0.431  0.55737     O
C       0.6714    0.303    0.677     C
O       0.6918   0.4053  0.33924     O
C       0.6999    0.173   0.7971     C
C       0.7092   0.7292   0.7639     C
H       0.7199   0.6243   0.6624     H
C       0.7307   0.8673   0.8903     C
H       0.7346   0.2274   0.2338     H
Ca     0.74297  0.57152  0.45223    Ca
Ca     0.75703  0.07152  0.04777    Ca
H       0.7654   0.7274   0.2662     H
C       0.7693   0.3673   0.6097     C
H       0.7801   0.1243   0.8376     H
C       0.7908   0.2292   0.7361     C
C       0.8001    0.673   0.7029     C
O       0.8082   0.9053  0.16076     O
C       0.8286    0.803    0.823     C
O        0.854    0.931  0.94263     O
C       0.8783   0.2376    0.235     C
C       0.8786   0.3754   0.3607     C
H       0.9331   0.2176   0.7347     H
O       0.9614    0.352  0.61201     O
N       0.9663   0.1809   0.1759     N
O        0.984   0.3995  0.43137     O
C       0.9881   0.3103   0.2974     C
