data_I
_chemical_name_common  '/home/zhangsd/repos/MofS-CGCNN/ML/data/TSD/clean_cifs/KEBFII_clean'
_cell_length_a  7.76300
_cell_length_b 19.38920
_cell_length_c 17.86340
_cell_angle_alpha 90.00000
_cell_angle_beta  100.46600
_cell_angle_gamma 90.00000
_space_group_name_H-M_alt      'P 1'


loop_
_space_group_symop_operation_xyz
  'x, y, z' 

loop_
_atom_site_label
_atom_site_fract_x
_atom_site_fract_y
_atom_site_fract_z
_atom_site_type_symbol
C       0.0028  0.60825  0.67182     C
C       0.0028  0.89175  0.17182     C
C       0.0085  0.07069  0.69605     C
C       0.0085  0.42931  0.19605     C
O       0.0096   0.0284  0.57091     O
O       0.0096   0.4716  0.07091     O
H       0.0172   0.7103   0.6953     H
H       0.0172   0.7897   0.1953     H
C       0.0292  0.17799  0.84133     C
C       0.0292  0.32201  0.34133     C
H       0.0524   0.0163   0.8763     H
H       0.0524   0.4837   0.3763     H
H       0.0539   0.1153   0.6844     H
H       0.0539   0.3847   0.1844     H
C       0.0725   0.0632  0.88446     C
C       0.0725   0.4368  0.38446     C
C       0.0791  0.53805  0.87671     C
C       0.0791  0.96195  0.37671     C
C       0.1075  0.58085  0.74517     C
C       0.1075  0.91915  0.24517     C
H       0.1076   0.0423   0.7183     H
H       0.1076   0.4577   0.2183     H
C       0.1303  0.19904  0.90907     C
C       0.1303  0.30096  0.40907     C
H       0.1505   0.2457    0.919     H
H       0.1505   0.2543    0.419     H
H       0.1607   0.5372   0.7356     H
H       0.1607   0.9628   0.2356     H
N       0.1726  0.08281  0.94998     N
N       0.1726  0.41719  0.44998     N
C       0.2006  0.15064  0.96139     C
C       0.2006  0.34936  0.46139     C
H       0.2007    0.613   0.7646     H
H       0.2007    0.887   0.2646     H
H       0.2153   0.7341   0.0425     H
H       0.2153   0.7659   0.5425     H
O       0.2352  0.51879  0.88724     O
O       0.2352  0.98121  0.38724     O
O       0.2353    0.591  0.04646     O
O       0.2353    0.909  0.54646     O
Tb     0.25452  0.03074  0.51471    Tb
Tb     0.25452  0.46926  0.01471    Tb
H       0.2546   0.7059   0.1262     H
H       0.2546   0.7941   0.6262     H
H       0.2663   0.6499   0.5232     H
H       0.2663   0.8501   0.0232     H
H       0.2703   0.1652   0.0065     H
H       0.2703   0.3348   0.5065     H
Ag     0.30211  0.00592  0.02492    Ag
Ag     0.30211  0.49408  0.52492    Ag
C       0.3066  0.72795   0.0869     C
C       0.3066  0.77205   0.5869     C
C       0.3367  0.64491  0.57091     C
C       0.3367  0.85509  0.07091     C
C       0.3776  0.70273   0.6148     C
C       0.3776  0.79727   0.1148     C
C       0.3866  0.61092  0.04186     C
C       0.3866  0.88908  0.54186     C
H       0.3875   0.1234   0.7435     H
H       0.3875   0.3766   0.2435     H
N       0.3938  0.58103  0.59352     N
N       0.3938  0.91897  0.09352     N
C       0.4489  0.68145  0.06628     C
C       0.4489  0.81855  0.56628     C
H       0.4572   0.1776     0.39     H
H       0.4572   0.3224     0.89     H
C       0.4581   0.1295  0.79097     C
C       0.4581   0.3705  0.29097     C
H       0.4642   0.0307   0.8214     H
H       0.4642   0.4693   0.3214     H
C       0.4832  0.69441  0.68532     C
C       0.4832  0.80559  0.18532     C
H       0.4854   0.2324   0.7834     H
H       0.4854   0.2676   0.2834     H
O       0.4896   0.5691  0.01801     O
O       0.4896   0.9309  0.51801     O
C       0.4955  0.57434  0.66224     C
C       0.4955  0.92566  0.16224     C
H       0.4968   0.7029   0.0255     H
H       0.4968   0.7971   0.5255     H
H       0.5032   0.2029   0.4745     H
H       0.5032   0.2971   0.9745     H
C       0.5045  0.07434  0.83776     C
C       0.5045  0.42566  0.33776     C
O       0.5104   0.0691  0.48199     O
O       0.5104   0.4309  0.98199     O
H       0.5146   0.7324   0.7166     H
H       0.5146   0.7676   0.2166     H
C       0.5168  0.19441  0.81468     C
C       0.5168  0.30559  0.31468     C
H       0.5358   0.5307   0.6786     H
H       0.5358   0.9693   0.1786     H
C       0.5419   0.6295  0.70903     C
C       0.5419   0.8705  0.20903     C
H       0.5428   0.6776     0.11     H
H       0.5428   0.8224     0.61     H
C       0.5511  0.18145  0.43372     C
C       0.5511  0.31855  0.93372     C
N       0.6062  0.08103  0.90648     N
N       0.6062  0.41897  0.40648     N
H       0.6125   0.6234   0.7565     H
H       0.6125   0.8766   0.2565     H
C       0.6134  0.11092  0.45814     C
C       0.6134  0.38908  0.95814     C
C       0.6224  0.20273   0.8852     C
C       0.6224  0.29727   0.3852     C
C       0.6633  0.14491  0.92909     C
C       0.6633  0.35509  0.42909     C
C       0.6934  0.22795   0.4131     C
C       0.6934  0.27205   0.9131     C
Ag     0.69789  0.50592  0.47508    Ag
Ag     0.69789  0.99408  0.97508    Ag
H       0.7297   0.6652   0.4935     H
H       0.7297   0.8348   0.9935     H
H       0.7337   0.1499   0.9768     H
H       0.7337   0.3501   0.4768     H
H       0.7454   0.2059   0.3738     H
H       0.7454   0.2941   0.8738     H
Tb     0.74548  0.53074  0.98529    Tb
Tb     0.74548  0.96926  0.48529    Tb
O       0.7647    0.091  0.45354     O
O       0.7647    0.409  0.95354     O
O       0.7648  0.01879  0.61276     O
O       0.7648  0.48121  0.11276     O
H       0.7847   0.2341   0.4575     H
H       0.7847   0.2659   0.9575     H
H       0.7993    0.113   0.7354     H
H       0.7993    0.387   0.2354     H
C       0.7994  0.65064  0.53861     C
C       0.7994  0.84936  0.03861     C
N       0.8274  0.58281  0.55002     N
N       0.8274  0.91719  0.05002     N
H       0.8393   0.0372   0.7644     H
H       0.8393   0.4628   0.2644     H
H       0.8495   0.7457    0.581     H
H       0.8495   0.7543    0.081     H
C       0.8697  0.69904  0.59093     C
C       0.8697  0.80096  0.09093     C
H       0.8924   0.5423   0.7817     H
H       0.8924   0.9577   0.2817     H
C       0.8925  0.08085  0.75483     C
C       0.8925  0.41915  0.25483     C
C       0.9209  0.03805  0.62329     C
C       0.9209  0.46195  0.12329     C
C       0.9275   0.5632  0.61554     C
C       0.9275   0.9368  0.11554     C
H       0.9461   0.6153   0.8156     H
H       0.9461   0.8847   0.3156     H
H       0.9476   0.5163   0.6237     H
H       0.9476   0.9837   0.1237     H
C       0.9708  0.67799  0.65867     C
C       0.9708  0.82201  0.15867     C
H       0.9828   0.2103   0.8047     H
H       0.9828   0.2897   0.3047     H
O       0.9904   0.5284  0.92909     O
O       0.9904   0.9716  0.42909     O
C       0.9915  0.57069  0.80395     C
C       0.9915  0.92931  0.30395     C
C       0.9972  0.10825  0.82818     C
C       0.9972  0.39175  0.32818     C
