data_I
_chemical_name_common  '/home/zhangsd/repos/MofS-CGCNN/ML/data/TSD/clean_cifs/KEFBII_clean'
_cell_length_a 17.20890
_cell_length_b 17.20890
_cell_length_c 28.52300
_cell_angle_alpha 90.00000
_cell_angle_beta  90.00000
_cell_angle_gamma 90.00000
_space_group_name_H-M_alt      'P 1'


loop_
_space_group_symop_operation_xyz
  'x, y, z' 

loop_
_atom_site_label
_atom_site_fract_x
_atom_site_fract_y
_atom_site_fract_z
_atom_site_type_symbol
C      0.01501  0.67834    0.396     C
C      0.01501  0.82166    0.104     C
O      0.01623  0.63232  0.01165     O
O      0.01623  0.86768  0.48835     O
C      0.01953  0.74261   0.4271     C
C      0.01953  0.75739   0.0729     C
C      0.02358   0.1232  0.54854     C
C      0.02358   0.3768  0.95146     C
C      0.02917  0.19281  0.58024     C
C      0.02917  0.30719  0.91976     C
C      0.04158  0.17978  0.85907     C
C      0.04158  0.32022  0.64093     C
H       0.0466   0.1377   0.8377     H
H       0.0466   0.3623   0.6623     H
Zn     0.04661  0.54661    0.966    Zn
Zn     0.04661  0.95339    0.534    Zn
H       0.0546   0.7419   0.4536     H
H       0.0546   0.7581   0.0464     H
O      0.05486  0.06116  0.56173     O
O      0.05486  0.43884  0.93827     O
O      0.06116  0.05486  0.43827     O
O      0.06116  0.44514  0.06173     O
C      0.06764  0.61683  0.39967     C
C      0.06764  0.88317  0.10033     C
C      0.08299  0.19003  0.61675     C
C      0.08299  0.30997  0.88325     C
C      0.08925  0.24437  0.85337     C
C      0.08925  0.25563  0.64663     C
H       0.1137   0.1433   0.6222     H
H       0.1137   0.3567   0.8778     H
C      0.11683  0.56764  0.39967     C
C      0.11683  0.93236  0.10033     C
C       0.1232  0.02358  0.45146     C
C       0.1232  0.47642  0.04854     C
O      0.13232  0.51623  0.01165     O
O      0.13232  0.98377  0.48835     O
H       0.1377   0.0466   0.1623     H
H       0.1377   0.4534   0.3377     H
H       0.1433   0.1137   0.3778     H
H       0.1433   0.3863   0.1222     H
C       0.1472   0.2452  0.81474     C
C       0.1472   0.2548  0.68526     C
O      0.15854  0.18214  0.79274     O
O      0.15854  0.31786  0.70726     O
Zn     0.16369     0.25     0.25    Zn
C      0.17834  0.51501    0.396     C
C      0.17834  0.98499    0.104     C
C      0.17978  0.04158  0.14093     C
C      0.17978  0.45842  0.35907     C
O      0.18011  0.19084   0.6945     O
O      0.18011  0.30916   0.8055     O
O      0.18214  0.15854  0.20726     O
O      0.18214  0.34146  0.29274     O
C      0.19003  0.08299  0.38325     C
C      0.19003  0.41701  0.11675     C
O      0.19084  0.18011   0.3055     O
O      0.19084  0.31989   0.1945     O
C      0.19281  0.02917  0.41976     C
C      0.19281  0.47083  0.08024     C
H       0.2419   0.5546   0.4536     H
H       0.2419   0.9454   0.0464     H
C      0.24261  0.51953   0.4271     C
C      0.24261  0.98047   0.0729     C
C      0.24437  0.08925  0.14663     C
C      0.24437  0.41075  0.35337     C
C       0.2452   0.1472  0.18526     C
C       0.2452   0.3528  0.31474     C
Zn        0.25  0.16369     0.75    Zn
Zn        0.25  0.33631     0.75    Zn
C       0.2548   0.1472  0.31474     C
C       0.2548   0.3528  0.18526     C
C      0.25563  0.08925  0.35337     C
C      0.25563  0.41075  0.14663     C
C      0.25739  0.51953   0.0729     C
C      0.25739  0.98047   0.4271     C
H       0.2581   0.5546   0.0464     H
H       0.2581   0.9454   0.4536     H
C      0.30719  0.02917  0.08024     C
C      0.30719  0.47083  0.41976     C
O      0.30916  0.18011   0.1945     O
O      0.30916  0.31989   0.3055     O
C      0.30997  0.08299  0.11675     C
C      0.30997  0.41701  0.38325     C
O      0.31786  0.15854  0.29274     O
O      0.31786  0.34146  0.20726     O
O      0.31989  0.19084   0.8055     O
O      0.31989  0.30916   0.6945     O
C      0.32022  0.04158  0.35907     C
C      0.32022  0.45842  0.14093     C
C      0.32166  0.51501    0.104     C
C      0.32166  0.98499    0.396     C
Zn     0.33631     0.25     0.25    Zn
O      0.34146  0.18214  0.70726     O
O      0.34146  0.31786  0.79274     O
C       0.3528   0.2452  0.68526     C
C       0.3528   0.2548  0.81474     C
H       0.3567   0.1137   0.1222     H
H       0.3567   0.3863   0.3778     H
H       0.3623   0.0466   0.3377     H
H       0.3623   0.4534   0.1623     H
O      0.36768  0.51623  0.48835     O
O      0.36768  0.98377  0.01165     O
C       0.3768  0.02358  0.04854     C
C       0.3768  0.47642  0.45146     C
C      0.38317  0.56764  0.10033     C
C      0.38317  0.93236  0.39967     C
H       0.3863   0.1433   0.8778     H
H       0.3863   0.3567   0.6222     H
C      0.41075  0.24437  0.64663     C
C      0.41075  0.25563  0.85337     C
C      0.41701  0.19003  0.88325     C
C      0.41701  0.30997  0.61675     C
C      0.43236  0.61683  0.10033     C
C      0.43236  0.88317  0.39967     C
O      0.43884  0.05486  0.06173     O
O      0.43884  0.44514  0.43827     O
O      0.44514  0.06116  0.93827     O
O      0.44514  0.43884  0.56173     O
H       0.4454   0.7419   0.0464     H
H       0.4454   0.7581   0.4536     H
Zn     0.45339  0.54661    0.534    Zn
Zn     0.45339  0.95339    0.966    Zn
H       0.4534   0.1377   0.6623     H
H       0.4534   0.3623   0.8377     H
C      0.45842  0.17978  0.64093     C
C      0.45842  0.32022  0.85907     C
C      0.47083  0.19281  0.91976     C
C      0.47083  0.30719  0.58024     C
C      0.47642   0.1232  0.95146     C
C      0.47642   0.3768  0.54854     C
C      0.48047  0.74261   0.0729     C
C      0.48047  0.75739   0.4271     C
O      0.48377  0.63232  0.48835     O
O      0.48377  0.86768  0.01165     O
C      0.48499  0.67834    0.104     C
C      0.48499  0.82166    0.396     C
C      0.51501  0.17834    0.604     C
C      0.51501  0.32166    0.896     C
O      0.51623  0.13232  0.98835     O
O      0.51623  0.36768  0.51165     O
C      0.51953  0.24261   0.5729     C
C      0.51953  0.25739   0.9271     C
C      0.52358   0.6232  0.45146     C
C      0.52358   0.8768  0.04854     C
C      0.52917  0.69281  0.41976     C
C      0.52917  0.80719  0.08024     C
C      0.54158  0.67978  0.14093     C
C      0.54158  0.82022  0.35907     C
H       0.5466   0.6377   0.1623     H
H       0.5466   0.8623   0.3377     H
Zn     0.54661  0.04661    0.034    Zn
Zn     0.54661  0.45339    0.466    Zn
H       0.5546   0.2419   0.5464     H
H       0.5546   0.2581   0.9536     H
O      0.55486  0.56116  0.43827     O
O      0.55486  0.93884  0.06173     O
O      0.56116  0.55486  0.56173     O
O      0.56116  0.94514  0.93827     O
C      0.56764  0.11683  0.60033     C
C      0.56764  0.38317  0.89967     C
C      0.58299  0.69003  0.38325     C
C      0.58299  0.80997  0.11675     C
C      0.58925  0.74437  0.14663     C
C      0.58925  0.75563  0.35337     C
H       0.6137   0.6433   0.3778     H
H       0.6137   0.8567   0.1222     H
C      0.61683  0.06764  0.60033     C
C      0.61683  0.43236  0.89967     C
C       0.6232  0.52358  0.54854     C
C       0.6232  0.97642  0.95146     C
O      0.63232  0.01623  0.98835     O
O      0.63232  0.48377  0.51165     O
H       0.6377   0.5466   0.8377     H
H       0.6377   0.9534   0.6623     H
H       0.6433   0.6137   0.6222     H
H       0.6433   0.8863   0.8778     H
C       0.6472   0.7452  0.18526     C
C       0.6472   0.7548  0.31474     C
O      0.65854  0.68214  0.20726     O
O      0.65854  0.81786  0.29274     O
Zn     0.66369     0.75     0.75    Zn
C      0.67834  0.01501    0.604     C
C      0.67834  0.48499    0.896     C
C      0.67978  0.54158  0.85907     C
C      0.67978  0.95842  0.64093     C
O      0.68011  0.69084   0.3055     O
O      0.68011  0.80916   0.1945     O
O      0.68214  0.65854  0.79274     O
O      0.68214  0.84146  0.70726     O
C      0.69003  0.58299  0.61675     C
C      0.69003  0.91701  0.88325     C
O      0.69084  0.68011   0.6945     O
O      0.69084  0.81989   0.8055     O
C      0.69281  0.52917  0.58024     C
C      0.69281  0.97083  0.91976     C
H       0.7419   0.0546   0.5464     H
H       0.7419   0.4454   0.9536     H
C      0.74261  0.01953   0.5729     C
C      0.74261  0.48047   0.9271     C
C      0.74437  0.58925  0.85337     C
C      0.74437  0.91075  0.64663     C
C       0.7452   0.6472  0.81474     C
C       0.7452   0.8528  0.68526     C
Zn        0.75  0.66369     0.25    Zn
Zn        0.75  0.83631     0.25    Zn
C       0.7548   0.6472  0.68526     C
C       0.7548   0.8528  0.81474     C
C      0.75563  0.58925  0.64663     C
C      0.75563  0.91075  0.85337     C
C      0.75739  0.01953   0.9271     C
C      0.75739  0.48047   0.5729     C
H       0.7581   0.0546   0.9536     H
H       0.7581   0.4454   0.5464     H
C      0.80719  0.52917  0.91976     C
C      0.80719  0.97083  0.58024     C
O      0.80916  0.68011   0.8055     O
O      0.80916  0.81989   0.6945     O
C      0.80997  0.58299  0.88325     C
C      0.80997  0.91701  0.61675     C
O      0.81786  0.65854  0.70726     O
O      0.81786  0.84146  0.79274     O
O      0.81989  0.69084   0.1945     O
O      0.81989  0.80916   0.3055     O
C      0.82022  0.54158  0.64093     C
C      0.82022  0.95842  0.85907     C
C      0.82166  0.01501    0.896     C
C      0.82166  0.48499    0.604     C
Zn     0.83631     0.75     0.75    Zn
O      0.84146  0.68214  0.29274     O
O      0.84146  0.81786  0.20726     O
C       0.8528   0.7452  0.31474     C
C       0.8528   0.7548  0.18526     C
H       0.8567   0.6137   0.8778     H
H       0.8567   0.8863   0.6222     H
H       0.8623   0.5466   0.6623     H
H       0.8623   0.9534   0.8377     H
O      0.86768  0.01623  0.51165     O
O      0.86768  0.48377  0.98835     O
C       0.8768  0.52358  0.95146     C
C       0.8768  0.97642  0.54854     C
C      0.88317  0.06764  0.89967     C
C      0.88317  0.43236  0.60033     C
H       0.8863   0.6433   0.1222     H
H       0.8863   0.8567   0.3778     H
C      0.91075  0.74437  0.35337     C
C      0.91075  0.75563  0.14663     C
C      0.91701  0.69003  0.11675     C
C      0.91701  0.80997  0.38325     C
C      0.93236  0.11683  0.89967     C
C      0.93236  0.38317  0.60033     C
O      0.93884  0.55486  0.93827     O
O      0.93884  0.94514  0.56173     O
O      0.94514  0.56116  0.06173     O
O      0.94514  0.93884  0.43827     O
H       0.9454   0.2419   0.9536     H
H       0.9454   0.2581   0.5464     H
Zn     0.95339  0.04661    0.466    Zn
Zn     0.95339  0.45339    0.034    Zn
H       0.9534   0.6377   0.3377     H
H       0.9534   0.8623   0.1623     H
C      0.95842  0.67978  0.35907     C
C      0.95842  0.82022  0.14093     C
C      0.97083  0.69281  0.08024     C
C      0.97083  0.80719  0.41976     C
C      0.97642   0.6232  0.04854     C
C      0.97642   0.8768  0.45146     C
C      0.98047  0.24261   0.9271     C
C      0.98047  0.25739   0.5729     C
O      0.98377  0.13232  0.51165     O
O      0.98377  0.36768  0.98835     O
C      0.98499  0.17834    0.896     C
C      0.98499  0.32166    0.604     C
