data_I
_chemical_name_common  '/home/zhangsd/repos/MofS-CGCNN/ML/data/TSD/clean_cifs/KEFBOO_clean'
_cell_length_a 15.33010
_cell_length_b 15.33010
_cell_length_c 15.33010
_cell_angle_alpha 102.03800
_cell_angle_beta  102.03800
_cell_angle_gamma 102.03800
_space_group_name_H-M_alt      'P 1'


loop_
_space_group_symop_operation_xyz
  'x, y, z' 

loop_
_atom_site_label
_atom_site_fract_x
_atom_site_fract_y
_atom_site_fract_z
_atom_site_type_symbol
H          0.0  0.25925  0.74075     H
C          0.0  0.29829  0.70171     C
C          0.0  0.41357  0.58643     C
C          0.0  0.47598  0.52403     C
C          0.0  0.52402  0.47597     C
C          0.0  0.58643  0.41357     C
C          0.0  0.70171  0.29829     C
H          0.0  0.74075  0.25925     H
O      0.00246  0.37163  0.88303     O
O      0.00246  0.88303  0.37163     O
C      0.00639  0.26686  0.61237     C
C      0.00639  0.61237  0.26686     C
C      0.00806  0.32398  0.55319     C
C      0.00806  0.55319  0.32398     C
C      0.01267  0.16914   0.5782     C
C      0.01267   0.5782  0.16914     C
H       0.0142   0.3037   0.4938     H
H       0.0142   0.4938   0.3037     H
Zn     0.02298  0.02298  0.41653    Zn
Zn     0.02298  0.41653  0.02298    Zn
O      0.02603  0.14651  0.49972     O
O      0.02603  0.49972  0.14651     O
O      0.11697  0.62837  0.99754     O
O      0.11697  0.99754  0.62837     O
O      0.14651  0.02603  0.49972     O
O      0.14651  0.49972  0.02603     O
C      0.16914  0.01267   0.5782     C
C      0.16914   0.5782  0.01267     C
H      0.25925      0.0  0.74075     H
H      0.25925  0.74075      1.0     H
C      0.26686  0.00639  0.61237     C
C      0.26686  0.61237  0.00639     C
C      0.29829      0.0  0.70171     C
C      0.29829  0.70171      0.0     C
H       0.3037   0.0142   0.4938     H
H       0.3037   0.4938   0.0142     H
C      0.32398  0.00806  0.55319     C
C      0.32398  0.55319  0.00806     C
O      0.37163  0.00246  0.88303     O
O      0.37163  0.88303  0.00246     O
C      0.38763  0.73314  0.99361     C
C      0.38763  0.99361  0.73314     C
C      0.41357      0.0  0.58643     C
C      0.41357  0.58643      0.0     C
Zn     0.41653  0.02298  0.02298    Zn
C       0.4218  0.83086  0.98733     C
C       0.4218  0.98733  0.83086     C
C      0.44681  0.67602  0.99194     C
C      0.44681  0.99194  0.67602     C
C      0.47597  0.52402      0.0     C
C      0.47598      0.0  0.52403     C
H       0.4938   0.0142   0.3037     H
H       0.4938   0.3037   0.0142     H
O      0.49972  0.02603  0.14651     O
O      0.49972  0.14651  0.02603     O
O      0.50028  0.85349  0.97397     O
O      0.50028  0.97397  0.85349     O
H       0.5062   0.6963   0.9858     H
H       0.5062   0.9858   0.6963     H
C      0.52402      0.0  0.47597     C
C      0.52403  0.47597      0.0     C
C      0.55319  0.00806  0.32398     C
C      0.55319  0.32398  0.00806     C
C       0.5782  0.01267  0.16914     C
C       0.5782  0.16914  0.01267     C
Zn     0.58347  0.97702  0.97702    Zn
C      0.58643      0.0  0.41357     C
C      0.58643  0.41357      0.0     C
C      0.61237  0.00639  0.26686     C
C      0.61237  0.26686  0.00639     C
O      0.62837  0.11697  0.99754     O
O      0.62837  0.99754  0.11697     O
C      0.67602  0.44681  0.99194     C
C      0.67602  0.99194  0.44681     C
H       0.6963   0.5062   0.9858     H
H       0.6963   0.9858   0.5062     H
C      0.70171      0.0  0.29829     C
C      0.70171  0.29829      0.0     C
C      0.73314  0.38763  0.99361     C
C      0.73314  0.99361  0.38763     C
H      0.74075      0.0  0.25925     H
H      0.74075  0.25925      0.0     H
C      0.83086   0.4218  0.98733     C
C      0.83086  0.98733   0.4218     C
O      0.85349  0.50028  0.97397     O
O      0.85349  0.97397  0.50028     O
O      0.88303  0.00246  0.37163     O
O      0.88303  0.37163  0.00246     O
O      0.97397  0.50028  0.85349     O
O      0.97397  0.85349  0.50028     O
Zn     0.97702  0.58347  0.97702    Zn
Zn     0.97702  0.97702  0.58347    Zn
H       0.9858   0.5062   0.6963     H
H       0.9858   0.6963   0.5062     H
C      0.98733   0.4218  0.83086     C
C      0.98733  0.83086   0.4218     C
C      0.99194  0.44681  0.67602     C
C      0.99194  0.67602  0.44681     C
C      0.99361  0.38763  0.73314     C
C      0.99361  0.73314  0.38763     C
O      0.99754  0.11697  0.62837     O
O      0.99754  0.62837  0.11697     O
