data_I
_chemical_name_common  '/home/zhangsd/repos/MofS-CGCNN/ML/data/TSD/clean_cifs/KEFWID_clean'
_cell_length_a 10.76080
_cell_length_b 11.63510
_cell_length_c 16.85380
_cell_angle_alpha 84.96620
_cell_angle_beta  79.06210
_cell_angle_gamma 62.45610
_space_group_name_H-M_alt      'P 1'


loop_
_space_group_symop_operation_xyz
  'x, y, z' 

loop_
_atom_site_label
_atom_site_fract_x
_atom_site_fract_y
_atom_site_fract_z
_atom_site_type_symbol
Co         0.0      0.5      0.5    Co
O       0.0172   0.1578   0.6006     O
H       0.0266   0.5858    0.931     H
O       0.0351   0.6676   0.6422     O
C       0.0483   0.7226   0.3927     C
O       0.0492    0.809   0.9759     O
O       0.0534    0.649    0.454     O
C       0.0707   0.3622   0.0542     C
C       0.0832   0.1488   0.0077     C
Gd     0.08505  0.17086  0.44857    Gd
O       0.1049   0.4688    0.594     O
C       0.1057   0.5466   0.6408     C
C       0.1273   0.6604    0.315     C
O       0.1297   0.7406     0.25     O
C       0.1351   0.2404   0.0234     C
O       0.1418    0.809   0.5241     O
H       0.1683    0.472   0.0788     H
O       0.1693   0.0432   0.9791     O
O        0.175   0.8422   0.1006     O
O       0.1781   0.3438   0.4404     O
C       0.1798   0.3948   0.0592     C
C       0.2034   0.4844   0.7012     C
C       0.2042   0.5348   0.2933     C
C       0.2123   0.6604    0.185     C
O       0.2125   0.9568   0.4791     O
O       0.2183   0.5634     0.75     O
H       0.2184    0.463   0.3263     H
C       0.2291   0.7226   0.1073     C
C        0.232   0.8512   0.5077     C
Gd     0.25591  0.82914  0.94857    Gd
C        0.261   0.5348   0.2067     C
O       0.2789    0.196   0.0083     O
C       0.2859    0.262   0.4725     C
C       0.2867   0.3592   0.7173     C
O       0.2887     0.16   0.5036     O
O       0.2973   0.6676   0.8578     O
O       0.2976    0.649    0.046     O
H        0.298    0.287    0.691     H
C       0.3031   0.2938   0.0306     C
C       0.3122   0.4844   0.7988     C
H       0.3186    0.463   0.1737     H
C       0.3477   0.5466   0.8592     C
C       0.3541   0.3592   0.7827     C
H       0.3597    0.472   0.4212     H
C       0.3755   0.7596   0.5234     C
H       0.3876   0.5858    0.569     H
C       0.4031   0.2938   0.4694     C
H        0.415    0.287    0.809     H
C       0.4254   0.3948   0.4408     C
O       0.4263   0.4688    0.906     O
C       0.4329   0.6378   0.5542     C
O       0.4487     0.84   0.0036     O
C       0.4521    0.262   0.0275     C
O       0.4749    0.804   0.5083     O
O       0.4781   0.3438   0.0596     O
Co         0.5      0.5      0.0    Co
O       0.5219   0.6562   0.9404     O
O       0.5251    0.196   0.4917     O
C       0.5479    0.738   0.9725     C
O       0.5513     0.16   0.9964     O
C       0.5671   0.3622   0.4458     C
O       0.5737   0.5312    0.094     O
C       0.5746   0.6052   0.5592     C
H        0.585    0.713    0.191     H
C       0.5969   0.7062   0.5306     C
H       0.6124   0.4142    0.431     H
C       0.6245   0.2404   0.4766     C
H       0.6403    0.528   0.5788     H
C       0.6459   0.6408   0.2173     C
C       0.6523   0.4534   0.1408     C
H       0.6814    0.537   0.8263     H
C       0.6878   0.5156   0.2012     C
C       0.6969   0.7062   0.9694     C
H        0.702    0.713    0.309     H
O       0.7024    0.351    0.954     O
O       0.7027   0.3324   0.1422     O
O       0.7113     0.84   0.4964     O
C       0.7133   0.6408   0.2827     C
C       0.7141    0.738   0.5275     C
O       0.7211    0.804   0.9917     O
C        0.739   0.4652   0.7933     C
Gd     0.74409  0.17086  0.05143    Gd
C        0.768   0.1488   0.4923     C
C       0.7709   0.2774   0.8927     C
H       0.7816    0.537   0.6737     H
O       0.7817   0.4366     0.25     O
O       0.7875   0.0432   0.5209     O
C       0.7877   0.3396    0.815     C
C       0.7958   0.4652   0.7067     C
C       0.7966   0.5156   0.2988     C
C       0.8202   0.6052   0.9408     C
O       0.8219   0.6562   0.5596     O
O        0.825   0.1578   0.8994     O
O       0.8307   0.9568   0.0209     O
H       0.8317    0.528   0.9212     H
O       0.8582    0.191   0.4759     O
C       0.8649   0.7596   0.9766     C
O       0.8703   0.2594     0.75     O
C       0.8727   0.3396    0.685     C
C       0.8943   0.4534   0.3592     C
O       0.8951   0.5312    0.406     O
Gd     0.91495  0.82914  0.55143    Gd
C       0.9168   0.8512   0.9923     C
C       0.9293   0.6378   0.9458     C
O       0.9466    0.351    0.546     O
O       0.9508    0.191   0.0241     O
C       0.9517   0.2774   0.6073     C
O       0.9649   0.3324   0.3578     O
H       0.9734   0.4142    0.069     H
O       0.9828   0.8422   0.3994     O
