data_I
_chemical_name_common  '/home/zhangsd/repos/MofS-CGCNN/ML/data/TSD/clean_cifs/KESBOA_clean'
_cell_length_a 26.81300
_cell_length_b 12.60350
_cell_length_c 33.47200
_cell_angle_alpha 90.00000
_cell_angle_beta  90.00000
_cell_angle_gamma 90.00000
_space_group_name_H-M_alt      'P 1'


loop_
_space_group_symop_operation_xyz
  'x, y, z' 

loop_
_atom_site_label
_atom_site_fract_x
_atom_site_fract_y
_atom_site_fract_z
_atom_site_type_symbol
C       0.0003   0.3003  0.41594     C
C       0.0003   0.6997  0.91594     C
H       0.0016   0.3709   0.4258     H
H       0.0016   0.6291   0.9258     H
H        0.004   0.1389    0.938     H
H        0.004   0.8611    0.438     H
N      0.01087   0.0712  0.86877     N
N      0.01087   0.9288  0.36877     N
C       0.0109   0.1725  0.85687     C
C       0.0109   0.8275  0.35687     C
H       0.0139   0.1646   0.0121     H
H       0.0139   0.8354   0.5121     H
C      0.02492    0.144  0.10942     C
C      0.02492    0.856  0.60942     C
N      0.02635   0.1364  0.39717     N
N      0.02635   0.8636  0.89717     N
C      0.02715   0.1016  0.95429     C
C      0.02715   0.8984  0.45429     C
H       0.0297   0.1927   0.3278     H
H       0.0297   0.8073   0.8278     H
C       0.0319    0.116  0.99592     C
C       0.0319    0.884  0.49592     C
C      0.03683   0.2062  0.65436     C
C      0.03683   0.7938  0.15436     C
C      0.03874   0.0364   0.6353     C
C      0.03874   0.9636   0.1353     C
H       0.0398   0.2161   0.8561     H
H       0.0398   0.7839   0.3561     H
C       0.0405   0.2281  0.41222     C
C       0.0405   0.7719  0.91222     C
C        0.041   0.2469  0.09773     C
C        0.041   0.7531  0.59773     C
H       0.0459    0.275   0.6635     H
H       0.0459    0.725   0.1635     H
H       0.0494   0.2055   0.2544     H
H       0.0494   0.7945   0.7544     H
C      0.05023   0.1446  0.31348     C
C      0.05023   0.8554  0.81348     C
C      0.05492   0.0651  0.12534     C
C      0.05492   0.9349  0.62534     C
N      0.05912    0.029  0.94059     N
N      0.05912    0.971  0.44059     N
C       0.0608   0.1523  0.27232     C
C       0.0608   0.8477  0.77232     C
C       0.0674   0.0465  0.00809     C
C       0.0674   0.9535  0.50809     C
C      0.06763   0.1221  0.64972     C
C      0.06763   0.8779  0.14972     C
Co     0.06808  0.01444  0.38527    Co
Fe     0.06808  0.98556  0.88527    Fe
N      0.07317   0.0598  0.32972     N
N      0.07317   0.9402  0.82972     N
H       0.0738    0.244   0.4197     H
H       0.0738    0.756   0.9197     H
H       0.0741   0.2737   0.0991     H
H       0.0741   0.7263   0.5991     H
H       0.0786   0.0362   0.0347     H
H       0.0786   0.9638   0.5347     H
C      0.08484   0.0078  0.47369     C
C      0.08484   0.9922  0.97369     C
H       0.0852   0.1997   0.5292     H
H       0.0852   0.8003   0.0292     H
C       0.0905   0.0686  0.26336     C
C       0.0905   0.9314  0.76336     C
H       0.0977   0.1879     0.18     H
H       0.0977   0.8121     0.68     H
C       0.0993   0.0098  0.29892     C
C       0.0993   0.9902  0.79892     C
H       0.1024   0.1208   0.6552     H
H       0.1024   0.8792   0.1552     H
H       0.1033    0.052   0.2376     H
H       0.1033    0.948   0.7376     H
C      0.10826   0.0911  0.13229     C
C      0.10826   0.9089  0.63229     C
N      0.11263   0.1059  0.87602     N
N      0.11263   0.8941  0.37602     N
H       0.1187   0.1716   0.9303     H
H       0.1187   0.8284   0.4303     H
C      0.11887   0.1829  0.53525     C
C      0.11887   0.8171  0.03525     C
H       0.1193    0.267   0.7672     H
H       0.1193    0.733   0.2672     H
H       0.1217   0.2671   0.5867     H
H       0.1217   0.7329   0.0867     H
C      0.12199   0.1605  0.16214     C
C      0.12199   0.8395  0.66214     C
C      0.12388   0.0805  0.47181     C
C      0.12388   0.9195  0.97181     C
N       0.1274   0.0958  0.39854     N
N       0.1274   0.9042  0.89854     N
C      0.12807     0.08  0.80436     C
C      0.12807     0.92  0.30436     C
C      0.12841   0.1734  0.90299     C
C      0.12841   0.8266  0.40299     C
C      0.13512   0.1341  0.84001     C
C      0.13512   0.8659  0.34001     C
H       0.1387   0.0045     0.59     H
H       0.1387   0.9955     0.09     H
C      0.14073   0.2224  0.56974     C
C      0.14073   0.7776  0.06974     C
C        0.142   0.2223  0.75338     C
C        0.142   0.7777  0.25338     C
C      0.14461   0.1212  0.43654     C
C      0.14461   0.8788  0.93654     C
C       0.1459   0.0482  0.10941     C
C       0.1459   0.9518  0.60941     C
C      0.14623   0.1189  0.50963     C
C      0.14623   0.8811  0.00963     C
H       0.1512   0.1472   0.3446     H
H       0.1512   0.8528   0.8446     H
C      0.15369   0.1213  0.76775     C
C      0.15369   0.8787  0.26775     C
C       0.1555   0.1487  0.37275     C
C       0.1555   0.8513  0.87275     C
H       0.1561   0.3232   0.7089     H
H       0.1561   0.6768   0.2089     H
C       0.1613    0.249  0.88682     C
C       0.1613    0.751  0.38682     C
C       0.1643   0.2547  0.71872     C
C       0.1643   0.7453  0.21872     C
C      0.16586   0.2234  0.84736     C
C      0.16586   0.7766  0.34736     C
C      0.17155     0.19  0.16589     C
C      0.17155     0.81  0.66589     C
H       0.1771   0.3059   0.9005     H
H       0.1771   0.6941   0.4005     H
H       0.1802   0.2385   0.1865     H
H       0.1802   0.7615   0.6865     H
C       0.1853   0.1934  0.43241     C
C       0.1853   0.8066  0.93241     C
H        0.186   0.2591   0.8283     H
H        0.186   0.7409   0.3283     H
N      0.18729   0.1998   0.5798     N
N      0.18729   0.8002   0.0798     N
C      0.18767   0.0633  0.74679     C
C      0.18767   0.9367  0.24679     C
C       0.1931    0.208  0.39299     C
C       0.1931    0.792  0.89299     C
C       0.1944    0.083  0.11517     C
C       0.1944    0.917  0.61517     C
C       0.1957   0.0978  0.52062     C
C       0.1957   0.9022  0.02062     C
N      0.19657   0.1973  0.69792     N
N      0.19657   0.8027  0.19792     N
H       0.1972    0.005   0.2561     H
H       0.1972    0.995   0.7561     H
H       0.2035   0.2253   0.4536     H
H       0.2035   0.7747   0.9536     H
N      0.20741   0.1544  0.14243     N
N      0.20741   0.8456  0.64243     N
C      0.20846   0.1029  0.71204     C
C      0.20846   0.8971  0.21204     C
C       0.2137   0.1371  0.55534     C
C       0.2137   0.8629  0.05534     C
H       0.2164   0.0561   0.5038     H
H       0.2164   0.9439   0.0038     H
H       0.2187   0.2496   0.3811     H
H       0.2187   0.7504   0.8811     H
H       0.2198    0.054   0.0987     H
H       0.2198    0.946   0.5987     H
Ag     0.22001  0.25796  0.63755    Ag
Ag     0.22001  0.74204  0.13755    Ag
H        0.232   0.0609   0.6979     H
H        0.232   0.9391   0.1979     H
H       0.2469   0.1194   0.5628     H
H       0.2469   0.8806   0.0628     H
H       0.2531   0.3806   0.0628     H
H       0.2531   0.6194   0.5628     H
H        0.268   0.4391   0.1979     H
H        0.268   0.5609   0.6979     H
Ag     0.27999  0.24204  0.13755    Ag
Ag     0.27999  0.75796  0.63755    Ag
H       0.2802    0.446   0.5987     H
H       0.2802    0.554   0.0987     H
H       0.2813   0.2504   0.8811     H
H       0.2813   0.7496   0.3811     H
H       0.2836   0.4439   0.0038     H
H       0.2836   0.5561   0.5038     H
C       0.2863   0.3629  0.05534     C
C       0.2863   0.6371  0.55534     C
C      0.29154   0.3971  0.21204     C
C      0.29154   0.6029  0.71204     C
N      0.29259   0.3456  0.64243     N
N      0.29259   0.6544  0.14243     N
H       0.2965   0.2747   0.9536     H
H       0.2965   0.7253   0.4536     H
H       0.3028    0.495   0.7561     H
H       0.3028    0.505   0.2561     H
N      0.30343   0.3027  0.19792     N
N      0.30343   0.6973  0.69792     N
C       0.3043   0.4022  0.02062     C
C       0.3043   0.5978  0.52062     C
C       0.3056    0.417  0.61517     C
C       0.3056    0.583  0.11517     C
C       0.3069    0.292  0.89299     C
C       0.3069    0.708  0.39299     C
C      0.31233   0.4367  0.24679     C
C      0.31233   0.5633  0.74679     C
N      0.31271   0.3002   0.0798     N
N      0.31271   0.6998   0.5798     N
H        0.314   0.2409   0.3283     H
H        0.314   0.7591   0.8283     H
C       0.3147   0.3066  0.93241     C
C       0.3147   0.6934  0.43241     C
H       0.3198   0.2615   0.6865     H
H       0.3198   0.7385   0.1865     H
H       0.3229   0.1941   0.4005     H
H       0.3229   0.8059   0.9005     H
C      0.32845     0.31  0.66589     C
C      0.32845     0.69  0.16589     C
C      0.33414   0.2766  0.34736     C
C      0.33414   0.7234  0.84736     C
C       0.3357   0.2453  0.21872     C
C       0.3357   0.7547  0.71872     C
C       0.3387    0.251  0.38682     C
C       0.3387    0.749  0.88682     C
H       0.3439   0.1768   0.2089     H
H       0.3439   0.8232   0.7089     H
C       0.3445   0.3513  0.87275     C
C       0.3445   0.6487  0.37275     C
C      0.34631   0.3787  0.26775     C
C      0.34631   0.6213  0.76775     C
H       0.3488   0.3528   0.8446     H
H       0.3488   0.6472   0.3446     H
C      0.35377   0.3811  0.00963     C
C      0.35377   0.6189  0.50963     C
C       0.3541   0.4518  0.60941     C
C       0.3541   0.5482  0.10941     C
C      0.35539   0.3788  0.93654     C
C      0.35539   0.6212  0.43654     C
C        0.358   0.2777  0.25338     C
C        0.358   0.7223  0.75338     C
C      0.35927   0.2776  0.06974     C
C      0.35927   0.7224  0.56974     C
H       0.3613   0.4955     0.09     H
H       0.3613   0.5045     0.59     H
C      0.36488   0.3659  0.34001     C
C      0.36488   0.6341  0.84001     C
C      0.37159   0.3266  0.40299     C
C      0.37159   0.6734  0.90299     C
C      0.37193     0.42  0.30436     C
C      0.37193     0.58  0.80436     C
N       0.3726   0.4042  0.89854     N
N       0.3726   0.5958  0.39854     N
C      0.37612   0.4195  0.97181     C
C      0.37612   0.5805  0.47181     C
C      0.37801   0.3395  0.66214     C
C      0.37801   0.6605  0.16214     C
H       0.3783   0.2329   0.0867     H
H       0.3783   0.7671   0.5867     H
H       0.3807    0.233   0.2672     H
H       0.3807    0.767   0.7672     H
C      0.38113   0.3171  0.03525     C
C      0.38113   0.6829  0.53525     C
H       0.3813   0.3284   0.4303     H
H       0.3813   0.6716   0.9303     H
N      0.38737   0.3941  0.37602     N
N      0.38737   0.6059  0.87602     N
C      0.39174   0.4089  0.63229     C
C      0.39174   0.5911  0.13229     C
H       0.3967    0.448   0.7376     H
H       0.3967    0.552   0.2376     H
H       0.3976   0.3792   0.1552     H
H       0.3976   0.6208   0.6552     H
C       0.4007   0.4902  0.79892     C
C       0.4007   0.5098  0.29892     C
H       0.4023   0.3121     0.68     H
H       0.4023   0.6879     0.18     H
C       0.4095   0.4314  0.76336     C
C       0.4095   0.5686  0.26336     C
H       0.4148   0.3003   0.0292     H
H       0.4148   0.6997   0.5292     H
C      0.41516   0.4922  0.97369     C
C      0.41516   0.5078  0.47369     C
H       0.4214   0.4638   0.5347     H
H       0.4214   0.5362   0.0347     H
H       0.4259   0.2263   0.5991     H
H       0.4259   0.7737   0.0991     H
H       0.4262    0.256   0.9197     H
H       0.4262    0.744   0.4197     H
N      0.42683   0.4402  0.82972     N
N      0.42683   0.5598  0.32972     N
Co     0.43192  0.48556  0.88527    Co
Fe     0.43192  0.51444  0.38527    Fe
C      0.43237   0.3779  0.14972     C
C      0.43237   0.6221  0.64972     C
C       0.4326   0.4535  0.50809     C
C       0.4326   0.5465  0.00809     C
C       0.4392   0.3477  0.77232     C
C       0.4392   0.6523  0.27232     C
N      0.44088    0.471  0.44059     N
N      0.44088    0.529  0.94059     N
C      0.44508   0.4349  0.62534     C
C      0.44508   0.5651  0.12534     C
C      0.44977   0.3554  0.81348     C
C      0.44977   0.6446  0.31348     C
H       0.4506   0.2945   0.7544     H
H       0.4506   0.7055   0.2544     H
H       0.4541    0.225   0.1635     H
H       0.4541    0.775   0.6635     H
C        0.459   0.2531  0.59773     C
C        0.459   0.7469  0.09773     C
C       0.4595   0.2719  0.91222     C
C       0.4595   0.7281  0.41222     C
H       0.4602   0.2839   0.3561     H
H       0.4602   0.7161   0.8561     H
C      0.46126   0.4636   0.1353     C
C      0.46126   0.5364   0.6353     C
C      0.46317   0.2938  0.15436     C
C      0.46317   0.7062  0.65436     C
C       0.4681    0.384  0.49592     C
C       0.4681    0.616  0.99592     C
H       0.4703   0.3073   0.8278     H
H       0.4703   0.6927   0.3278     H
C      0.47285   0.3984  0.45429     C
C      0.47285   0.6016  0.95429     C
N      0.47365   0.3636  0.89717     N
N      0.47365   0.6364  0.39717     N
C      0.47508    0.356  0.60942     C
C      0.47508    0.644  0.10942     C
H       0.4861   0.3354   0.5121     H
H       0.4861   0.6646   0.0121     H
C       0.4891   0.3275  0.35687     C
C       0.4891   0.6725  0.85687     C
N      0.48913   0.4288  0.36877     N
N      0.48913   0.5712  0.86877     N
H        0.496   0.3611    0.438     H
H        0.496   0.6389    0.938     H
H       0.4984   0.1291   0.9258     H
H       0.4984   0.8709   0.4258     H
C       0.4997   0.1997  0.91594     C
C       0.4997   0.8003  0.41594     C
C       0.5003   0.1997  0.58406     C
C       0.5003   0.8003  0.08406     C
H       0.5016   0.1291   0.5742     H
H       0.5016   0.8709   0.0742     H
H        0.504   0.3611    0.062     H
H        0.504   0.6389    0.562     H
N      0.51087   0.4288  0.13123     N
N      0.51087   0.5712  0.63123     N
C       0.5109   0.3275  0.14313     C
C       0.5109   0.6725  0.64313     C
H       0.5139   0.3354   0.9879     H
H       0.5139   0.6646   0.4879     H
C      0.52492    0.356  0.89058     C
C      0.52492    0.644  0.39058     C
N      0.52635   0.3636  0.60283     N
N      0.52635   0.6364  0.10283     N
C      0.52715   0.3984  0.04571     C
C      0.52715   0.6016  0.54571     C
H       0.5297   0.3073   0.6722     H
H       0.5297   0.6927   0.1722     H
C       0.5319    0.384  0.00408     C
C       0.5319    0.616  0.50408     C
C      0.53683   0.2938  0.34564     C
C      0.53683   0.7062  0.84564     C
C      0.53874   0.4636   0.3647     C
C      0.53874   0.5364   0.8647     C
H       0.5398   0.2839   0.1439     H
H       0.5398   0.7161   0.6439     H
C       0.5405   0.2719  0.58778     C
C       0.5405   0.7281  0.08778     C
C        0.541   0.2531  0.90227     C
C        0.541   0.7469  0.40227     C
H       0.5459    0.225   0.3365     H
H       0.5459    0.775   0.8365     H
H       0.5494   0.2945   0.7456     H
H       0.5494   0.7055   0.2456     H
C      0.55023   0.3554  0.68652     C
C      0.55023   0.6446  0.18652     C
C      0.55492   0.4349  0.87466     C
C      0.55492   0.5651  0.37466     C
N      0.55912    0.471  0.05941     N
N      0.55912    0.529  0.55941     N
C       0.5608   0.3477  0.72768     C
C       0.5608   0.6523  0.22768     C
C       0.5674   0.4535  0.99191     C
C       0.5674   0.5465  0.49191     C
C      0.56763   0.3779  0.35028     C
C      0.56763   0.6221  0.85028     C
Co     0.56808  0.48556  0.61473    Co
Fe     0.56808  0.51444  0.11473    Fe
N      0.57317   0.4402  0.67028     N
N      0.57317   0.5598  0.17028     N
H       0.5738    0.256   0.5803     H
H       0.5738    0.744   0.0803     H
H       0.5741   0.2263   0.9009     H
H       0.5741   0.7737   0.4009     H
H       0.5786   0.4638   0.9653     H
H       0.5786   0.5362   0.4653     H
C      0.58484   0.4922  0.52631     C
C      0.58484   0.5078  0.02631     C
H       0.5852   0.3003   0.4708     H
H       0.5852   0.6997   0.9708     H
C       0.5905   0.4314  0.73664     C
C       0.5905   0.5686  0.23664     C
H       0.5977   0.3121     0.82     H
H       0.5977   0.6879     0.32     H
C       0.5993   0.4902  0.70108     C
C       0.5993   0.5098  0.20108     C
H       0.6024   0.3792   0.3448     H
H       0.6024   0.6208   0.8448     H
H       0.6033    0.448   0.7624     H
H       0.6033    0.552   0.2624     H
C      0.60826   0.4089  0.86771     C
C      0.60826   0.5911  0.36771     C
N      0.61263   0.3941  0.12398     N
N      0.61263   0.6059  0.62398     N
H       0.6187   0.3284   0.0697     H
H       0.6187   0.6716   0.5697     H
C      0.61887   0.3171  0.46475     C
C      0.61887   0.6829  0.96475     C
H       0.6193    0.233   0.2328     H
H       0.6193    0.767   0.7328     H
H       0.6217   0.2329   0.4133     H
H       0.6217   0.7671   0.9133     H
C      0.62199   0.3395  0.83786     C
C      0.62199   0.6605  0.33786     C
C      0.62388   0.4195  0.52819     C
C      0.62388   0.5805  0.02819     C
N       0.6274   0.4042  0.60146     N
N       0.6274   0.5958  0.10146     N
C      0.62807     0.42  0.19564     C
C      0.62807     0.58  0.69564     C
C      0.62841   0.3266  0.09701     C
C      0.62841   0.6734  0.59701     C
C      0.63512   0.3659  0.15999     C
C      0.63512   0.6341  0.65999     C
H       0.6387   0.4955     0.41     H
H       0.6387   0.5045     0.91     H
C      0.64073   0.2776  0.43026     C
C      0.64073   0.7224  0.93026     C
C        0.642   0.2777  0.24662     C
C        0.642   0.7223  0.74662     C
C      0.64461   0.3788  0.56346     C
C      0.64461   0.6212  0.06346     C
C       0.6459   0.4518  0.89059     C
C       0.6459   0.5482  0.39059     C
C      0.64623   0.3811  0.49037     C
C      0.64623   0.6189  0.99037     C
H       0.6512   0.3528   0.6554     H
H       0.6512   0.6472   0.1554     H
C      0.65369   0.3787  0.23225     C
C      0.65369   0.6213  0.73225     C
C       0.6555   0.3513  0.62725     C
C       0.6555   0.6487  0.12725     C
H       0.6561   0.1768   0.2911     H
H       0.6561   0.8232   0.7911     H
C       0.6613    0.251  0.11318     C
C       0.6613    0.749  0.61318     C
C       0.6643   0.2453  0.28128     C
C       0.6643   0.7547  0.78128     C
C      0.66586   0.2766  0.15264     C
C      0.66586   0.7234  0.65264     C
C      0.67155     0.31  0.83411     C
C      0.67155     0.69  0.33411     C
H       0.6771   0.1941   0.0995     H
H       0.6771   0.8059   0.5995     H
H       0.6802   0.2615   0.8135     H
H       0.6802   0.7385   0.3135     H
C       0.6853   0.3066  0.56759     C
C       0.6853   0.6934  0.06759     C
H        0.686   0.2409   0.1717     H
H        0.686   0.7591   0.6717     H
N      0.68729   0.3002   0.4202     N
N      0.68729   0.6998   0.9202     N
C      0.68767   0.4367  0.25321     C
C      0.68767   0.5633  0.75321     C
C       0.6931    0.292  0.60701     C
C       0.6931    0.708  0.10701     C
C       0.6944    0.417  0.88483     C
C       0.6944    0.583  0.38483     C
C       0.6957   0.4022  0.47938     C
C       0.6957   0.5978  0.97938     C
N      0.69657   0.3027  0.30208     N
N      0.69657   0.6973  0.80208     N
H       0.6972    0.495   0.7439     H
H       0.6972    0.505   0.2439     H
H       0.7035   0.2747   0.5464     H
H       0.7035   0.7253   0.0464     H
N      0.70741   0.3456  0.85757     N
N      0.70741   0.6544  0.35757     N
C      0.70846   0.3971  0.28796     C
C      0.70846   0.6029  0.78796     C
C       0.7137   0.3629  0.44466     C
C       0.7137   0.6371  0.94466     C
H       0.7164   0.4439   0.4962     H
H       0.7164   0.5561   0.9962     H
H       0.7187   0.2504   0.6189     H
H       0.7187   0.7496   0.1189     H
H       0.7198    0.446   0.9013     H
H       0.7198    0.554   0.4013     H
Ag     0.72001  0.24204  0.36245    Ag
Ag     0.72001  0.75796  0.86245    Ag
H        0.732   0.4391   0.3021     H
H        0.732   0.5609   0.8021     H
H       0.7469   0.3806   0.4372     H
H       0.7469   0.6194   0.9372     H
H       0.7531   0.1194   0.9372     H
H       0.7531   0.8806   0.4372     H
H        0.768   0.0609   0.8021     H
H        0.768   0.9391   0.3021     H
Ag     0.77999  0.25796  0.86245    Ag
Ag     0.77999  0.74204  0.36245    Ag
H       0.7802    0.054   0.4013     H
H       0.7802    0.946   0.9013     H
H       0.7813   0.2496   0.1189     H
H       0.7813   0.7504   0.6189     H
H       0.7836   0.0561   0.9962     H
H       0.7836   0.9439   0.4962     H
C       0.7863   0.1371  0.94466     C
C       0.7863   0.8629  0.44466     C
C      0.79154   0.1029  0.78796     C
C      0.79154   0.8971  0.28796     C
N      0.79259   0.1544  0.35757     N
N      0.79259   0.8456  0.85757     N
H       0.7965   0.2253   0.0464     H
H       0.7965   0.7747   0.5464     H
H       0.8028    0.005   0.2439     H
H       0.8028    0.995   0.7439     H
N      0.80343   0.1973  0.80208     N
N      0.80343   0.8027  0.30208     N
C       0.8043   0.0978  0.97938     C
C       0.8043   0.9022  0.47938     C
C       0.8056    0.083  0.38483     C
C       0.8056    0.917  0.88483     C
C       0.8069    0.208  0.10701     C
C       0.8069    0.792  0.60701     C
C      0.81233   0.0633  0.75321     C
C      0.81233   0.9367  0.25321     C
N      0.81271   0.1998   0.9202     N
N      0.81271   0.8002   0.4202     N
H        0.814   0.2591   0.6717     H
H        0.814   0.7409   0.1717     H
C       0.8147   0.1934  0.06759     C
C       0.8147   0.8066  0.56759     C
H       0.8198   0.2385   0.3135     H
H       0.8198   0.7615   0.8135     H
H       0.8229   0.3059   0.5995     H
H       0.8229   0.6941   0.0995     H
C      0.82845     0.19  0.33411     C
C      0.82845     0.81  0.83411     C
C      0.83414   0.2234  0.65264     C
C      0.83414   0.7766  0.15264     C
C       0.8357   0.2547  0.78128     C
C       0.8357   0.7453  0.28128     C
C       0.8387    0.249  0.61318     C
C       0.8387    0.751  0.11318     C
H       0.8439   0.3232   0.7911     H
H       0.8439   0.6768   0.2911     H
C       0.8445   0.1487  0.12725     C
C       0.8445   0.8513  0.62725     C
C      0.84631   0.1213  0.73225     C
C      0.84631   0.8787  0.23225     C
H       0.8488   0.1472   0.1554     H
H       0.8488   0.8528   0.6554     H
C      0.85377   0.1189  0.99037     C
C      0.85377   0.8811  0.49037     C
C       0.8541   0.0482  0.39059     C
C       0.8541   0.9518  0.89059     C
C      0.85539   0.1212  0.06346     C
C      0.85539   0.8788  0.56346     C
C        0.858   0.2223  0.74662     C
C        0.858   0.7777  0.24662     C
C      0.85927   0.2224  0.93026     C
C      0.85927   0.7776  0.43026     C
H       0.8613   0.0045     0.91     H
H       0.8613   0.9955     0.41     H
C      0.86488   0.1341  0.65999     C
C      0.86488   0.8659  0.15999     C
C      0.87159   0.1734  0.59701     C
C      0.87159   0.8266  0.09701     C
C      0.87193     0.08  0.69564     C
C      0.87193     0.92  0.19564     C
N       0.8726   0.0958  0.10146     N
N       0.8726   0.9042  0.60146     N
C      0.87612   0.0805  0.02819     C
C      0.87612   0.9195  0.52819     C
C      0.87801   0.1605  0.33786     C
C      0.87801   0.8395  0.83786     C
H       0.8783   0.2671   0.9133     H
H       0.8783   0.7329   0.4133     H
H       0.8807    0.267   0.7328     H
H       0.8807    0.733   0.2328     H
C      0.88113   0.1829  0.96475     C
C      0.88113   0.8171  0.46475     C
H       0.8813   0.1716   0.5697     H
H       0.8813   0.8284   0.0697     H
N      0.88737   0.1059  0.62398     N
N      0.88737   0.8941  0.12398     N
C      0.89174   0.0911  0.36771     C
C      0.89174   0.9089  0.86771     C
H       0.8967    0.052   0.2624     H
H       0.8967    0.948   0.7624     H
H       0.8976   0.1208   0.8448     H
H       0.8976   0.8792   0.3448     H
C       0.9007   0.0098  0.20108     C
C       0.9007   0.9902  0.70108     C
H       0.9023   0.1879     0.32     H
H       0.9023   0.8121     0.82     H
C       0.9095   0.0686  0.23664     C
C       0.9095   0.9314  0.73664     C
H       0.9148   0.1997   0.9708     H
H       0.9148   0.8003   0.4708     H
C      0.91516   0.0078  0.02631     C
C      0.91516   0.9922  0.52631     C
H       0.9214   0.0362   0.4653     H
H       0.9214   0.9638   0.9653     H
H       0.9259   0.2737   0.4009     H
H       0.9259   0.7263   0.9009     H
H       0.9262    0.244   0.0803     H
H       0.9262    0.756   0.5803     H
N      0.92683   0.0598  0.17028     N
N      0.92683   0.9402  0.67028     N
Co     0.93192  0.01444  0.11473    Co
Fe     0.93192  0.98556  0.61473    Fe
C      0.93237   0.1221  0.85028     C
C      0.93237   0.8779  0.35028     C
C       0.9326   0.0465  0.49191     C
C       0.9326   0.9535  0.99191     C
C       0.9392   0.1523  0.22768     C
C       0.9392   0.8477  0.72768     C
N      0.94088    0.029  0.55941     N
N      0.94088    0.971  0.05941     N
C      0.94508   0.0651  0.37466     C
C      0.94508   0.9349  0.87466     C
C      0.94977   0.1446  0.18652     C
C      0.94977   0.8554  0.68652     C
H       0.9506   0.2055   0.2456     H
H       0.9506   0.7945   0.7456     H
H       0.9541    0.275   0.8365     H
H       0.9541    0.725   0.3365     H
C        0.959   0.2469  0.40227     C
C        0.959   0.7531  0.90227     C
C       0.9595   0.2281  0.08778     C
C       0.9595   0.7719  0.58778     C
H       0.9602   0.2161   0.6439     H
H       0.9602   0.7839   0.1439     H
C      0.96126   0.0364   0.8647     C
C      0.96126   0.9636   0.3647     C
C      0.96317   0.2062  0.84564     C
C      0.96317   0.7938  0.34564     C
C       0.9681    0.116  0.50408     C
C       0.9681    0.884  0.00408     C
H       0.9703   0.1927   0.1722     H
H       0.9703   0.8073   0.6722     H
C      0.97285   0.1016  0.54571     C
C      0.97285   0.8984  0.04571     C
N      0.97365   0.1364  0.10283     N
N      0.97365   0.8636  0.60283     N
C      0.97508    0.144  0.39058     C
C      0.97508    0.856  0.89058     C
H       0.9861   0.1646   0.4879     H
H       0.9861   0.8354   0.9879     H
C       0.9891   0.1725  0.64313     C
C       0.9891   0.8275  0.14313     C
N      0.98913   0.0712  0.63123     N
N      0.98913   0.9288  0.13123     N
H        0.996   0.1389    0.562     H
H        0.996   0.8611    0.062     H
H       0.9984   0.3709   0.0742     H
H       0.9984   0.6291   0.5742     H
C       0.9997   0.3003  0.08406     C
C       0.9997   0.6997  0.58406     C
