data_I
_chemical_name_common  '/home/zhangsd/repos/MofS-CGCNN/ML/data/TSD/clean_cifs/KIFKAM_clean'
_cell_length_a  8.97780
_cell_length_b  9.87300
_cell_length_c 17.25300
_cell_angle_alpha 90.00000
_cell_angle_beta  90.00000
_cell_angle_gamma 92.61800
_space_group_name_H-M_alt      'P 1'


loop_
_space_group_symop_operation_xyz
  'x, y, z' 

loop_
_atom_site_label
_atom_site_fract_x
_atom_site_fract_y
_atom_site_fract_z
_atom_site_type_symbol
Mg         0.0      0.5      0.0    Mg
H       0.0097   0.8356   0.6746     H
H       0.0165   0.7075   0.7883     H
C       0.0229   0.1176  0.04341     C
H       0.0382    0.198   0.0732     H
O      0.06994   0.4574  0.11001     O
C      0.07214   0.2936  0.24179     C
C      0.07589  0.21749  0.30961     C
H       0.0826   0.2006   0.8609     H
H       0.0897   0.0724   0.7474     H
C       0.0905  0.89146  0.01129     C
O      0.09835  0.07149  0.45221     O
C        0.114  0.00959  0.05469     C
Mg     0.12229  0.89732   0.5201    Mg
O      0.15733  0.38185  0.95245     O
O      0.15794  0.66147   0.9916     O
C       0.1709   0.2023  0.83047     C
C       0.1749   0.1263  0.76285     C
O      0.18219  0.00744  0.61564     O
O      0.18745  0.70538   0.5582     O
C      0.19172  0.77658  0.02228     C
H        0.192   0.0161   0.0919     H
C       0.1932  0.44695  0.14196     C
C       0.1965  0.37119  0.21758     C
C      0.20448   0.2191  0.35407     C
C      0.21672  0.13199  0.42486     C
C      0.28328  0.36801  0.92486     C
C      0.29552   0.2809  0.85407     C
C       0.3035  0.12881  0.71758     C
C       0.3068  0.05305  0.64196     C
H        0.308   0.4839   0.5919     H
C      0.30828  0.72342  0.52228     C
O      0.31255  0.79462   0.0582     O
O      0.31781  0.49256  0.11564     O
C       0.3251   0.3737  0.26285     C
C       0.3291   0.2977  0.33047     C
O      0.34206  0.83853   0.4916     O
O      0.34267  0.11815  0.45245     O
Mg     0.37771  0.60268   0.0201    Mg
C        0.386  0.49041  0.55469     C
O      0.40165  0.42851  0.95221     O
C       0.4095  0.60854  0.51129     C
H       0.4103   0.4276   0.2474     H
H       0.4174   0.2994   0.3609     H
C      0.42411  0.28251  0.80961     C
C      0.42786   0.2064  0.74179     C
O      0.43006   0.0426  0.61001     O
H       0.4618    0.302   0.5732     H
C       0.4771   0.3824  0.54341     C
H       0.4835   0.7925   0.2883     H
H       0.4903   0.6644   0.1746     H
Mg         0.5     -0.0      0.5    Mg
H       0.5097   0.3356   0.8254     H
H       0.5165   0.2075   0.7117     H
C       0.5229   0.6176  0.45659     C
H       0.5382    0.698   0.4268     H
O      0.56994   0.9574  0.38999     O
C      0.57214   0.7936  0.25821     C
C      0.57589  0.71749  0.19039     C
H       0.5826   0.7006   0.6391     H
H       0.5897   0.5724   0.7526     H
C       0.5905  0.39146  0.48871     C
O      0.59835  0.57149  0.04779     O
C        0.614  0.50959  0.44531     C
Mg     0.62229  0.39732   0.9799    Mg
O      0.65733  0.88185  0.54755     O
O      0.65794  0.16147   0.5084     O
C       0.6709   0.7023  0.66953     C
C       0.6749   0.6263  0.73715     C
O      0.68219  0.50744  0.88436     O
O      0.68745  0.20538   0.9418     O
C      0.69172  0.27658  0.47772     C
H        0.692   0.5161   0.4081     H
C       0.6932  0.94695  0.35804     C
C       0.6965  0.87119  0.28242     C
C      0.70448   0.7191  0.14593     C
C      0.71672  0.63199  0.07514     C
C      0.78328  0.86801  0.57514     C
C      0.79552   0.7809  0.64593     C
C       0.8035  0.62881  0.78242     C
C       0.8068  0.55305  0.85804     C
H        0.808   0.9839   0.9081     H
C      0.80828  0.22342  0.97772     C
O      0.81255  0.29462   0.4418     O
O      0.81781  0.99256  0.38436     O
C       0.8251   0.8737  0.23715     C
C       0.8291   0.7977  0.16953     C
O      0.84206  0.33853   0.0084     O
O      0.84267  0.61815  0.04755     O
Mg     0.87771  0.10268   0.4799    Mg
C        0.886  0.99041  0.94531     C
O      0.90165  0.92851  0.54779     O
C       0.9095  0.10854  0.98871     C
H       0.9103   0.9276   0.2526     H
H       0.9174   0.7994   0.1391     H
C      0.92411  0.78251  0.69039     C
C      0.92786   0.7064  0.75821     C
O      0.93006   0.5426  0.88999     O
H       0.9618    0.802   0.9268     H
C       0.9771   0.8824  0.95659     C
H       0.9835   0.2925   0.2117     H
H       0.9903   0.1644   0.3254     H
