data_I
_chemical_name_common  '/home/zhangsd/repos/MofS-CGCNN/ML/data/TSD/clean_cifs/KIFKEQ_clean'
_cell_length_a 12.19480
_cell_length_b 13.78350
_cell_length_c 18.38400
_cell_angle_alpha 90.00000
_cell_angle_beta  90.00000
_cell_angle_gamma 113.96000
_space_group_name_H-M_alt      'P 1'


loop_
_space_group_symop_operation_xyz
  'x, y, z' 

loop_
_atom_site_label
_atom_site_fract_x
_atom_site_fract_y
_atom_site_fract_z
_atom_site_type_symbol
Mg         0.0      0.0      0.5    Mg
H       0.0006   0.2267   0.5542     H
C      0.01951  0.37797  0.53384     C
H       0.0267   0.2815   0.3787     H
C      0.02752  0.55895  0.50348     C
C      0.03332  0.73221  0.47128     C
H       0.0515   0.4312   0.3095     H
H       0.0538   0.2205    0.678     H
H       0.0581   0.5127   0.1919     H
O      0.07155  0.12306  0.42316     O
H        0.088   0.3761   0.7422     H
H       0.0889   0.4111   0.5632     H
H        0.094    0.667   0.1257     H
O      0.09418  0.10621  0.58269     O
C      0.09634  0.31396  0.34948     C
C       0.1107  0.40288  0.30759     C
C      0.12751   0.6109  0.54783     C
C      0.13235  0.27534  0.67965     C
C      0.13513  0.78236  0.51334     C
C      0.13758  0.56574  0.18823     C
H       0.1381   0.5652   0.7281     H
O      0.14371    0.955  0.48553     O
C      0.15292  0.36814  0.71829     C
H       0.1588     0.57   0.5758     H
H       0.1588   0.7098   0.8015     H
C      0.15888   0.6582  0.14899     C
C      0.17301  0.18146  0.39851     C
Mg     0.18007  0.91583  0.97928    Mg
C      0.18212  0.72107  0.55198     C
C      0.18299  0.27246  0.34881     C
C      0.19665  0.90051  0.51341     C
O      0.19754  0.05575  0.03586     O
C      0.20196  0.16665  0.59505     C
C      0.20497  0.59437  0.75995     C
O      0.20689  0.84249     0.07     O
C      0.21105   0.4507  0.26286     C
C      0.21797  0.68153  0.80319     C
C      0.22563  0.26213  0.64352     C
O       0.2296  0.82622  0.91155     O
C      0.23149  0.55003  0.22229     C
H       0.2484   0.2454   0.0812     H
H       0.2516   0.7546   0.5812     H
C      0.26851  0.44997  0.72229     C
O       0.2704  0.17378  0.41155     O
C      0.27437  0.73787  0.14352     C
C      0.28203  0.31847  0.30319     C
C      0.28895   0.5493  0.76286     C
O      0.29311  0.15751     0.57     O
C      0.29503  0.40563  0.25995     C
C      0.29804  0.83335  0.09505     C
O      0.30246  0.94425  0.53586     O
C      0.30335  0.09949  0.01341     C
C      0.31701  0.72754  0.84881     C
C      0.31788  0.27893  0.05198     C
Mg     0.31993  0.08417  0.47928    Mg
C      0.32699  0.81854  0.89851     C
C      0.34112   0.3418  0.64899     C
H       0.3412   0.2902   0.3015     H
H       0.3412     0.43   0.0758     H
C      0.34708  0.63186  0.21829     C
O      0.35629    0.045  0.98553     O
H       0.3619   0.4348   0.2281     H
C      0.36242  0.43426  0.68823     C
C      0.36487  0.21764  0.01334     C
C      0.36765  0.72466  0.17965     C
C      0.37249   0.3891  0.04783     C
C       0.3893  0.59712  0.80759     C
C      0.40366  0.68604  0.84948     C
O      0.40582  0.89379  0.08269     O
H        0.406    0.333   0.6257     H
H       0.4111   0.5889   0.0632     H
H        0.412   0.6239   0.2422     H
O      0.42845  0.87694  0.92316     O
H       0.4419   0.4873   0.6919     H
H       0.4462   0.7795    0.178     H
H       0.4485   0.5688   0.8095     H
C      0.46668  0.26779  0.97128     C
C      0.47248  0.44105  0.00348     C
H       0.4733   0.7185   0.8787     H
C      0.48049  0.62203  0.03384     C
H       0.4994   0.7733   0.0542     H
Mg         0.5      0.0      0.0    Mg
H       0.5006   0.2267   0.9458     H
C      0.51951  0.37797  0.96616     C
H       0.5267   0.2815   0.1213     H
C      0.52752  0.55895  0.99652     C
C      0.53332  0.73221  0.02872     C
H       0.5515   0.4312   0.1905     H
H       0.5538   0.2205    0.822     H
H       0.5581   0.5127   0.3081     H
O      0.57155  0.12306  0.07684     O
H        0.588   0.3761   0.7578     H
H       0.5889   0.4111   0.9368     H
H        0.594    0.667   0.3743     H
O      0.59418  0.10621  0.91731     O
C      0.59634  0.31396  0.15052     C
C       0.6107  0.40288  0.19241     C
C      0.62751   0.6109  0.95217     C
C      0.63235  0.27534  0.82035     C
C      0.63513  0.78236  0.98666     C
C      0.63758  0.56574  0.31177     C
H       0.6381   0.5652   0.7719     H
O      0.64371    0.955  0.01447     O
C      0.65292  0.36814  0.78171     C
H       0.6588     0.57   0.9242     H
H       0.6588   0.7098   0.6985     H
C      0.65888   0.6582  0.35101     C
C      0.67301  0.18146  0.10149     C
Mg     0.68007  0.91583  0.52072    Mg
C      0.68212  0.72107  0.94802     C
C      0.68299  0.27246  0.15119     C
C      0.69665  0.90051  0.98659     C
O      0.69754  0.05575  0.46414     O
C      0.70196  0.16665  0.90495     C
C      0.70497  0.59437  0.74005     C
O      0.70689  0.84249     0.43     O
C      0.71105   0.4507  0.23714     C
C      0.71797  0.68153  0.69681     C
C      0.72563  0.26213  0.85648     C
O       0.7296  0.82622  0.58845     O
C      0.73149  0.55003  0.27771     C
H       0.7484   0.2454   0.4188     H
H       0.7516   0.7546   0.9188     H
C      0.76851  0.44997  0.77771     C
O       0.7704  0.17378  0.08845     O
C      0.77437  0.73787  0.35648     C
C      0.78203  0.31847  0.19681     C
C      0.78895   0.5493  0.73714     C
O      0.79311  0.15751     0.93     O
C      0.79503  0.40563  0.24005     C
C      0.79804  0.83335  0.40495     C
O      0.80246  0.94425  0.96414     O
C      0.80335  0.09949  0.48659     C
C      0.81701  0.72754  0.65119     C
C      0.81788  0.27893  0.44802     C
Mg     0.81993  0.08417  0.02072    Mg
C      0.82699  0.81854  0.60149     C
C      0.84112   0.3418  0.85101     C
H       0.8412   0.2902   0.1985     H
H       0.8412     0.43   0.4242     H
C      0.84708  0.63186  0.28171     C
O      0.85629    0.045  0.51447     O
H       0.8619   0.4348   0.2719     H
C      0.86242  0.43426  0.81177     C
C      0.86487  0.21764  0.48666     C
C      0.86765  0.72466  0.32035     C
C      0.87249   0.3891  0.45217     C
C       0.8893  0.59712  0.69241     C
C      0.90366  0.68604  0.65052     C
O      0.90582  0.89379  0.41731     O
H        0.906    0.333   0.8743     H
H       0.9111   0.5889   0.4368     H
H        0.912   0.6239   0.2578     H
O      0.92845  0.87694  0.57684     O
H       0.9419   0.4873   0.8081     H
H       0.9462   0.7795    0.322     H
H       0.9485   0.5688   0.6905     H
C      0.96668  0.26779  0.52872     C
C      0.97248  0.44105  0.49652     C
H       0.9733   0.7185   0.6213     H
C      0.98049  0.62203  0.46616     C
H       0.9994   0.7733   0.4458     H
