data_I
_chemical_name_common  '/home/zhangsd/repos/MofS-CGCNN/ML/data/TSD/clean_cifs/KIFXOO_clean'
_cell_length_a 11.27500
_cell_length_b 13.28800
_cell_length_c 18.77400
_cell_angle_alpha 92.21100
_cell_angle_beta  100.98800
_cell_angle_gamma 104.96000
_space_group_name_H-M_alt      'P 1'


loop_
_space_group_symop_operation_xyz
  'x, y, z' 

loop_
_atom_site_label
_atom_site_fract_x
_atom_site_fract_y
_atom_site_fract_z
_atom_site_type_symbol
C      0.00071  0.92185  0.65563     C
C      0.00728  0.85106  0.42953     C
O      0.00945  0.54564  0.10021     O
O      0.02292  0.63602  0.81726     O
H       0.0239   0.2955   0.5405     H
O         0.03  0.02497   0.4034     O
C      0.03212  0.24516  0.29748     C
C      0.03806  0.80174  0.77074     C
C      0.04854  0.07045  0.58695     C
Ni     0.04928  0.60947  0.92827    Ni
C      0.05038  0.18459  0.35418     C
C      0.05483  0.73466  0.83113     C
C       0.0617  0.24189  0.55141     C
H       0.0665   0.3173   0.3045     H
C      0.07047  0.96919  0.72181     C
C      0.07538  0.63364  0.09199     C
C      0.08901  0.90787   0.7795     C
H       0.0913   0.8603   0.4279     H
O        0.097  0.77349  0.89569     O
H       0.0976   0.2159   0.3994     H
H       0.1026   0.6028   0.2312     H
O      0.10278  0.66426  0.03366     O
H       0.1051   0.0413   0.7283     H
H       0.1069   0.3005   0.9838     H
C      0.12169   0.7104  0.15799     C
C      0.12828  0.67427  0.22682     C
H       0.1367   0.9396   0.8246     H
N      0.13735  0.38935  0.07369     N
H       0.1526   0.7357   0.5749     H
H       0.1528   0.8407   0.1066     H
C      0.15664  0.81593  0.15246     C
C      0.17016  0.34062  0.02099     C
C      0.17278  0.74374  0.28885     C
C      0.17318  0.08336  0.58763     C
H       0.1793   0.7195   0.3349     H
C      0.18629  0.25616  0.54837     C
H       0.1926   0.5006   0.8433     H
O      0.19448  0.41009  0.48906     O
C       0.1979  0.88681  0.21452     C
C      0.20709   0.8488  0.28129     C
H       0.2098   0.4778   0.1646     H
H        0.211   0.0304   0.6006     H
H       0.2187   0.9585   0.2105     H
O      0.21979  0.77547  0.59588     O
C      0.23003  0.44365  0.12634     C
N      0.23097  0.59795   0.9301     N
O      0.23966  0.91596  0.34477     O
C      0.24196   0.1773  0.56853     C
C      0.25731  0.35419  0.52123     C
C      0.25834  0.54012  0.87938     C
O      0.28448  0.72678  0.49908     O
C      0.29172  0.34578  0.01797     C
H       0.2988   0.0526   0.4466     H
C      0.30266   0.7843   0.5533     C
H       0.3059   0.2316   0.2823     H
H       0.3072   0.1956   0.1611     H
H       0.3087   0.3102   0.9791     H
H       0.3114   0.6922   0.0179     H
H       0.3152   0.3371   0.3837     H
H       0.3158   0.0947    0.061     H
H        0.327   0.1874   0.5693     H
C      0.32724  0.65179  0.98113     C
H       0.3295   0.7769   0.7632     H
H        0.331    0.625   0.7068     H
H       0.3315   0.8815   0.8637     H
H        0.332   0.5304   0.6031     H
C       0.3543  0.98564  0.36538     C
C       0.3552   0.4524   0.1276     C
H       0.3647    0.936   0.6625     H
C      0.36668  0.05488  0.42465     C
O      0.37448  0.37254  0.53011     O
C      0.37736  0.53526  0.87711     C
C      0.38096  0.27988  0.30432     C
C      0.38249  0.18166  0.15715     C
C      0.38792  0.12009  0.09713     C
C      0.38814  0.34293  0.36611     C
C      0.38942  0.40299  0.07177     C
H       0.3903   0.4925   0.8406     H
C      0.40339  0.80249  0.79799     C
C      0.40422  0.63602  0.68873     C
C      0.40531  0.86544  0.85887     C
C      0.40605   0.5788  0.62655     C
H       0.4165   0.4916    0.166     H
C      0.41953  0.86842  0.58162     C
C      0.43261  0.93829  0.64058     C
H       0.4462   0.9415   0.2927     H
C      0.44943  0.65088   0.9824     C
C      0.45469  0.98852  0.33257     C
C       0.4784  0.59366  0.92892     C
C      0.47938  0.12695  0.45105     C
H       0.4868   0.3105   0.9801     H
C      0.48771  0.28982  0.27565     C
H       0.4881   0.1732   0.4913     H
C      0.48833  0.22218  0.21089     C
N      0.49284  0.09591  0.08918     N
N      0.49318   0.4117  0.40213     N
Ni         0.5      0.0      0.0    Ni
Ni         0.5      0.5      0.5    Ni
N      0.50682   0.5883  0.59787     N
N      0.50716  0.90409  0.91082     N
C      0.51167  0.77782  0.78911     C
H       0.5119   0.8268   0.5087     H
C      0.51229  0.71018  0.72435     C
H       0.5132   0.6895   0.0199     H
C      0.52062  0.87305  0.54895     C
C       0.5216  0.40634  0.07108     C
C      0.54531  0.01148  0.66743     C
C      0.55057  0.34912   0.0176     C
H       0.5538   0.0585   0.7073     H
C      0.56739  0.06171  0.35942     C
C      0.58047  0.13158  0.41838     C
H       0.5835   0.5084    0.834     H
C      0.59395   0.4212  0.37345     C
C      0.59469  0.13456  0.14113     C
C      0.59578  0.36398  0.31127     C
C      0.59661  0.19751  0.20201     C
H       0.6097   0.5075   0.1594     H
C      0.61058  0.59701  0.92823     C
C      0.61186  0.65707  0.63389     C
C      0.61208  0.87991  0.90287     C
C      0.61751  0.81834  0.84285     C
C      0.61904  0.72012  0.69568     C
C      0.62264  0.46474  0.12289     C
O      0.62552  0.62746  0.46989     O
C      0.63332  0.94512  0.57535     C
H       0.6353    0.064   0.3375     H
C       0.6448   0.5476   0.8724     C
C       0.6457  0.01436  0.63462     C
H        0.668   0.4696   0.3969     H
H       0.6685   0.1185   0.1363     H
H        0.669    0.375   0.2932     H
H       0.6705   0.2231   0.2368     H
C      0.67276  0.34821  0.01887     C
H        0.673   0.8126   0.4307     H
H       0.6842   0.9053    0.939     H
H       0.6848   0.6629   0.6163     H
H       0.6886   0.3078   0.9821     H
H       0.6913   0.6898   0.0209     H
H       0.6928   0.8044   0.8389     H
H       0.6941   0.7684   0.7177     H
C      0.69734   0.2157   0.4467     C
H       0.7012   0.9474   0.5534     H
C      0.70828  0.65422  0.98203     C
O      0.71552  0.27322  0.50092     O
C      0.74166  0.45988  0.12062     C
C      0.74269  0.64581  0.47877     C
C      0.75804   0.8227  0.43147     C
O      0.76034  0.08404  0.65523     O
N      0.76903  0.40205   0.0699     N
C      0.76997  0.55635  0.87366     C
O      0.78021  0.22453  0.40412     O
H       0.7813   0.0415   0.7895     H
H        0.789   0.9696   0.3994     H
H       0.7902   0.5222   0.8354     H
C      0.79291   0.1512  0.71871     C
C       0.8021  0.11319  0.78548     C
O      0.80552  0.58991  0.51094     O
H       0.8074   0.4994   0.1567     H
C      0.81371  0.74384  0.45163     C
H       0.8207   0.2805   0.6651     H
C      0.82682  0.91664  0.41237     C
C      0.82722  0.25626  0.71115     C
C      0.82984  0.65938  0.97901     C
C      0.84336  0.18407  0.84754     C
H       0.8472   0.1593   0.8934     H
H       0.8474   0.2643   0.4251     H
N      0.86265  0.61065  0.92631     N
H       0.8633   0.0604   0.1754     H
C      0.87172  0.32573  0.77318     C
C      0.87831   0.2896  0.84201     C
H       0.8931   0.6995   0.0162     H
H       0.8949   0.9587   0.2717     H
O      0.89722  0.33574  0.96634     O
H       0.8974   0.3972   0.7688     H
H       0.9024   0.7841   0.6006     H
O        0.903  0.22651  0.10431     O
H       0.9087   0.1397   0.5721     H
C      0.91099  0.09213   0.2205     C
C      0.92462  0.36636  0.90801     C
C      0.92953  0.03081  0.27819     C
H       0.9335   0.6827   0.6955     H
C       0.9383  0.75811  0.44859     C
C      0.94517  0.26534  0.16887     C
C      0.94962  0.81541  0.64582     C
Ni     0.95072  0.39053  0.07173    Ni
C      0.95146  0.92955  0.41305     C
C      0.96194  0.19826  0.22926     C
C      0.96788  0.75484  0.70252     C
O         0.97  0.97503   0.5966     O
H       0.9761   0.7045   0.4595     H
O      0.97708  0.36398  0.18274     O
O      0.99055  0.45436  0.89979     O
C      0.99272  0.14894  0.57047     C
C      0.99929  0.07815  0.34437     C
