data_I
_chemical_name_common  '/home/zhangsd/repos/MofS-CGCNN/ML/data/TSD/clean_cifs/KIKFIV_clean'
_cell_length_a  9.93550
_cell_length_b 12.16610
_cell_length_c 23.47300
_cell_angle_alpha 75.39200
_cell_angle_beta  80.66000
_cell_angle_gamma 79.54900
_space_group_name_H-M_alt      'P 1'


loop_
_space_group_symop_operation_xyz
  'x, y, z' 

loop_
_atom_site_label
_atom_site_fract_x
_atom_site_fract_y
_atom_site_fract_z
_atom_site_type_symbol
C       0.0018   0.5945   0.4014     C
C       0.0019   0.2063   0.7507     C
C       0.0177   0.1546   0.0013     C
H       0.0214   0.2483   0.9163     H
C       0.0421   0.2615   0.6935     C
C        0.045    0.654   0.3378     C
H       0.0486   0.0422   0.0784     H
C       0.0602   0.5149   0.9408     C
H       0.0632   0.1489   0.7714     H
H       0.0632   0.8044   0.9841     H
C       0.0689   0.1869   0.9413     C
C       0.0727   0.5181   0.0433     C
C       0.0848   0.0636   0.0388     C
H       0.0936    0.492   0.7378     H
O       0.0947   0.5365  0.43162     O
H       0.1135   0.5267   0.1244     H
O       0.1227   0.3937  0.57945     O
C       0.1232   0.5225   0.8798     C
C       0.1292   0.7641   0.2225     C
H       0.1307   0.2407   0.6757     H
C       0.1313   0.5352   0.9824     C
C       0.1502   0.5377   0.0847     C
O       0.1596   0.8072  0.43166     O
C       0.1749   0.6232   0.3111     C
C       0.1773   0.8237   0.1625     C
C       0.1789   0.5263   0.8319     C
C       0.1834   0.5088   0.7291     C
C       0.1856   0.1299   0.9199     C
H       0.1893   0.9475   0.3329     H
H       0.2065   0.4993   0.6443     H
C       0.2092   0.0024   0.0171     C
C       0.2158   0.6771   0.2534     C
H       0.2181   0.1524   0.8799     H
C       0.2241   0.8668   0.1146     C
H       0.2357   0.5657    0.332     H
C       0.2456   0.5283   0.7721     C
C       0.2512   0.5136    0.673     C
H       0.2585    0.298   0.0278     H
C       0.2614   0.0364    0.956     C
Eu     0.26369  0.48216   0.4955    Eu
C       0.2641   0.5714   0.9674     C
C        0.271   0.7578   0.4113     C
C       0.2718   0.9108   0.3169     C
C       0.2757   0.5718   0.0679     C
H       0.2791    0.019   0.2358     H
C        0.282   0.9097   0.0549     C
H       0.3032    0.654   0.2352     H
H       0.3042   0.5834   0.9281     H
H       0.3236   0.5842   0.0961     H
C       0.3273   0.9553   0.2591     C
O       0.3317   0.6632  0.43786     O
C       0.3336   0.5886   0.0091     C
H       0.3363   0.3471   0.9269     H
C       0.3377   0.8136   0.3504     C
C       0.3404   0.2588   0.0127     C
H       0.3777   0.1531    0.089     H
C       0.3789   0.5539   0.7583     C
C       0.3825   0.5388   0.6581     C
C       0.3868   0.9782   0.9344     C
C       0.3881   0.2896   0.9522     C
H       0.3919   0.2244   0.7443     H
O       0.3942   0.5292  0.55834     O
C         0.41   0.8528   0.0329     C
C       0.4121   0.1731   0.0491     C
O       0.4191   0.4413  0.41138     O
H       0.4202   0.6118    0.998     H
H       0.4238   0.5674   0.7872     H
C       0.4416   0.0153   0.8728     C
C       0.4455   0.5595   0.7007     C
C       0.4534   0.9052   0.2361     C
C        0.456   0.5427   0.5971     C
H       0.4602   0.7422   0.1094     H
C       0.4616   0.8875   0.9715     C
C       0.4638   0.7622   0.3276     C
H       0.4654   0.4224   0.3086     H
C       0.4777   0.1909   0.7294     C
C       0.4881   0.0503   0.8239     C
H       0.4905   0.3036   0.6496     H
C       0.4912   0.7642   0.0692     C
C       0.5088   0.2358   0.9308     C
H       0.5095   0.6964   0.3504     H
C       0.5119   0.9497   0.1761     C
C       0.5223   0.8091   0.2706     C
H       0.5346   0.5776   0.6914     H
C       0.5362   0.2378   0.6724     C
C       0.5384   0.1125   0.0285     C
H       0.5398   0.2578   0.8906     H
C        0.544   0.4573   0.4029     C
C       0.5466   0.0948   0.7639     C
C       0.5545   0.4405   0.2993     C
C       0.5584   0.9847   0.1272     C
H       0.5762   0.4326   0.2128     H
H       0.5798   0.3882    0.002     H
O       0.5809   0.5587  0.58862     O
C       0.5879   0.8269   0.9509     C
C         0.59   0.1472   0.9671     C
O       0.6058   0.4708  0.44166     O
H       0.6081   0.7756   0.2557     H
C       0.6119   0.7104   0.0478     C
C       0.6132   0.0218   0.0656     C
C       0.6175   0.4612   0.3419     C
C       0.6211   0.4461   0.2417     C
H       0.6223   0.8469    0.911     H
C       0.6596   0.7412   0.9873     C
C       0.6623   0.1864   0.6496     C
H       0.6637   0.6529   0.0731     H
C       0.6664   0.4114   0.9909     C
O       0.6683   0.3368  0.56214     O
C       0.6727   0.0447   0.7409     C
H       0.6764   0.4158   0.9039     H
H       0.6958   0.4166   0.0719     H
H       0.6968    0.346   0.7648     H
C        0.718   0.0903   0.9451     C
H       0.7209    0.981   0.7642     H
C       0.7243   0.4282   0.9321     C
C       0.7282   0.0892   0.6831     C
C        0.729   0.2422   0.5887     C
C       0.7359   0.4286   0.0326     C
Eu     0.73631  0.51784   0.5045    Eu
C       0.7386   0.9636    0.044     C
H       0.7415    0.702   0.9722     H
C       0.7488   0.4864    0.327     C
C       0.7544   0.4717   0.2279     C
H       0.7643   0.4343    0.668     H
C       0.7759   0.1332   0.8854     C
H       0.7819   0.8476   0.1201     H
C       0.7842   0.3229   0.7466     C
C       0.7908   0.9976   0.9829     C
H       0.7935   0.5007   0.3557     H
H       0.8107   0.0525   0.6671     H
C       0.8144   0.8701   0.0801     C
C       0.8166   0.4912   0.2709     C
C       0.8211   0.4737   0.1681     C
C       0.8227   0.1763   0.8375     C
C       0.8251   0.3768   0.6889     C
O       0.8404   0.1928  0.56834     O
C       0.8498   0.4623   0.9153     C
C       0.8687   0.4648   0.0176     C
H       0.8693   0.7593   0.3243     H
C       0.8708   0.2359   0.7775     C
C       0.8768   0.4775   0.1202     C
O       0.8773   0.6063  0.42055     O
H       0.8865   0.4733   0.8756     H
O       0.9053   0.4635  0.56838     O
H       0.9064    0.508   0.2622     H
C       0.9152   0.9364   0.9612     C
C       0.9273   0.4819   0.9567     C
C       0.9311   0.8131   0.0587     C
H       0.9368   0.1956   0.0159     H
H       0.9368   0.8511   0.2286     H
C       0.9398   0.4851   0.0592     C
H       0.9514   0.9578   0.9216     H
C        0.955    0.346   0.6622     C
C       0.9579   0.7385   0.3065     C
H       0.9786   0.7517   0.0837     H
C       0.9823   0.8454   0.9987     C
C       0.9981   0.7937   0.2493     C
C       0.9982   0.4055   0.5986     C
