data_I
_chemical_name_common  '/home/zhangsd/repos/MofS-CGCNN/ML/data/TSD/clean_cifs/KINFAQ_clean'
_cell_length_a 10.97090
_cell_length_b 10.97090
_cell_length_c 18.84200
_cell_angle_alpha 73.36960
_cell_angle_beta  73.36960
_cell_angle_gamma 74.30800
_space_group_name_H-M_alt      'P 1'


loop_
_space_group_symop_operation_xyz
  'x, y, z' 

loop_
_atom_site_label
_atom_site_fract_x
_atom_site_fract_y
_atom_site_fract_z
_atom_site_type_symbol
C       0.0183   0.5443   0.5573     C
C        0.022   0.5694    0.065     C
H        0.028    0.578   0.5949     H
H       0.0483   0.5877   0.0123     H
C       0.0674   0.4874   0.7806     C
C         0.07   0.5108   0.1896     C
H       0.1002     0.51   0.7284     H
C       0.1023   0.4303   0.9041     C
C       0.1079   0.4679   0.4443     C
C       0.1174   0.5436   0.1075     C
C       0.1237   0.5067   0.5024     C
H       0.1263   0.4893    0.222     H
C       0.1484   0.4528   0.8289     C
H       0.1586   0.4152   0.9355     H
H       0.1784   0.4502    0.405     H
C       0.2575   0.5273    0.072     C
C       0.2591   0.5081   0.5055     C
O        0.277   0.5256   0.5612     O
C        0.294   0.4646   0.7903     C
O       0.2952   0.5482   0.0032     O
O       0.3309   0.4681   0.7243     O
O       0.3327   0.4923   0.1172     O
O       0.3406   0.4918   0.4465     O
O       0.3511   0.4695   0.8369     O
H       0.4123   0.9517   0.4877     H
H       0.4152   0.1586   0.4355     H
H        0.422    0.972   0.9051     H
C       0.4303   0.1023   0.4041     C
C       0.4306    0.978    0.435     C
Tm     0.43845  0.55497  0.60537    Tm
Tm     0.44503  0.56155  0.89463    Tm
H       0.4502   0.1784    0.905     H
O       0.4518   0.7048   0.4968     O
C       0.4528   0.1484   0.3289     C
C       0.4557   0.9817   0.9427     C
C       0.4564   0.8826   0.3925     C
C       0.4646    0.294   0.2903     C
C       0.4679   0.1079   0.9443     C
O       0.4681   0.3309   0.2243     O
O       0.4695   0.3511   0.3369     O
C       0.4727   0.7425    0.428     C
O       0.4744    0.723   0.9388     O
C       0.4874   0.0674   0.2806     C
C       0.4892     0.93   0.3104     C
H       0.4893   0.1263    0.722     H
H         0.49   0.8998   0.7716     H
O       0.4918   0.3406   0.9465     O
C       0.4919   0.7409   0.9945     C
O       0.4923   0.3327   0.6172     O
C       0.4933   0.8763   0.9976     C
C       0.5067   0.1237   0.0024     C
O       0.5077   0.6673   0.3828     O
C       0.5081   0.2591   0.0055     C
O       0.5082   0.6594   0.0535     O
H         0.51   0.1002   0.2284     H
H       0.5107   0.8737    0.278     H
C       0.5108     0.07   0.6896     C
C       0.5126   0.9326   0.7194     C
O       0.5256    0.277   0.0612     O
C       0.5273   0.2575    0.572     C
O       0.5305   0.6489   0.6631     O
O       0.5319   0.6691   0.7757     O
C       0.5321   0.8921   0.0557     C
C       0.5354    0.706   0.7097     C
C       0.5436   0.1174   0.6075     C
C       0.5443   0.0183   0.0573     C
C       0.5472   0.8516   0.6711     C
O       0.5482   0.2952   0.5032     O
H       0.5498   0.8216    0.095     H
Tm     0.55497  0.43845  0.10537    Tm
Tm     0.56155  0.44503  0.39463    Tm
C       0.5694    0.022    0.565     C
C       0.5697   0.8977   0.5959     C
H        0.578    0.028   0.0949     H
H       0.5848   0.8414   0.5645     H
H       0.5877   0.0483   0.5123     H
O       0.6489   0.5305   0.1631     O
O       0.6594   0.5082   0.5535     O
O       0.6673   0.5077   0.8828     O
O       0.6691   0.5319   0.2757     O
O       0.7048   0.4518   0.9968     O
C        0.706   0.5354   0.2097     C
O        0.723   0.4744   0.4388     O
C       0.7409   0.4919   0.4945     C
C       0.7425   0.4727    0.928     C
H       0.8216   0.5498    0.595     H
H       0.8414   0.5848   0.0645     H
C       0.8516   0.5472   0.1711     C
H       0.8737   0.5107    0.778     H
C       0.8763   0.4933   0.4976     C
C       0.8826   0.4564   0.8925     C
C       0.8921   0.5321   0.5557     C
C       0.8977   0.5697   0.0959     C
H       0.8998     0.49   0.2716     H
C         0.93   0.4892   0.8104     C
C       0.9326   0.5126   0.2194     C
H       0.9517   0.4123   0.9877     H
H        0.972    0.422   0.4051     H
C        0.978   0.4306    0.935     C
C       0.9817   0.4557   0.4427     C
