data_I
_chemical_name_common  '/home/zhangsd/repos/MofS-CGCNN/ML/data/TSD/clean_cifs/KINPUU_clean'
_cell_length_a  9.02640
_cell_length_b 15.10300
_cell_length_c 15.53530
_cell_angle_alpha 119.08400
_cell_angle_beta  104.84400
_cell_angle_gamma 90.00000
_space_group_name_H-M_alt      'P 1'


loop_
_space_group_symop_operation_xyz
  'x, y, z' 

loop_
_atom_site_label
_atom_site_fract_x
_atom_site_fract_y
_atom_site_fract_z
_atom_site_type_symbol
H       0.0009   0.5055    0.335     H
C       0.0227   0.9512    0.754     C
C        0.028  0.89943  0.16606     C
H       0.0306   0.8726   0.0986     H
C       0.0357   0.9835    0.367     C
C       0.0381   0.0085    0.708     C
H       0.0427   0.0148   0.4366     H
C       0.0437   0.7119    0.689     C
H       0.0496   0.3499   0.3264     H
C        0.054  0.77311  0.79362     C
H        0.068   0.8778    0.488     H
H       0.0753   0.1775   0.2496     H
H       0.0924   0.7375    0.658     H
C       0.0955   0.1642   0.6532     C
C       0.1057  0.85846  0.22332     C
C       0.1072   0.8981   0.3242     C
H        0.121   0.2588    0.596     H
H       0.1219   0.4918   0.1478     H
N       0.1381  0.87229  0.85298     N
C       0.1474   0.8493     0.46     C
H       0.1475   0.4042    0.173     H
H        0.151   0.3504   0.0104     H
C       0.1538  0.92889  0.80558     C
H       0.1579   0.8033   0.1936     H
C       0.1648   0.2128    0.615     C
H       0.1795   0.0564   0.0044     H
N       0.1844  0.85424  0.38248     N
C       0.1845  0.04341  0.71342     C
C          0.2   0.4522   0.1624     C
N       0.2004  0.10468  0.67016     N
C       0.2178  0.91174  0.95808     C
C       0.2257  0.01385   0.0275     C
C       0.2424   0.3918   0.0672     C
H       0.2452   0.7818   0.5394     H
C       0.2453   0.7965   0.4878     C
H       0.2908   0.4364   0.0504     H
C       0.2917  0.84843  0.99206     C
H       0.2932   0.7804    0.945     H
C       0.3002   0.9637    0.811     C
C       0.3016  0.05478  0.13196     C
H        0.303   0.2707   0.0902     H
C       0.3038   0.5206   0.2568     C
C       0.3062   0.8053   0.3686     C
N       0.3064    0.184   0.6088     N
H       0.3082   0.1241   0.1784     H
C       0.3156    0.021    0.765     C
O       0.3182  0.51681  0.33662     O
H       0.3186   0.1426   0.3406     H
C       0.3227   0.1193   0.6422     C
N       0.3472  0.76635   0.4303     N
C        0.355   0.3237   0.0856     C
H       0.3555   0.5731   0.5298     H
H       0.3569    0.799   0.3212     H
C       0.3633  0.88794  0.09688     C
C       0.3686  0.98775   0.1655     C
H       0.3814   0.2009   0.9422     H
H       0.3814   0.3054    0.943     H
H        0.388   0.9487   0.8454     H
O       0.3938  0.58494  0.25788     O
H       0.3961   0.6528   0.7138     H
C       0.3971  0.10571  0.35062     C
H        0.408    0.845     0.12     H
H       0.4097    0.087   0.6464     H
H       0.4136   0.0443   0.7686     H
C       0.4193   0.2737   0.9842     C
C       0.4264   0.6312   0.5798     C
N       0.4362   0.0277   0.2728     N
H       0.4393   0.3634   0.1484     H
C       0.4487    0.674   0.6812     C
N        0.479  0.12454  0.44088     N
Co     0.48461  0.24916    0.582    Co
Co     0.51539  0.66716    0.418    Co
N        0.521  0.68366  0.55912     N
C       0.5513   0.9928   0.3188     C
H       0.5607    0.215   0.8516     H
N       0.5638   0.7549   0.7272     N
C       0.5736   0.0514   0.4202     C
C       0.5807   0.2895   0.0158     C
H       0.5864   0.2757   0.2314     H
H       0.5903   0.4406   0.3536     H
H        0.592    0.725     0.88     H
C       0.6029  0.75509  0.64938     C
H       0.6039    0.939   0.2862     H
O       0.6062  0.32706  0.74212     O
H        0.612   0.1033   0.1546     H
H       0.6186   0.2587   0.0578     H
H       0.6186   0.3624    0.057     H
C       0.6314  0.82225   0.8345     C
C       0.6367  0.79106  0.90312     C
H       0.6431   0.4778   0.6788     H
H       0.6445   0.0433   0.4702     H
C        0.645   0.2381   0.9144     C
N       0.6528  0.33605   0.5697     N
C       0.6773   0.4771   0.3578     C
H       0.6814    0.802   0.6594     H
O       0.6818  0.18019  0.66338     O
C       0.6844    0.256    0.235     C
H       0.6918   0.9457   0.8216     H
N       0.6936   0.5752   0.3912     N
C       0.6938   0.4367   0.6314     C
C       0.6962   0.2638   0.7432     C
H        0.697   0.1805   0.9098     H
C       0.6984  0.92282  0.86804     C
C       0.6998   0.1527    0.189     C
H       0.7068   0.8354    0.055     H
C       0.7083  0.85637  0.00794     C
H       0.7092    0.386   0.9496     H
C       0.7547   0.3087   0.5122     C
H       0.7548   0.2424   0.4606     H
C       0.7576   0.3246   0.9328     C
C       0.7743  0.98635   0.9725     C
C       0.7822  0.95366  0.04192     C
N       0.7996  0.43452  0.32984     N
C          0.8   0.2898   0.8376     C
C       0.8155  0.32999  0.28658     C
N       0.8156  0.47176  0.61752     N
H       0.8205    0.052   0.9956     H
C       0.8352   0.5978    0.385     C
H       0.8421   0.6097   0.8064     H
C       0.8462  0.12331  0.19442     C
H        0.849     0.34   0.9896     H
H       0.8525   0.2312    0.827     H
C       0.8526   0.3893     0.54     C
N       0.8619  0.01931  0.14702     N
H       0.8781    0.344   0.8522     H
H        0.879   0.6628    0.404     H
C       0.8928   0.5739   0.6758     C
C       0.8943  0.63514  0.77668     C
C       0.9045    0.511   0.3468     C
H       0.9076   0.0795    0.342     H
H       0.9247   0.9279   0.7504     H
H        0.932   0.3898    0.512     H
C        0.946  0.97949  0.20638     C
H       0.9504   0.0235   0.6736     H
C       0.9563   0.0229    0.311     C
H       0.9573   0.5782   0.5634     H
C       0.9619   0.3005    0.292     C
C       0.9643   0.6165    0.633     C
H       0.9694    0.774   0.9014     H
C        0.972  0.73337  0.83394     C
C       0.9773   0.1972    0.246     C
H       0.9991   0.1705    0.665     H
