data_I
_chemical_name_common  '/home/zhangsd/repos/MofS-CGCNN/ML/data/TSD/clean_cifs/KINQAB_clean'
_cell_length_a  9.07170
_cell_length_b 14.93990
_cell_length_c 15.64280
_cell_angle_alpha 118.52400
_cell_angle_beta  105.20900
_cell_angle_gamma 90.00000
_space_group_name_H-M_alt      'P 1'


loop_
_space_group_symop_operation_xyz
  'x, y, z' 

loop_
_atom_site_label
_atom_site_fract_x
_atom_site_fract_y
_atom_site_fract_z
_atom_site_type_symbol
H        0.007   0.4791   0.6404     H
C       0.0222   0.3893   0.3652     C
C       0.0228  0.79548  0.74316     C
H       0.0232   0.4302   0.4326     H
C       0.0351  0.26322  0.16884     C
C       0.0411  0.69227  0.69354     C
H       0.0451   0.9884   0.3466     H
H       0.0483   0.2195   0.1056     H
H       0.0493   0.6107   0.4784     H
C       0.0546  0.01823  0.79406     C
C       0.0575  0.98107  0.69314     C
H       0.0757   0.0777   0.2636     H
C        0.098  0.42667  0.32154     C
C       0.1051  0.36323  0.22086     C
C       0.1057  0.47694  0.63328     C
H        0.108   0.6648   0.1528     H
H       0.1126   0.9275   0.6648     H
C       0.1299    0.612   0.4524     C
N       0.1325  0.97637  0.85214     N
H       0.1335   0.3265   0.5766     H
C       0.1517  0.87091  0.80306     C
H        0.156   0.7774   0.1772     H
H       0.1562    0.389    0.191     H
N       0.1688  0.53103  0.37766     N
H       0.1735   0.6468   0.0098     H
H       0.1746    0.939    0.003     H
C       0.1756   0.3929    0.597     C
C       0.1883   0.6645   0.7038     C
C       0.1936   0.7131    0.166     C
N       0.2071  0.55743  0.65726     N
C        0.212  0.03998  0.95636     C
C        0.221  0.00514  0.02588     C
C       0.2318   0.6963   0.4826     C
H       0.2328   0.7627   0.5338     H
C        0.257   0.6696   0.0724     C
C       0.2869  0.13642  0.98984     C
H       0.2876   0.1581   0.9432     H
C       0.2907  0.57193  0.36606     C
C       0.2989  0.06835   0.1291     C
C       0.2989  0.84315  0.81332     C
H       0.3062   0.0449   0.1752     H
H       0.3113   0.6122   0.0672     H
H       0.3123   0.8171   0.1062     H
C       0.3172  0.73995   0.7637     C
N       0.3193  0.42018  0.59496     N
C       0.3208  0.73131  0.26082     C
N       0.3282  0.66873  0.42766     N
H       0.3324   0.1809   0.3364     H
O        0.333  0.81172  0.34304     O
C       0.3341  0.52248  0.63496     C
H       0.3414   0.5338   0.3186     H
H        0.349   0.9597   0.5394     H
C       0.3618  0.20174  0.09368     C
C        0.364   0.7569    0.092     C
C       0.3662   0.1684   0.1618     C
H       0.3706   0.6488   0.9422     H
H       0.3739    0.761    0.959     H
H       0.3851   0.8936   0.8534     H
C       0.4024   0.2319   0.3446     C
O        0.407  0.66659  0.25898     O
H       0.4086   0.2678   0.1164     H
H       0.4104   0.0685   0.7218     H
C        0.415   0.7201   0.9902     C
H       0.4157   0.7214   0.7706     H
H       0.4215   0.5635   0.6456     H
C       0.4229  0.95145   0.5881     C
N       0.4326  0.23562  0.26804     N
H       0.4533    0.774     0.15     H
C       0.4542  0.01046  0.68772     C
N       0.4823  0.30815   0.4331     N
Ni     0.49834  0.33279  0.57458    Ni
Ni     0.50166  0.75821  0.42542    Ni
N       0.5177  0.87505   0.5669     N
C       0.5458  0.32274  0.31228     C
H       0.5467    0.624     0.85     H
N       0.5674  0.96758  0.73196     N
C       0.5771  0.36335   0.4119     C
H       0.5785   0.9179   0.3544     H
H       0.5843   0.9508   0.2294     H
C        0.585   0.7299   0.0098     C
H       0.5896   0.3467   0.2782     H
H       0.5914   0.1514   0.8836     H
O        0.593  0.40761  0.74102     O
C       0.5976   0.8873   0.6554     C
H       0.6149   0.0402   0.1466     H
H       0.6261    0.802    0.041     H
H       0.6294   0.7066   0.0578     H
C       0.6338   0.0066   0.8382     C
C        0.636   0.6649    0.908     C
C       0.6382  0.10806  0.90632     C
H        0.651   0.4203   0.4606     H
H       0.6586   0.2152   0.6814     H
C       0.6659  0.88752  0.36504     C
O        0.667  0.46868  0.65696     O
H       0.6676   0.8445   0.6636     H
N       0.6718  0.24107  0.57234     N
C       0.6792  0.47049  0.73918     C
N       0.6807  0.82522  0.40504     N
C       0.6828  0.97625   0.2363     C
H       0.6877   0.7109   0.8938     H
H       0.6887    0.545   0.9328     H
H       0.6938   0.8697   0.8248     H
C       0.7011  0.02983  0.18668     C
C       0.7011  0.93925   0.8709     C
C       0.7093  0.20587  0.63394     C
H       0.7124   0.2149   0.0568     H
C       0.7131  0.14658  0.01016     C
C        0.743   0.5972   0.9276     C
H       0.7672   0.2289   0.4662     H
C       0.7682   0.2137   0.5174     C
C        0.779  0.97926  0.97412     C
C        0.788  0.08362  0.04364     C
N       0.7929  0.90017  0.34274     N
C       0.8064   0.5471    0.834     C
C       0.8117   0.9607   0.2962     C
C       0.8244   0.7959    0.403     C
H       0.8254    0.936    0.997     H
H       0.8265    0.637   0.9902     H
N       0.8312  0.15337  0.62234     N
H       0.8438    0.198    0.809     H
H        0.844   0.6002   0.8228     H
C       0.8483  0.06785  0.19694     C
H       0.8665   0.7499   0.4234     H
N       0.8675  0.12423  0.14786     N
C       0.8701   0.1596   0.5476     C
H       0.8874   0.2627   0.3352     H
H        0.892    0.512   0.8472     H
C       0.8943  0.84366  0.36672     C
C       0.8949  0.14237  0.77914     C
C        0.902  0.10513  0.67846     C
H       0.9243   0.8141   0.7364     H
C       0.9425  0.28793  0.30686     C
C       0.9454  0.22417  0.20594     C
H       0.9507   0.1323   0.5216     H
H       0.9517   0.1139   0.8944     H
H       0.9549   0.6418   0.6534     H
C       0.9589  0.99873  0.30646     C
C       0.9649  0.09438  0.83116     C
H       0.9768   0.9976   0.5674     H
C       0.9772  0.05232  0.25684     C
C       0.9778   0.0241   0.6348     C
H        0.993   0.8387   0.3596     H
