data_I
_chemical_name_common  '/home/zhangsd/repos/MofS-CGCNN/ML/data/TSD/clean_cifs/KODSUT_clean'
_cell_length_a 15.93250
_cell_length_b 15.93250
_cell_length_c 25.30470
_cell_angle_alpha 90.00000
_cell_angle_beta  90.00000
_cell_angle_gamma 90.00000
_space_group_name_H-M_alt      'P 1'


loop_
_space_group_symop_operation_xyz
  'x, y, z' 

loop_
_atom_site_label
_atom_site_fract_x
_atom_site_fract_y
_atom_site_fract_z
_atom_site_type_symbol
N      0.01455   0.1396  0.05063     N
N      0.01455   0.3604  0.55063     N
N      0.01455   0.6396  0.94937     N
N      0.01455   0.8604  0.44937     N
C      0.02031  0.13889  0.95646     C
C      0.02031  0.36111  0.45646     C
C      0.02031  0.63889  0.04354     C
C      0.02031  0.86111  0.54354     C
H       0.0482   0.1541   0.9256     H
H       0.0482   0.3459   0.4256     H
H       0.0482   0.6541   0.0744     H
H       0.0482   0.8459   0.5744     H
C      0.05179  0.16073  0.00513     C
C      0.05179  0.33927  0.50513     C
C      0.05179  0.66073  0.99487     C
C      0.05179  0.83927  0.49487     C
C      0.05372  0.09388  0.45438     C
C      0.05372  0.40612  0.95438     C
C      0.05372  0.59388  0.54562     C
C      0.05372  0.90612  0.04562     C
C      0.05707  0.09527  0.54803     C
C      0.05707  0.40473  0.04803     C
C      0.05707  0.59527  0.45197     C
C      0.05707  0.90473  0.95197     C
H       0.0584   0.1487   0.2435     H
H       0.0584   0.3513   0.7435     H
H       0.0584   0.6487   0.7565     H
H       0.0584   0.8513   0.2565     H
Ag     0.06808  0.18192    0.125    Ag
Ag     0.06808  0.31808    0.625    Ag
Ag     0.06808  0.68192    0.875    Ag
Ag     0.06808  0.81808    0.375    Ag
H       0.0766   0.0787    0.422     H
H       0.0766   0.4213    0.922     H
H       0.0766   0.5787    0.578     H
H       0.0766   0.9213    0.078     H
H       0.0833   0.0798   0.5794     H
H       0.0833   0.4202   0.0794     H
H       0.0833   0.5798   0.4206     H
H       0.0833   0.9202   0.9206     H
C      0.08927  0.19821  0.24487     C
C      0.08927  0.30179  0.74487     C
C      0.08927  0.69821  0.75513     C
C      0.08927  0.80179  0.25513     C
C      0.09345  0.07163   0.5007     C
C      0.09345  0.42837   0.0007     C
C      0.09345  0.57163   0.4993     C
C      0.09345  0.92837   0.9993     C
H       0.0959   0.2018   0.3244     H
H       0.0959   0.2982   0.8244     H
H       0.0959   0.7018   0.6756     H
H       0.0959   0.7982   0.1756     H
H       0.1013   0.1916   0.0065     H
H       0.1013   0.3084   0.5065     H
H       0.1013   0.6916   0.9935     H
H       0.1013   0.8084   0.4935     H
N       0.1104  0.23545  0.19937     N
N       0.1104  0.26455  0.69937     N
N       0.1104  0.73545  0.80063     N
N       0.1104  0.76455  0.30063     N
C      0.11111  0.22969  0.29354     C
C      0.11111  0.27031  0.79354     C
C      0.11111  0.72969  0.70646     C
C      0.11111  0.77031  0.20646     C
H       0.1396   0.0016   0.7247     H
H       0.1396   0.4984   0.2247     H
H       0.1396   0.5016   0.2753     H
H       0.1396   0.9984   0.7753     H
C      0.15473  0.19293  0.70197     C
C      0.15473  0.30707  0.20197     C
C      0.15473  0.69293  0.29803     C
C      0.15473  0.80707  0.79803     C
C      0.15612  0.19628  0.79562     C
C      0.15612  0.30372  0.29562     C
C      0.15612  0.69628  0.20438     C
C      0.15612  0.80372  0.70438     C
H       0.1702   0.1667   0.6706     H
H       0.1702   0.3333   0.1706     H
H       0.1702   0.6667   0.3294     H
H       0.1702   0.8333   0.8294     H
H       0.1713   0.1734    0.828     H
H       0.1713   0.3266    0.328     H
H       0.1713   0.6734    0.172     H
H       0.1713   0.8266    0.672     H
C      0.17311  0.02068  0.50055     C
C      0.17311  0.47932  0.00055     C
C      0.17311  0.52068  0.49945     C
C      0.17311  0.97932  0.99945     C
H       0.1735   0.0155   0.0303     H
H       0.1735   0.4845   0.5303     H
H       0.1735   0.5155   0.9697     H
H       0.1735   0.9845   0.4697     H
H       0.1742   0.0149   0.9683     H
H       0.1742   0.4851   0.4683     H
H       0.1742   0.5149   0.0317     H
H       0.1742   0.9851   0.5317     H
N      0.17574      0.0     0.75     N
N      0.17574      0.5     0.25     N
C      0.17837  0.15655   0.7493     C
C      0.17837  0.34345   0.2493     C
C      0.17837  0.65655   0.2507     C
C      0.17837  0.84345   0.7507     C
C      0.22932  0.07689  0.74945     C
C      0.22932  0.42311  0.24945     C
C      0.22932  0.57689  0.25055     C
C      0.22932  0.92311  0.75055     C
H       0.2345   0.0765   0.2197     H
H       0.2345   0.4235   0.7197     H
H       0.2345   0.5765   0.7803     H
H       0.2345   0.9235   0.2803     H
H       0.2351   0.0758   0.2817     H
H       0.2351   0.4242   0.7817     H
H       0.2351   0.5758   0.7183     H
H       0.2351   0.9242   0.2183     H
H       0.2484   0.1104   0.5253     H
H       0.2484   0.3896   0.0253     H
H       0.2484   0.6104   0.4747     H
H       0.2484   0.8896   0.9747     H
N         0.25  0.07426      0.5     N
N         0.25  0.42574      0.0     N
N         0.25  0.57426      0.5     N
N         0.25  0.92574      0.0     N
H       0.2516   0.1104   0.4747     H
H       0.2516   0.3896   0.9747     H
H       0.2516   0.6104   0.5253     H
H       0.2516   0.8896   0.0253     H
H       0.2649   0.0758   0.7183     H
H       0.2649   0.4242   0.2183     H
H       0.2649   0.5758   0.2817     H
H       0.2649   0.9242   0.7817     H
H       0.2655   0.0765   0.7803     H
H       0.2655   0.4235   0.2803     H
H       0.2655   0.5765   0.2197     H
H       0.2655   0.9235   0.7197     H
C      0.27068  0.07689  0.25055     C
C      0.27068  0.42311  0.75055     C
C      0.27068  0.57689  0.74945     C
C      0.27068  0.92311  0.24945     C
C      0.32163  0.15655   0.2507     C
C      0.32163  0.34345   0.7507     C
C      0.32163  0.65655   0.7493     C
C      0.32163  0.84345   0.2493     C
N      0.32426      0.0     0.25     N
N      0.32426      0.5     0.75     N
H       0.3258   0.0149   0.0317     H
H       0.3258   0.4851   0.5317     H
H       0.3258   0.5149   0.9683     H
H       0.3258   0.9851   0.4683     H
H       0.3265   0.0155   0.9697     H
H       0.3265   0.4845   0.4697     H
H       0.3265   0.5155   0.0303     H
H       0.3265   0.9845   0.5303     H
C      0.32689  0.02068  0.49945     C
C      0.32689  0.47932  0.99945     C
C      0.32689  0.52068  0.50055     C
C      0.32689  0.97932  0.00055     C
H       0.3287   0.1734    0.172     H
H       0.3287   0.3266    0.672     H
H       0.3287   0.6734    0.828     H
H       0.3287   0.8266    0.328     H
H       0.3298   0.1667   0.3294     H
H       0.3298   0.3333   0.8294     H
H       0.3298   0.6667   0.6706     H
H       0.3298   0.8333   0.1706     H
C      0.34388  0.19628  0.20438     C
C      0.34388  0.30372  0.70438     C
C      0.34388  0.69628  0.79562     C
C      0.34388  0.80372  0.29562     C
C      0.34527  0.19293  0.29803     C
C      0.34527  0.30707  0.79803     C
C      0.34527  0.69293  0.70197     C
C      0.34527  0.80707  0.20197     C
H       0.3604   0.0016   0.2753     H
H       0.3604   0.4984   0.7753     H
H       0.3604   0.5016   0.7247     H
H       0.3604   0.9984   0.2247     H
C      0.38889  0.22969  0.70646     C
C      0.38889  0.27031  0.20646     C
C      0.38889  0.72969  0.29354     C
C      0.38889  0.77031  0.79354     C
N       0.3896  0.23545  0.80063     N
N       0.3896  0.26455  0.30063     N
N       0.3896  0.73545  0.19937     N
N       0.3896  0.76455  0.69937     N
H       0.3987   0.1916   0.9935     H
H       0.3987   0.3084   0.4935     H
H       0.3987   0.6916   0.0065     H
H       0.3987   0.8084   0.5065     H
H       0.4041   0.2018   0.6756     H
H       0.4041   0.2982   0.1756     H
H       0.4041   0.7018   0.3244     H
H       0.4041   0.7982   0.8244     H
C      0.40655  0.07163   0.4993     C
C      0.40655  0.42837   0.9993     C
C      0.40655  0.57163   0.5007     C
C      0.40655  0.92837   0.0007     C
C      0.41073  0.19821  0.75513     C
C      0.41073  0.30179  0.25513     C
C      0.41073  0.69821  0.24487     C
C      0.41073  0.80179  0.74487     C
H       0.4167   0.0798   0.4206     H
H       0.4167   0.4202   0.9206     H
H       0.4167   0.5798   0.5794     H
H       0.4167   0.9202   0.0794     H
H       0.4234   0.0787    0.578     H
H       0.4234   0.4213    0.078     H
H       0.4234   0.5787    0.422     H
H       0.4234   0.9213    0.922     H
Ag     0.43192  0.18192    0.875    Ag
Ag     0.43192  0.31808    0.375    Ag
Ag     0.43192  0.68192    0.125    Ag
Ag     0.43192  0.81808    0.625    Ag
H       0.4416   0.1487   0.7565     H
H       0.4416   0.3513   0.2565     H
H       0.4416   0.6487   0.2435     H
H       0.4416   0.8513   0.7435     H
C      0.44293  0.09527  0.45197     C
C      0.44293  0.40473  0.95197     C
C      0.44293  0.59527  0.54803     C
C      0.44293  0.90473  0.04803     C
C      0.44628  0.09388  0.54562     C
C      0.44628  0.40612  0.04562     C
C      0.44628  0.59388  0.45438     C
C      0.44628  0.90612  0.95438     C
C      0.44821  0.16073  0.99487     C
C      0.44821  0.33927  0.49487     C
C      0.44821  0.66073  0.00513     C
C      0.44821  0.83927  0.50513     C
H       0.4518   0.1541   0.0744     H
H       0.4518   0.3459   0.5744     H
H       0.4518   0.6541   0.9256     H
H       0.4518   0.8459   0.4256     H
C      0.47969  0.13889  0.04354     C
C      0.47969  0.36111  0.54354     C
C      0.47969  0.63889  0.95646     C
C      0.47969  0.86111  0.45646     C
N      0.48545   0.1396  0.94937     N
N      0.48545   0.3604  0.44937     N
N      0.48545   0.6396  0.05063     N
N      0.48545   0.8604  0.55063     N
N      0.51455   0.1396  0.44937     N
N      0.51455   0.3604  0.94937     N
N      0.51455   0.6396  0.55063     N
N      0.51455   0.8604  0.05063     N
C      0.52031  0.13889  0.54354     C
C      0.52031  0.36111  0.04354     C
C      0.52031  0.63889  0.45646     C
C      0.52031  0.86111  0.95646     C
H       0.5482   0.1541   0.5744     H
H       0.5482   0.3459   0.0744     H
H       0.5482   0.6541   0.4256     H
H       0.5482   0.8459   0.9256     H
C      0.55179  0.16073  0.49487     C
C      0.55179  0.33927  0.99487     C
C      0.55179  0.66073  0.50513     C
C      0.55179  0.83927  0.00513     C
C      0.55372  0.09388  0.04562     C
C      0.55372  0.40612  0.54562     C
C      0.55372  0.59388  0.95438     C
C      0.55372  0.90612  0.45438     C
C      0.55707  0.09527  0.95197     C
C      0.55707  0.40473  0.45197     C
C      0.55707  0.59527  0.04803     C
C      0.55707  0.90473  0.54803     C
H       0.5584   0.1487   0.2565     H
H       0.5584   0.3513   0.7565     H
H       0.5584   0.6487   0.7435     H
H       0.5584   0.8513   0.2435     H
Ag     0.56808  0.18192    0.375    Ag
Ag     0.56808  0.31808    0.875    Ag
Ag     0.56808  0.68192    0.625    Ag
Ag     0.56808  0.81808    0.125    Ag
H       0.5766   0.0787    0.078     H
H       0.5766   0.4213    0.578     H
H       0.5766   0.5787    0.922     H
H       0.5766   0.9213    0.422     H
H       0.5833   0.0798   0.9206     H
H       0.5833   0.4202   0.4206     H
H       0.5833   0.5798   0.0794     H
H       0.5833   0.9202   0.5794     H
C      0.58927  0.19821  0.25513     C
C      0.58927  0.30179  0.75513     C
C      0.58927  0.69821  0.74487     C
C      0.58927  0.80179  0.24487     C
C      0.59345  0.07163   0.9993     C
C      0.59345  0.42837   0.4993     C
C      0.59345  0.57163   0.0007     C
C      0.59345  0.92837   0.5007     C
H       0.5959   0.2018   0.1756     H
H       0.5959   0.2982   0.6756     H
H       0.5959   0.7018   0.8244     H
H       0.5959   0.7982   0.3244     H
H       0.6013   0.1916   0.4935     H
H       0.6013   0.3084   0.9935     H
H       0.6013   0.6916   0.5065     H
H       0.6013   0.8084   0.0065     H
N       0.6104  0.23545  0.30063     N
N       0.6104  0.26455  0.80063     N
N       0.6104  0.73545  0.69937     N
N       0.6104  0.76455  0.19937     N
C      0.61111  0.22969  0.20646     C
C      0.61111  0.27031  0.70646     C
C      0.61111  0.72969  0.79354     C
C      0.61111  0.77031  0.29354     C
H       0.6396   0.0016   0.7753     H
H       0.6396   0.4984   0.2753     H
H       0.6396   0.5016   0.2247     H
H       0.6396   0.9984   0.7247     H
C      0.65473  0.19293  0.79803     C
C      0.65473  0.30707  0.29803     C
C      0.65473  0.69293  0.20197     C
C      0.65473  0.80707  0.70197     C
C      0.65612  0.19628  0.70438     C
C      0.65612  0.30372  0.20438     C
C      0.65612  0.69628  0.29562     C
C      0.65612  0.80372  0.79562     C
H       0.6702   0.1667   0.8294     H
H       0.6702   0.3333   0.3294     H
H       0.6702   0.6667   0.1706     H
H       0.6702   0.8333   0.6706     H
H       0.6713   0.1734    0.672     H
H       0.6713   0.3266    0.172     H
H       0.6713   0.6734    0.328     H
H       0.6713   0.8266    0.828     H
C      0.67311  0.02068  0.99945     C
C      0.67311  0.47932  0.49945     C
C      0.67311  0.52068  0.00055     C
C      0.67311  0.97932  0.50055     C
H       0.6735   0.0155   0.4697     H
H       0.6735   0.4845   0.9697     H
H       0.6735   0.5155   0.5303     H
H       0.6735   0.9845   0.0303     H
H       0.6742   0.0149   0.5317     H
H       0.6742   0.4851   0.0317     H
H       0.6742   0.5149   0.4683     H
H       0.6742   0.9851   0.9683     H
N      0.67574      0.0     0.75     N
N      0.67574      0.5     0.25     N
C      0.67837  0.15655   0.7507     C
C      0.67837  0.34345   0.2507     C
C      0.67837  0.65655   0.2493     C
C      0.67837  0.84345   0.7493     C
C      0.72932  0.07689  0.75055     C
C      0.72932  0.42311  0.25055     C
C      0.72932  0.57689  0.24945     C
C      0.72932  0.92311  0.74945     C
H       0.7345   0.0765   0.2803     H
H       0.7345   0.4235   0.7803     H
H       0.7345   0.5765   0.7197     H
H       0.7345   0.9235   0.2197     H
H       0.7351   0.0758   0.2183     H
H       0.7351   0.4242   0.7183     H
H       0.7351   0.5758   0.7817     H
H       0.7351   0.9242   0.2817     H
H       0.7484   0.1104   0.9747     H
H       0.7484   0.3896   0.4747     H
H       0.7484   0.6104   0.0253     H
H       0.7484   0.8896   0.5253     H
N         0.75  0.07426      0.0     N
N         0.75  0.42574      0.5     N
N         0.75  0.57426      0.0     N
N         0.75  0.92574      0.5     N
H       0.7516   0.1104   0.0253     H
H       0.7516   0.3896   0.5253     H
H       0.7516   0.6104   0.9747     H
H       0.7516   0.8896   0.4747     H
H       0.7649   0.0758   0.7817     H
H       0.7649   0.4242   0.2817     H
H       0.7649   0.5758   0.2183     H
H       0.7649   0.9242   0.7183     H
H       0.7655   0.0765   0.7197     H
H       0.7655   0.4235   0.2197     H
H       0.7655   0.5765   0.2803     H
H       0.7655   0.9235   0.7803     H
C      0.77068  0.07689  0.24945     C
C      0.77068  0.42311  0.74945     C
C      0.77068  0.57689  0.75055     C
C      0.77068  0.92311  0.25055     C
C      0.82163  0.15655   0.2493     C
C      0.82163  0.34345   0.7493     C
C      0.82163  0.65655   0.7507     C
C      0.82163  0.84345   0.2507     C
N      0.82426      0.0     0.25     N
N      0.82426      0.5     0.75     N
H       0.8258   0.0149   0.4683     H
H       0.8258   0.4851   0.9683     H
H       0.8258   0.5149   0.5317     H
H       0.8258   0.9851   0.0317     H
H       0.8265   0.0155   0.5303     H
H       0.8265   0.4845   0.0303     H
H       0.8265   0.5155   0.4697     H
H       0.8265   0.9845   0.9697     H
C      0.82689  0.02068  0.00055     C
C      0.82689  0.47932  0.50055     C
C      0.82689  0.52068  0.99945     C
C      0.82689  0.97932  0.49945     C
H       0.8287   0.1734    0.328     H
H       0.8287   0.3266    0.828     H
H       0.8287   0.6734    0.672     H
H       0.8287   0.8266    0.172     H
H       0.8298   0.1667   0.1706     H
H       0.8298   0.3333   0.6706     H
H       0.8298   0.6667   0.8294     H
H       0.8298   0.8333   0.3294     H
C      0.84388  0.19628  0.29562     C
C      0.84388  0.30372  0.79562     C
C      0.84388  0.69628  0.70438     C
C      0.84388  0.80372  0.20438     C
C      0.84527  0.19293  0.20197     C
C      0.84527  0.30707  0.70197     C
C      0.84527  0.69293  0.79803     C
C      0.84527  0.80707  0.29803     C
H       0.8604   0.0016   0.2247     H
H       0.8604   0.4984   0.7247     H
H       0.8604   0.5016   0.7753     H
H       0.8604   0.9984   0.2753     H
C      0.88889  0.22969  0.79354     C
C      0.88889  0.27031  0.29354     C
C      0.88889  0.72969  0.20646     C
C      0.88889  0.77031  0.70646     C
N       0.8896  0.23545  0.69937     N
N       0.8896  0.26455  0.19937     N
N       0.8896  0.73545  0.30063     N
N       0.8896  0.76455  0.80063     N
H       0.8987   0.1916   0.5065     H
H       0.8987   0.3084   0.0065     H
H       0.8987   0.6916   0.4935     H
H       0.8987   0.8084   0.9935     H
H       0.9041   0.2018   0.8244     H
H       0.9041   0.2982   0.3244     H
H       0.9041   0.7018   0.1756     H
H       0.9041   0.7982   0.6756     H
C      0.90655  0.07163   0.0007     C
C      0.90655  0.42837   0.5007     C
C      0.90655  0.57163   0.9993     C
C      0.90655  0.92837   0.4993     C
C      0.91073  0.19821  0.74487     C
C      0.91073  0.30179  0.24487     C
C      0.91073  0.69821  0.25513     C
C      0.91073  0.80179  0.75513     C
H       0.9167   0.0798   0.0794     H
H       0.9167   0.4202   0.5794     H
H       0.9167   0.5798   0.9206     H
H       0.9167   0.9202   0.4206     H
H       0.9234   0.0787    0.922     H
H       0.9234   0.4213    0.422     H
H       0.9234   0.5787    0.078     H
H       0.9234   0.9213    0.578     H
Ag     0.93192  0.18192    0.625    Ag
Ag     0.93192  0.31808    0.125    Ag
Ag     0.93192  0.68192    0.375    Ag
Ag     0.93192  0.81808    0.875    Ag
H       0.9416   0.1487   0.7435     H
H       0.9416   0.3513   0.2435     H
H       0.9416   0.6487   0.2565     H
H       0.9416   0.8513   0.7565     H
C      0.94293  0.09527  0.04803     C
C      0.94293  0.40473  0.54803     C
C      0.94293  0.59527  0.95197     C
C      0.94293  0.90473  0.45197     C
C      0.94628  0.09388  0.95438     C
C      0.94628  0.40612  0.45438     C
C      0.94628  0.59388  0.04562     C
C      0.94628  0.90612  0.54562     C
C      0.94821  0.16073  0.50513     C
C      0.94821  0.33927  0.00513     C
C      0.94821  0.66073  0.49487     C
C      0.94821  0.83927  0.99487     C
H       0.9518   0.1541   0.4256     H
H       0.9518   0.3459   0.9256     H
H       0.9518   0.6541   0.5744     H
H       0.9518   0.8459   0.0744     H
C      0.97969  0.13889  0.45646     C
C      0.97969  0.36111  0.95646     C
C      0.97969  0.63889  0.54354     C
C      0.97969  0.86111  0.04354     C
N      0.98545   0.1396  0.55063     N
N      0.98545   0.3604  0.05063     N
N      0.98545   0.6396  0.44937     N
N      0.98545   0.8604  0.94937     N
