data_I
_chemical_name_common  '/home/zhangsd/repos/MofS-CGCNN/ML/data/TSD/clean_cifs/KOGYIP_clean'
_cell_length_a 15.08300
_cell_length_b 20.53100
_cell_length_c  3.66560
_cell_angle_alpha 90.00000
_cell_angle_beta  90.00000
_cell_angle_gamma 90.00000
_space_group_name_H-M_alt      'P 1'


loop_
_space_group_symop_operation_xyz
  'x, y, z' 

loop_
_atom_site_label
_atom_site_fract_x
_atom_site_fract_y
_atom_site_fract_z
_atom_site_type_symbol
Cl         0.0      0.0      0.0    Cl
H       0.0604   0.1295   0.2857     H
H       0.0604   0.8705   0.7143     H
H       0.1095   0.2343   0.2649     H
H       0.1095   0.7657   0.7351     H
C       0.1183   0.1384   0.3574     C
C       0.1183   0.8616   0.6426     C
Cu     0.12178      0.0      0.5    Cu
C       0.1471   0.2015   0.3463     C
C       0.1471   0.7985   0.6537     C
H       0.1555   0.3287   0.6365     H
H       0.1555   0.6713   0.3635     H
N       0.1691   0.0889   0.4658     N
N       0.1691   0.9111   0.5342     N
H       0.2135   0.4316   0.6587     H
H       0.2135   0.5684   0.3413     H
C       0.2141    0.336   0.5679     C
C       0.2141    0.664   0.4321     C
C       0.2319   0.2163    0.456     C
C       0.2319   0.7837    0.544     C
C       0.2488   0.3976   0.5745     C
C       0.2488   0.6024   0.4255     C
C       0.2512   0.1024   0.5745     C
C       0.2512   0.8976   0.4255     C
C       0.2681   0.2837    0.456     C
C       0.2681   0.7163    0.544     C
C       0.2859    0.164   0.5679     C
C       0.2859    0.836   0.4321     C
H       0.2865   0.0684   0.6587     H
H       0.2865   0.9316   0.3413     H
N       0.3309   0.4111   0.4658     N
N       0.3309   0.5889   0.5342     N
H       0.3445   0.1713   0.6365     H
H       0.3445   0.8287   0.3635     H
C       0.3529   0.2985   0.3463     C
C       0.3529   0.7015   0.6537     C
Cu     0.37822      0.5      0.5    Cu
C       0.3817   0.3616   0.3574     C
C       0.3817   0.6384   0.6426     C
H       0.3905   0.2657   0.2649     H
H       0.3905   0.7343   0.7351     H
H       0.4396   0.3705   0.2857     H
H       0.4396   0.6295   0.7143     H
Cl         0.5      0.5      0.0    Cl
H       0.5604   0.3705   0.7143     H
H       0.5604   0.6295   0.2857     H
H       0.6095   0.2657   0.7351     H
H       0.6095   0.7343   0.2649     H
C       0.6183   0.3616   0.6426     C
C       0.6183   0.6384   0.3574     C
Cu     0.62178      0.5      0.5    Cu
C       0.6471   0.2985   0.6537     C
C       0.6471   0.7015   0.3463     C
H       0.6555   0.1713   0.3635     H
H       0.6555   0.8287   0.6365     H
N       0.6691   0.4111   0.5342     N
N       0.6691   0.5889   0.4658     N
H       0.7135   0.0684   0.3413     H
H       0.7135   0.9316   0.6587     H
C       0.7141    0.164   0.4321     C
C       0.7141    0.836   0.5679     C
C       0.7319   0.2837    0.544     C
C       0.7319   0.7163    0.456     C
C       0.7488   0.1024   0.4255     C
C       0.7488   0.8976   0.5745     C
C       0.7512   0.3976   0.4255     C
C       0.7512   0.6024   0.5745     C
C       0.7681   0.2163    0.544     C
C       0.7681   0.7837    0.456     C
C       0.7859    0.336   0.4321     C
C       0.7859    0.664   0.5679     C
H       0.7865   0.4316   0.3413     H
H       0.7865   0.5684   0.6587     H
N       0.8309   0.0889   0.5342     N
N       0.8309   0.9111   0.4658     N
H       0.8445   0.3287   0.3635     H
H       0.8445   0.6713   0.6365     H
C       0.8529   0.2015   0.6537     C
C       0.8529   0.7985   0.3463     C
Cu     0.87822      0.0      0.5    Cu
C       0.8817   0.1384   0.6426     C
C       0.8817   0.8616   0.3574     C
H       0.8905   0.2343   0.7351     H
H       0.8905   0.7657   0.2649     H
H       0.9396   0.1295   0.7143     H
H       0.9396   0.8705   0.2857     H
