data_I
_chemical_name_common  '/home/zhangsd/repos/MofS-CGCNN/ML/data/TSD/clean_cifs/KOJZEP_manual'
_cell_length_a 12.26180
_cell_length_b 25.73280
_cell_length_c 25.73280
_cell_angle_alpha 62.47360
_cell_angle_beta  80.86070
_cell_angle_gamma 99.13930
_space_group_name_H-M_alt      'P 1'


loop_
_space_group_symop_operation_xyz
  'x, y, z' 

loop_
_atom_site_label
_atom_site_fract_x
_atom_site_fract_y
_atom_site_fract_z
_atom_site_type_symbol
O      0.02184  0.53667  0.06287     O
O      0.02184  0.93713  0.46333     O
H      0.05295  0.56915  0.13575     H
H      0.05295  0.86425  0.43085     H
Cu     0.05444  0.45931      0.0    Cu
Cu     0.05444      1.0  0.54069    Cu
O      0.08471  0.06287  0.40046     O
O      0.08471  0.59954  0.93713     O
C      0.08597  0.50269    0.081     C
C      0.08597    0.919  0.49731     C
C      0.11143  0.53857  0.15408     C
C      0.11143  0.84592  0.46143     C
O      0.11379  0.46836  0.06257     O
O      0.11379  0.93743  0.53164     O
H      0.12529   0.4406   0.3436     H
H      0.12529   0.6564   0.5594     H
N       0.1326   0.6214   0.2316     N
N       0.1326   0.7684   0.3786     N
C      0.13579  0.50293  0.13101     C
C      0.13579  0.86899  0.49707     C
C       0.1462   0.5861   0.2155     C
C       0.1462   0.7845   0.4139     C
C      0.15542  0.53973  0.20027     C
C      0.15542  0.79973  0.46027     C
C      0.16697    0.081  0.41631     C
C      0.16697  0.58369    0.919     C
O      0.17636  0.06257  0.46907     O
O      0.17636  0.53093  0.93743     O
H      0.18869  0.13574   0.2951     H
H      0.18869   0.7049  0.86426     H
H      0.20699  0.43993  0.42737     H
H      0.20699  0.57263  0.56007     H
C      0.20824   0.4695  0.15218     C
C      0.20824  0.84782   0.5305     C
C      0.21536  0.47021  0.33133     C
C      0.21536  0.66867  0.52979     C
C      0.22892  0.50543  0.22252     C
C      0.22892  0.77748  0.49457     C
H      0.23295  0.43993  0.13269     H
H      0.23295  0.86731  0.56007     H
C      0.25485  0.47021  0.19846     C
C      0.25485  0.80154  0.52979     C
C      0.26126   0.4695  0.37832     C
C      0.26126  0.62168   0.5305     C
C      0.26551  0.15408  0.30735     C
C      0.26551  0.69265  0.84592     C
C       0.2668  0.13101  0.36606     C
C       0.2668  0.63394  0.86899     C
C      0.27651  0.50543  0.27205     C
C      0.27651  0.72795  0.49457     C
H      0.31531   0.4406   0.2158     H
H      0.31531   0.7842   0.5594     H
O      0.35457  0.46836  0.46907     O
O      0.35457  0.53093  0.53164     O
C      0.35569  0.20027     0.26     C
C      0.35569     0.74  0.79973     C
C      0.36042  0.15218  0.37832     C
C      0.36042  0.62168  0.84782     C
C       0.3617   0.2155   0.1984     C
C       0.3617   0.8016   0.7845     C
N       0.3642   0.2316    0.147     N
N       0.3642    0.853   0.7684     N
H      0.36564  0.13269  0.42737     H
H      0.36564  0.57263  0.86731     H
C      0.36714  0.50293  0.36606     C
C      0.36714  0.63394  0.49707     C
C      0.38431  0.53973     0.26     C
C      0.38431     0.74  0.46027     C
Cu     0.40487  0.45931  0.54069    Cu
C      0.41672  0.50269  0.41631     C
C      0.41672  0.58369  0.49731     C
C      0.42714  0.53857  0.30735     C
C      0.42714  0.69265  0.46143     C
C       0.4399   0.5861   0.1984     C
C       0.4399   0.8016   0.4139     C
C      0.45144  0.22252  0.27205     C
C      0.45144  0.72795  0.77748     C
C      0.45331  0.19846  0.33133     C
C      0.45331  0.66867  0.80154     C
H      0.46889   0.3436   0.2158     H
H      0.46889   0.7842   0.6564     H
H       0.4838   0.2951  0.56915     H
H       0.4838  0.43085   0.7049     H
O      0.48517  0.40046  0.53667     O
O      0.48517  0.46333  0.59954     O
N       0.4888   0.6214    0.147     N
N       0.4888    0.853   0.3786     N
N       0.5112    0.147   0.6214     N
N       0.5112   0.3786    0.853     N
O      0.51483  0.53667  0.40046     O
O      0.51483  0.59954  0.46333     O
H       0.5162  0.56915   0.2951     H
H       0.5162   0.7049  0.43085     H
H      0.53111   0.2158   0.3436     H
H      0.53111   0.6564   0.7842     H
C      0.54669  0.33133  0.19846     C
C      0.54669  0.80154  0.66867     C
C      0.54856  0.27205  0.22252     C
C      0.54856  0.77748  0.72795     C
C       0.5601   0.1984   0.5861     C
C       0.5601   0.4139   0.8016     C
C      0.57286  0.30735  0.53857     C
C      0.57286  0.46143  0.69265     C
C      0.58328  0.41631  0.50269     C
C      0.58328  0.49731  0.58369     C
Cu     0.59513  0.54069  0.45931    Cu
C      0.61569     0.26  0.53973     C
C      0.61569  0.46027     0.74     C
C      0.63286  0.36606  0.50293     C
C      0.63286  0.49707  0.63394     C
H      0.63569  0.42761  0.13222     H
H      0.63569  0.86778  0.57239     H
N       0.6358    0.147   0.2316     N
N       0.6358   0.7684    0.853     N
C       0.6383   0.1984   0.2155     C
C       0.6383   0.7845   0.8016     C
C      0.63958  0.37832  0.15218     C
C      0.63958  0.84782  0.62168     C
C      0.64431     0.26  0.20027     C
C      0.64431  0.79973     0.74     C
O      0.64543  0.46907  0.46836     O
O      0.64543  0.53164  0.53093     O
H      0.68469   0.2158   0.4406     H
H      0.68469   0.5594   0.7842     H
C      0.72349  0.27205  0.50543     C
C      0.72349  0.49457  0.72795     C
C       0.7332  0.36606  0.13101     C
C       0.7332  0.86899  0.63394     C
C      0.73449  0.30735  0.15408     C
C      0.73449  0.84592  0.69265     C
C      0.73874  0.37832   0.4695     C
C      0.73874   0.5305  0.62168     C
C      0.74515  0.19846  0.47021     C
C      0.74515  0.52979  0.80154     C
H      0.76705  0.13269  0.43993     H
H      0.76705  0.56007  0.86731     H
C      0.77108  0.22252  0.50543     C
C      0.77108  0.49457  0.77748     C
C      0.78464  0.33133  0.47021     C
C      0.78464  0.52979  0.66867     C
C      0.79176  0.15218   0.4695     C
C      0.79176   0.5305  0.84782     C
H      0.79192  0.55983  0.57239     H
H      0.79301  0.42737  0.43993     H
H      0.81131   0.2951  0.13574     H
H      0.81131  0.86426   0.7049     H
O      0.82364  0.46907  0.06257     O
O      0.82364  0.93743  0.53093     O
C      0.83303  0.41631    0.081     C
C      0.83303    0.919  0.58369     C
C      0.84458  0.20027  0.53973     C
C      0.84458  0.46027  0.79973     C
C       0.8538   0.2155   0.5861     C
C       0.8538   0.4139   0.7845     C
C      0.86421  0.13101  0.50293     C
C      0.86421  0.49707  0.86899     C
N       0.8674   0.2316   0.6214     N
N       0.8674   0.3786   0.7684     N
H      0.87471   0.3436   0.4406     H
H      0.87471   0.5594   0.6564     H
O      0.88621  0.06257  0.46836     O
O      0.88621  0.53164  0.93743     O
C      0.88857  0.15408  0.53857     C
C      0.88857  0.46143  0.84592     C
C      0.91403    0.081  0.50269     C
C      0.91403  0.49731    0.919     C
O      0.91529  0.40046  0.06287     O
O      0.91529  0.93713  0.59954     O
Cu     0.94556      0.0  0.45931    Cu
Cu     0.94556  0.54069     -0.0    Cu
H      0.94705  0.13575  0.56915     H
H      0.94705  0.43085  0.86425     H
O      0.97816  0.06287  0.53667     O
O      0.97816  0.46333  0.93713     O
