data_I
_chemical_name_common  '/home/zhangsd/repos/MofS-CGCNN/ML/data/TSD/clean_cifs/KOJZIT_clean'
_cell_length_a 10.46930
_cell_length_b 26.97830
_cell_length_c 26.97830
_cell_angle_alpha 61.64710
_cell_angle_beta  82.56770
_cell_angle_gamma 97.43230
_space_group_name_H-M_alt      'P 1'


loop_
_space_group_symop_operation_xyz
  'x, y, z' 

loop_
_atom_site_label
_atom_site_fract_x
_atom_site_fract_y
_atom_site_fract_z
_atom_site_type_symbol
H       0.0206   0.5731    0.301     H
H       0.0206    0.699   0.4269     H
C      0.02599  0.19917   0.5976     C
C      0.02599   0.4024  0.80083     C
H       0.0279   0.1951   0.6349     H
H       0.0279   0.3651   0.8049     H
C      0.03042  0.32326   0.1991     C
C      0.03042   0.8009  0.67674     C
O      0.03441   0.5377  0.40294     O
O      0.03441  0.59706   0.4623     O
C       0.0495  0.26771  0.21741     C
C       0.0495  0.78259  0.73229     C
C      0.05829  0.30673  0.54886     C
C      0.05829  0.45114  0.69327     C
H       0.0638   0.5936    0.194     H
H       0.0638    0.806   0.4064     H
H       0.0658   0.1706   0.5939     H
H       0.0658   0.4061   0.8294     H
C      0.08034  0.41268  0.50946     C
C      0.08034  0.49054  0.58732     C
C      0.10136  0.25838   0.5513     C
C      0.10136   0.4487  0.74162     C
H       0.1048   0.1706   0.2355     H
H       0.1048   0.7645   0.8294     H
Cu     0.11356  0.53429  0.46571    Cu
H       0.1139   0.4068   0.1432     H
H       0.1139   0.8568   0.5932     H
C       0.1244  0.36943  0.15443     C
C       0.1244  0.84557  0.63057     C
C      0.12988  0.36193  0.51169     C
C      0.12988  0.48831  0.63807     C
C      0.15702  0.25838  0.19032     C
C      0.15702  0.80968  0.74162     C
O      0.15823  0.46119   0.4788     O
O      0.15823   0.5212  0.53881     O
H       0.1672   0.1951     0.17     H
H       0.1672     0.83   0.8049     H
C      0.17318  0.19917  0.20323     C
C      0.17318  0.79677  0.80083     C
C      0.21821  0.26771  0.51488     C
C      0.21821  0.48512  0.73229     C
C      0.22952   0.1991  0.47764     C
C      0.22952  0.52236   0.8009     C
C      0.23205  0.36193  0.12638     C
C      0.23205  0.87362  0.63807     C
C      0.24503  0.36943  0.47614     C
C      0.24503  0.52386  0.63057     C
C      0.24844  0.30673  0.14441     C
C      0.24844  0.85559  0.69327     C
H       0.2571   0.1432     0.45     H
H       0.2571     0.55   0.8568     H
H       0.2578    0.194   0.2124     H
H       0.2578   0.7876    0.806     H
C      0.26691  0.21741  0.51488     C
C      0.26691  0.48512  0.78259     C
C      0.27883  0.15443  0.47614     C
C      0.27883  0.52386  0.84557     C
C      0.29284  0.32326  0.47764     C
C      0.29284  0.52236  0.67674     C
H       0.2929   0.4068     0.45     H
H       0.2929     0.55   0.5932     H
O      0.30296  0.46119  0.06001     O
O      0.30296  0.93999  0.53881     O
H       0.3216    0.301   0.1259     H
H       0.3216   0.8741    0.699     H
C      0.33234  0.41268  0.07786     C
C      0.33234  0.92214  0.58732     C
H       0.3372     0.17   0.6349     H
H       0.3372   0.3651     0.83     H
H       0.3403   0.2355   0.5939     H
H       0.3403   0.4061   0.7645     H
C      0.34734  0.19032   0.5513     C
C      0.34734   0.4487  0.80968     C
C      0.35843  0.12638  0.51169     C
C      0.35843  0.48831  0.87362     C
O      0.36297  0.06001   0.4788     O
O      0.36297   0.5212  0.93999     O
C      0.37641  0.20323   0.5976     C
C      0.37641   0.4024  0.79677     C
C      0.39285  0.14441  0.54886     C
C      0.39285  0.45114  0.85559     C
C       0.4102  0.07786  0.50946     C
C       0.4102  0.49054  0.92214     C
Cu     0.42073  0.53429      0.0    Cu
Cu     0.42073      1.0  0.46571    Cu
O      0.43735  0.40294  0.05936     O
O      0.43735  0.94064  0.59706     O
H       0.4475   0.1259   0.5731     H
H       0.4475   0.4269   0.8741     H
H       0.4702   0.2124   0.5936     H
H       0.4702   0.4064   0.7876     H
O      0.49671  0.05936   0.5377     O
O      0.49671   0.4623  0.94064     O
O      0.50329   0.5377  0.05936     O
O      0.50329  0.94064   0.4623     O
H       0.5298   0.5936   0.2124     H
H       0.5298   0.7876   0.4064     H
H       0.5525   0.5731   0.1259     H
H       0.5525   0.8741   0.4269     H
O      0.56265  0.05936  0.40294     O
O      0.56265  0.59706  0.94064     O
Cu     0.57927      0.0  0.53429    Cu
Cu     0.57927  0.46571      0.0    Cu
C       0.5898  0.50946  0.07786     C
C       0.5898  0.92214  0.49054     C
C      0.60715  0.54886  0.14441     C
C      0.60715  0.85559  0.45114     C
C      0.62359   0.5976  0.20323     C
C      0.62359  0.79677   0.4024     C
O      0.63703   0.4788  0.06001     O
O      0.63703  0.93999   0.5212     O
C      0.64157  0.51169  0.12638     C
C      0.64157  0.87362  0.48831     C
C      0.65266   0.5513  0.19032     C
C      0.65266  0.80968   0.4487     C
H       0.6597   0.5939   0.2355     H
H       0.6597   0.7645   0.4061     H
H       0.6628   0.6349     0.17     H
H       0.6628     0.83   0.3651     H
C      0.66766  0.07786  0.41268     C
C      0.66766  0.58732  0.92214     C
H       0.6784   0.1259    0.301     H
H       0.6784    0.699   0.8741     H
O      0.69704  0.06001  0.46119     O
O      0.69704  0.53881  0.93999     O
H       0.7071     0.45   0.4068     H
H       0.7071   0.5932     0.55     H
C      0.70716  0.47764  0.32326     C
C      0.70716  0.67674  0.52236     C
C      0.72117  0.47614  0.15443     C
C      0.72117  0.84557  0.52386     C
C      0.73309  0.51488  0.21741     C
C      0.73309  0.78259  0.48512     C
H       0.7422   0.2124    0.194     H
H       0.7422    0.806   0.7876     H
H       0.7429     0.45   0.1432     H
H       0.7429   0.8568     0.55     H
C      0.75156  0.14441  0.30673     C
C      0.75156  0.69327  0.85559     C
C      0.75497  0.47614  0.36943     C
C      0.75497  0.63057  0.52386     C
C      0.76795  0.12638  0.36193     C
C      0.76795  0.63807  0.87362     C
C      0.77048  0.47764   0.1991     C
C      0.77048   0.8009  0.52236     C
C      0.78179  0.51488  0.26771     C
C      0.78179  0.73229  0.48512     C
C      0.82682  0.20323  0.19917     C
C      0.82682  0.80083  0.79677     C
H       0.8328     0.17   0.1951     H
H       0.8328   0.8049     0.83     H
O      0.84177   0.4788  0.46119     O
O      0.84177  0.53881   0.5212     O
C      0.84298  0.19032  0.25838     C
C      0.84298  0.74162  0.80968     C
C      0.87012  0.51169  0.36193     C
C      0.87012  0.63807  0.48831     C
C       0.8756  0.15443  0.36943     C
C       0.8756  0.63057  0.84557     C
H       0.8861   0.1432   0.4068     H
H       0.8861   0.5932   0.8568     H
Cu     0.88644  0.46571  0.53429    Cu
H       0.8952   0.2355   0.1706     H
H       0.8952   0.8294   0.7645     H
C      0.89864   0.5513  0.25838     C
C      0.89864  0.74162   0.4487     C
C      0.91966  0.50946  0.41268     C
C      0.91966  0.58732  0.49054     C
H       0.9342   0.5939   0.1706     H
H       0.9342   0.8294   0.4061     H
H       0.9362    0.194   0.5936     H
H       0.9362   0.4064    0.806     H
C      0.94171  0.54886  0.30673     C
C      0.94171  0.69327  0.45114     C
C       0.9505  0.21741  0.26771     C
C       0.9505  0.73229  0.78259     C
O      0.96559  0.40294   0.5377     O
O      0.96559   0.4623  0.59706     O
C      0.96958   0.1991  0.32326     C
C      0.96958  0.67674   0.8009     C
H       0.9721   0.6349   0.1951     H
H       0.9721   0.8049   0.3651     H
C      0.97401   0.5976  0.19917     C
C      0.97401  0.80083   0.4024     C
H       0.9794    0.301   0.5731     H
H       0.9794   0.4269    0.699     H
