data_I
_chemical_name_common  '/home/zhangsd/repos/MofS-CGCNN/ML/data/TSD/clean_cifs/KOKKOL_clean'
_cell_length_a 11.10750
_cell_length_b 11.10750
_cell_length_c 19.09250
_cell_angle_alpha 90.00000
_cell_angle_beta  90.00000
_cell_angle_gamma 120.00000
_space_group_name_H-M_alt      'P 1'


loop_
_space_group_symop_operation_xyz
  'x, y, z' 

loop_
_atom_site_label
_atom_site_fract_x
_atom_site_fract_y
_atom_site_fract_z
_atom_site_type_symbol
C        0.015   0.3942   0.0339     C
C        0.015   0.3942   0.4661     C
C        0.015   0.6208   0.0339     C
C        0.015   0.6208   0.4661     C
N       0.0223   0.2829   0.5724     N
N       0.0223   0.2829   0.9276     N
N       0.0223   0.7394   0.5724     N
N       0.0223   0.7394   0.9276     N
C       0.0243  0.51215   0.0722     C
C       0.0243  0.51215   0.4278     C
C       0.0798   0.5399   0.1445     C
C       0.0798   0.5399   0.3555     C
O       0.0999   0.4474   0.1745     O
O       0.0999   0.4474   0.3255     O
O       0.0999   0.6525   0.1745     O
O       0.0999   0.6525   0.3255     O
Fe      0.2328   0.4656     0.25    Fe
Fe      0.2328   0.7672     0.25    Fe
N       0.2606   0.2829   0.5724     N
N       0.2606   0.2829   0.9276     N
N       0.2606   0.9777   0.5724     N
N       0.2606   0.9777   0.9276     N
N       0.2829   0.0223   0.0724     N
N       0.2829   0.0223   0.4276     N
N       0.2829   0.2606   0.0724     N
N       0.2829   0.2606   0.4276     N
O      0.33333  0.66667     0.25     O
O       0.3475   0.4474   0.1745     O
O       0.3475   0.4474   0.3255     O
O       0.3475   0.9001   0.1745     O
O       0.3475   0.9001   0.3255     O
C       0.3792   0.3942   0.0339     C
C       0.3792   0.3942   0.4661     C
C       0.3792    0.985   0.0339     C
C       0.3792    0.985   0.4661     C
C       0.3942    0.015   0.5339     C
C       0.3942    0.015   0.9661     C
C       0.3942   0.3792   0.5339     C
C       0.3942   0.3792   0.9661     C
O       0.4474   0.0999   0.6745     O
O       0.4474   0.0999   0.8255     O
O       0.4474   0.3475   0.6745     O
O       0.4474   0.3475   0.8255     O
C       0.4601   0.5399   0.1445     C
C       0.4601   0.5399   0.3555     C
C       0.4601   0.9202   0.1445     C
C       0.4601   0.9202   0.3555     C
Fe      0.4656   0.2328     0.75    Fe
C      0.48785  0.51215   0.0722     C
C      0.48785  0.51215   0.4278     C
C      0.48785   0.9757   0.0722     C
C      0.48785   0.9757   0.4278     C
C      0.51215   0.0243   0.5722     C
C      0.51215   0.0243   0.9278     C
C      0.51215  0.48785   0.5722     C
C      0.51215  0.48785   0.9278     C
Fe      0.5344   0.7672     0.25    Fe
C       0.5399   0.0798   0.6445     C
C       0.5399   0.0798   0.8555     C
C       0.5399   0.4601   0.6445     C
C       0.5399   0.4601   0.8555     C
O       0.5526   0.6525   0.1745     O
O       0.5526   0.6525   0.3255     O
O       0.5526   0.9001   0.1745     O
O       0.5526   0.9001   0.3255     O
C       0.6058   0.6208   0.0339     C
C       0.6058   0.6208   0.4661     C
C       0.6058    0.985   0.0339     C
C       0.6058    0.985   0.4661     C
C       0.6208    0.015   0.5339     C
C       0.6208    0.015   0.9661     C
C       0.6208   0.6058   0.5339     C
C       0.6208   0.6058   0.9661     C
O       0.6525   0.0999   0.6745     O
O       0.6525   0.0999   0.8255     O
O       0.6525   0.5526   0.6745     O
O       0.6525   0.5526   0.8255     O
O      0.66667  0.33333     0.75     O
N       0.7171   0.7394   0.5724     N
N       0.7171   0.7394   0.9276     N
N       0.7171   0.9777   0.5724     N
N       0.7171   0.9777   0.9276     N
N       0.7394   0.0223   0.0724     N
N       0.7394   0.0223   0.4276     N
N       0.7394   0.7171   0.0724     N
N       0.7394   0.7171   0.4276     N
Fe      0.7672   0.2328     0.75    Fe
Fe      0.7672   0.5344     0.75    Fe
O       0.9001   0.3475   0.6745     O
O       0.9001   0.3475   0.8255     O
O       0.9001   0.5526   0.6745     O
O       0.9001   0.5526   0.8255     O
C       0.9202   0.4601   0.6445     C
C       0.9202   0.4601   0.8555     C
C       0.9757  0.48785   0.5722     C
C       0.9757  0.48785   0.9278     C
N       0.9777   0.2606   0.0724     N
N       0.9777   0.2606   0.4276     N
N       0.9777   0.7171   0.0724     N
N       0.9777   0.7171   0.4276     N
C        0.985   0.3792   0.5339     C
C        0.985   0.3792   0.9661     C
C        0.985   0.6058   0.5339     C
C        0.985   0.6058   0.9661     C
