data_I
_chemical_name_common  '/home/zhangsd/repos/MofS-CGCNN/ML/data/TSD/clean_cifs/KOMHAW_clean'
_cell_length_a  9.04360
_cell_length_b  9.73080
_cell_length_c 17.39160
_cell_angle_alpha 94.43090
_cell_angle_beta  105.07000
_cell_angle_gamma 90.00000
_space_group_name_H-M_alt      'P 1'


loop_
_space_group_symop_operation_xyz
  'x, y, z' 

loop_
_atom_site_label
_atom_site_fract_x
_atom_site_fract_y
_atom_site_fract_z
_atom_site_type_symbol
H        0.008   0.0321   0.8612     H
N      0.01193   0.2066  0.75906     N
Zn     0.03341  0.44696  0.65708    Zn
N      0.04413   0.7338  0.31126     N
H        0.052   0.5476   0.1842     H
N      0.06733   0.9812  0.18066     N
C      0.06826   0.5488  0.51352     C
C      0.08394   0.8966  0.24188     C
N      0.11168   0.4104  0.30796     N
O      0.11297   0.6025  0.45994     O
N      0.11333   0.4812  0.18066     N
O      0.12253   0.5756  0.58626     O
H       0.1322   0.0476   0.1842     H
H       0.1468   0.4679   0.1388     H
O      0.15745   0.2408   0.9343     O
C      0.15794   0.3966  0.24188     C
C      0.16648   0.8068  0.34916     C
H       0.1727    0.289   0.3994     H
C      0.18268   0.3068  0.34916     C
N      0.19628   0.9104  0.30796     N
Zn     0.21834  0.24039  0.83574    Zn
O      0.22315   0.2592   0.0657     O
H       0.2267    0.789   0.3994     H
N      0.23151   0.4931  0.74942     N
N      0.25287   0.2934  0.24094     N
C       0.2632     0.25      0.0     C
N      0.26713   0.2338  0.31126     N
N      0.30112   0.4159  0.81164     N
H       0.3017   0.6652    0.718     H
H       0.3118    0.982   0.9326     H
C      0.32275   0.5966   0.7535     C
O      0.34697   0.1025  0.45994     O
N      0.36267   0.0965  0.81354     N
N      0.37421   0.9354  0.91162     N
Zn     0.37633  0.05304  0.34292    Zn
H       0.3792    0.518   0.0674     H
Zn      0.3826  0.25961  0.16426    Zn
O        0.402     0.25      0.0     O
H       0.4107     0.86   0.9308     H
C       0.4152   0.9811   0.8478     C
H       0.4163   0.1652    0.718     H
C      0.43075   0.0966   0.7535     C
C       0.4326   0.4811   0.8478     C
C      0.44526   0.0488  0.51352     C
N      0.45087   0.5965  0.81354     N
N      0.46259   0.5646  0.08838     N
O      0.46373   0.0756  0.58626     O
H       0.4799     0.64   0.0692     H
N      0.48209   0.0069  0.25058     N
N      0.48948   0.0841  0.18836     N
N      0.51052   0.9159  0.81164     N
N      0.51791   0.9931  0.74942     N
H       0.5201     0.36   0.9308     H
O      0.53627   0.9244  0.41374     O
N      0.53741   0.4354  0.91162     N
N      0.54913   0.4035  0.18646     N
C      0.55474   0.9512  0.48648     C
C       0.5674   0.5189   0.1522     C
C      0.56925   0.9034   0.2465     C
H       0.5837   0.8348    0.282     H
C       0.5848   0.0189   0.1522     C
H       0.5893     0.14   0.0692     H
O        0.598     0.75      0.0     O
Zn      0.6174  0.74039  0.83574    Zn
H       0.6208    0.482   0.9326     H
Zn     0.62367  0.94696  0.65708    Zn
N      0.62579   0.0646  0.08838     N
N      0.63733   0.9035  0.18646     N
O      0.65303   0.8975  0.54006     O
C      0.67725   0.4034   0.2465     C
H       0.6882    0.018   0.0674     H
H       0.6983   0.3348    0.282     H
N      0.69888   0.5841  0.18836     N
N      0.73287   0.7662  0.68874     N
C       0.7368     0.75     -0.0     C
N      0.74713   0.7066  0.75906     N
N      0.76849   0.5069  0.25058     N
H       0.7733    0.211   0.6006     H
O      0.77685   0.7408   0.9343     O
Zn     0.78166  0.75961  0.16426    Zn
N      0.80372   0.0896  0.69204     N
C      0.81732   0.6932  0.65084     C
H       0.8273    0.711   0.6006     H
C      0.83352   0.1932  0.65084     C
C      0.84206   0.6034  0.75812     C
O      0.84255   0.7592   0.0657     O
H       0.8532   0.5321   0.8612     H
H       0.8678   0.9524   0.8158     H
O      0.87747   0.4244  0.41374     O
N      0.88667   0.5188  0.81934     N
O      0.88703   0.3975  0.54006     O
N      0.88832   0.5896  0.69204     N
C      0.91606   0.1034  0.75812     C
C      0.93174   0.4512  0.48648     C
N      0.93267   0.0188  0.81934     N
H        0.948   0.4524   0.8158     H
N      0.95587   0.2662  0.68874     N
Zn     0.96659  0.55304  0.34292    Zn
N      0.98807   0.7934  0.24094     N
H        0.992   0.9679   0.1388     H
