data_I
_chemical_name_common  '/home/zhangsd/repos/MofS-CGCNN/ML/data/TSD/clean_cifs/KONFIE_clean'
_cell_length_a  6.97500
_cell_length_b 12.90100
_cell_length_c 13.55100
_cell_angle_alpha 90.00000
_cell_angle_beta  100.72900
_cell_angle_gamma 90.00000
_space_group_name_H-M_alt      'P 1'


loop_
_space_group_symop_operation_xyz
  'x, y, z' 

loop_
_atom_site_label
_atom_site_fract_x
_atom_site_fract_y
_atom_site_fract_z
_atom_site_type_symbol
O          0.0   0.1154   0.9911     O
O          0.0   0.6154   0.0089     O
N        0.025   0.4525   0.1504     N
C        0.041   0.2113   0.9942     C
C        0.045   0.9869   0.7739     C
C        0.072   0.5691   0.4072     C
O        0.073   0.7801   0.0052     O
O        0.078   0.0928    0.573     O
C        0.091   0.5137   0.3107     C
O       0.1126   0.4411   0.9082     O
Ce     0.20663  0.96012  0.04123    Ce
O        0.243   0.5887   0.4647     O
C        0.254   0.2331   0.0076     C
S       0.2583   0.4414   0.1883     S
O       0.2596   0.0289   0.2148     O
C        0.262    0.002   0.7973     C
N        0.269   0.4893   0.2998     N
C        0.287   0.4201   0.9279     C
N        0.314   0.8321   0.1988     N
C        0.323   0.9806   0.2967     C
O        0.329   0.0249   0.3799     O
O        0.346   0.0043   0.8904     O
C        0.356   0.3201   0.9844     C
O       0.3603   0.0055   0.7299     O
S       0.3671   0.7082    0.201     S
C        0.373   0.8715   0.2873     C
N        0.375   0.1564   0.0462     N
O        0.385   0.2172   0.4906     O
S       0.4031   0.6926   0.9477     S
Ce     0.41472  0.03765  0.55864    Ce
O        0.415    0.388   0.4925     O
O        0.422   0.4727    0.903     O
C        0.443   0.3004   0.5341     C
N        0.453   0.8063   0.9949     N
C        0.459   0.7955   0.3578     C
N        0.463   0.7017   0.3154     N
N        0.537   0.2017   0.6846     N
C        0.541   0.2955   0.6422     C
N        0.547   0.3063   0.0051     N
C        0.557   0.8004   0.4659     C
O        0.578   0.9727    0.097     O
O        0.585    0.888   0.5075     O
Ce     0.58528  0.53765  0.44136    Ce
S       0.5969   0.1926   0.0523     S
O        0.615   0.7172   0.5094     O
N        0.625   0.6564   0.9538     N
C        0.627   0.3715   0.7127     C
S       0.6329   0.2082    0.799     S
O       0.6397   0.5055   0.2701     O
C        0.644   0.8201   0.0156     C
O        0.654   0.5043   0.1096     O
O        0.671   0.5249   0.6201     O
C        0.677   0.4806   0.7033     C
N        0.686   0.3321   0.8012     N
C        0.713   0.9201   0.0721     C
N        0.731   0.9893   0.7002     N
C        0.738    0.502   0.2027     C
O       0.7404   0.5289   0.7852     O
S       0.7417   0.9414   0.8117     S
C        0.746   0.7331   0.9924     C
O        0.757   0.0887   0.5353     O
Ce     0.79337  0.46012  0.95877    Ce
O       0.8874   0.9411   0.0918     O
C        0.909   0.0137   0.6893     C
O        0.922   0.5928    0.427     O
O        0.927   0.2801   0.9948     O
C        0.928   0.0691   0.5928     C
C        0.955   0.4869   0.2261     C
C        0.959   0.7113   0.0058     C
N        0.975   0.9525   0.8496     N
