data_I
_chemical_name_common  '/home/zhangsd/repos/MofS-CGCNN/ML/data/TSD/clean_cifs/KOSJUZ_clean'
_cell_length_a  6.80390
_cell_length_b 15.11330
_cell_length_c 15.11330
_cell_angle_alpha 62.21070
_cell_angle_beta  81.36940
_cell_angle_gamma 98.63060
_space_group_name_H-M_alt      'P 1'


loop_
_space_group_symop_operation_xyz
  'x, y, z' 

loop_
_atom_site_label
_atom_site_fract_x
_atom_site_fract_y
_atom_site_fract_z
_atom_site_type_symbol
C         0.04   0.0928   0.4678     C
C         0.04   0.5322   0.9072     C
O       0.0581   0.4954   0.3275     O
O       0.0581   0.6725   0.5046     O
C       0.0838     -0.0   0.5016     C
C       0.0838   0.4984     -0.0     C
H       0.1039  0.57585  0.42415     H
Co      0.1166   0.3025   0.2787    Co
Co      0.1166   0.7213   0.6975    Co
O       0.1757   0.1816   0.4015     O
O       0.1757   0.5985   0.8184     O
C       0.2041   0.4564   0.3578     C
C       0.2041   0.6422   0.5436     C
H      0.23705     -0.0  0.48285     H
H      0.23705  0.51715     -0.0     H
C       0.2407  0.55755  0.44245     C
O       0.2552   0.3842   0.3411     O
O       0.2552   0.6589   0.6158     O
C       0.3142   0.4905   0.4147     C
C       0.3142   0.5853   0.5095     C
O       0.3856   0.3275   0.1771     O
O       0.3856   0.8229   0.6725     O
Co      0.3953   0.2787   0.4188    Co
Co      0.3953   0.5812   0.7213    Co
C       0.5078   0.4678   0.4394     C
C       0.5078   0.5606   0.5322     C
H      0.52805     -0.0  0.57585     H
H      0.52805  0.42415     -0.0     H
C       0.5619   0.3578   0.1858     C
C       0.5619   0.8142   0.6422     C
O       0.5627   0.1771   0.4954     O
O       0.5627   0.5046   0.8229     O
O       0.5772   0.4015   0.4169     O
O       0.5772   0.5831   0.5985     O
C       0.5854   0.5016   0.4984     C
O       0.5963   0.3411   0.2747     O
O       0.5963   0.7253   0.6589     O
C      0.68315      0.0  0.55755     C
C      0.68315  0.44245     -0.0     C
H       0.7199  0.48285  0.51715     H
C       0.7289   0.4147   0.0948     C
C       0.7289   0.9052   0.5853     C
C       0.7477   0.1858   0.4564     C
C       0.7477   0.5436   0.8142     C
Co      0.8141   0.4188   0.3025    Co
Co      0.8141   0.6975   0.5812    Co
C       0.8237   0.0948   0.4905     C
C       0.8237   0.5095   0.9052     C
O        0.871   0.2747   0.3842     O
O        0.871   0.6158   0.7253     O
C       0.9472   0.4394   0.0928     C
C       0.9472   0.9072   0.5606     C
O       0.9941   0.4169   0.1816     O
O       0.9941   0.8184   0.5831     O
