data_I
_chemical_name_common  '/home/zhangsd/repos/MofS-CGCNN/ML/data/TSD/clean_cifs/KOSJIN_clean'
_cell_length_a  6.78980
_cell_length_b 15.09630
_cell_length_c 15.09630
_cell_angle_alpha 62.20660
_cell_angle_beta  81.37750
_cell_angle_gamma 98.62250
_space_group_name_H-M_alt      'P 1'


loop_
_space_group_symop_operation_xyz
  'x, y, z' 

loop_
_atom_site_label
_atom_site_fract_x
_atom_site_fract_y
_atom_site_fract_z
_atom_site_type_symbol
C       0.0363   0.0919   0.4684     C
C       0.0363   0.5316   0.9081     C
O       0.0558    0.499   0.3248     O
O       0.0558   0.6752    0.501     O
C      0.07815     -0.0  0.50355     C
C      0.07815  0.49645      0.0     C
H       0.1116   0.5769   0.4231     H
Co      0.1177   0.3007   0.2826    Co
Co      0.1177   0.7174   0.6993    Co
O       0.1764   0.1816   0.4033     O
O       0.1764   0.5967   0.8184     O
C       0.2026   0.4585   0.3557     C
C       0.2026   0.6443   0.5415     C
C       0.2395  0.55875  0.44125     C
H       0.2447     -0.0   0.4839     H
H       0.2447   0.5161     -0.0     H
O       0.2567   0.3841   0.3413     O
O       0.2567   0.6587   0.6159     O
C       0.3147   0.4911    0.415     C
C       0.3147    0.585   0.5089     C
O       0.3806   0.3248   0.1762     O
O       0.3806   0.8238   0.6752     O
Co      0.4003   0.2826   0.4167    Co
Co      0.4003   0.5833   0.7174    Co
C       0.5047   0.4684   0.4397     C
C       0.5047   0.5603   0.5316     C
H       0.5347     -0.0   0.5769     H
H       0.5347   0.4231      0.0     H
O       0.5568   0.1762    0.499     O
O       0.5568    0.501   0.8238     O
C       0.5583   0.3557   0.1858     C
C       0.5583   0.8142   0.6443     C
O       0.5797   0.4033   0.4151     O
O       0.5797   0.5849   0.5967     O
C       0.5817  0.50355  0.49645     C
O        0.598   0.3413   0.2746     O
O        0.598   0.7254   0.6587     O
C      0.68075     -0.0  0.55875     C
C      0.68075  0.44125     -0.0     C
H       0.7286   0.4839   0.5161     H
C       0.7297    0.415   0.0939     C
C       0.7297   0.9061    0.585     C
C       0.7441   0.1858   0.4585     C
C       0.7441   0.5415   0.8142     C
Co       0.817   0.4167   0.3007    Co
Co       0.817   0.6993   0.5833    Co
C       0.8236   0.0939   0.4911     C
C       0.8236   0.5089   0.9061     C
O       0.8726   0.2746   0.3841     O
O       0.8726   0.6159   0.7254     O
C       0.9444   0.4397   0.0919     C
C       0.9444   0.9081   0.5603     C
O       0.9948   0.4151   0.1816     O
O       0.9948   0.8184   0.5849     O
