data_I
_chemical_name_common  '/home/zhangsd/repos/MofS-CGCNN/ML/data/TSD/clean_cifs/KOSJOT_clean'
_cell_length_a  6.80300
_cell_length_b 15.11440
_cell_length_c 15.11440
_cell_angle_alpha 62.20980
_cell_angle_beta  81.37120
_cell_angle_gamma 98.62880
_space_group_name_H-M_alt      'P 1'


loop_
_space_group_symop_operation_xyz
  'x, y, z' 

loop_
_atom_site_label
_atom_site_fract_x
_atom_site_fract_y
_atom_site_fract_z
_atom_site_type_symbol
C         0.04   0.0943   0.4678     C
C         0.04   0.5322   0.9057     C
O       0.0521   0.4924   0.3281     O
O       0.0521   0.6719   0.5076     O
C       0.0878      0.0   0.4992     C
C       0.0878   0.5008      0.0     C
Co      0.1011   0.2994   0.2831    Co
Co      0.1011   0.7169   0.7006    Co
H        0.107   0.5685   0.4315     H
O       0.1805   0.1826   0.3989     O
O       0.1805   0.6011   0.8174     O
C       0.2032   0.4558   0.3581     C
C       0.2032   0.6419   0.5442     C
C       0.2285  0.55695  0.44305     C
H      0.23975      0.0  0.48375     H
H      0.23975  0.51625      0.0     H
O       0.2557   0.3845   0.3405     O
O       0.2557   0.6595   0.6155     O
C       0.3133   0.4906   0.4148     C
C       0.3133   0.5852   0.5094     C
O       0.3802   0.3281   0.1795     O
O       0.3802   0.8205   0.6719     O
Co      0.3842   0.2831   0.4175    Co
Co      0.3842   0.5825   0.7169    Co
C       0.5078   0.4678   0.4379     C
C       0.5078   0.5621   0.5322     C
H       0.5385      0.0   0.5685     H
H       0.5385   0.4315     -0.0     H
O       0.5597   0.1795   0.4924     O
O       0.5597   0.5076   0.8205     O
C       0.5613   0.3581   0.1861     C
C       0.5613   0.8139   0.6419     C
O       0.5794   0.3989   0.4185     O
O       0.5794   0.5815   0.6011     O
C        0.587   0.4992   0.5008     C
O       0.5962   0.3405    0.275     O
O       0.5962    0.725   0.6595     O
C      0.67155      0.0  0.55695     C
C      0.67155  0.44305     -0.0     C
H       0.7235  0.48375  0.51625     H
C       0.7281   0.4148   0.0946     C
C       0.7281   0.9054   0.5852     C
C       0.7474   0.1861   0.4558     C
C       0.7474   0.5442   0.8139     C
Co      0.8017   0.4175   0.2994    Co
Co      0.8017   0.7006   0.5825    Co
C       0.8227   0.0946   0.4906     C
C       0.8227   0.5094   0.9054     C
O       0.8712    0.275   0.3845     O
O       0.8712   0.6155    0.725     O
C       0.9457   0.4379   0.0943     C
C       0.9457   0.9057   0.5621     C
O       0.9979   0.4185   0.1826     O
O       0.9979   0.8174   0.5815     O
