data_I
_chemical_name_common  '/home/zhangsd/repos/MofS-CGCNN/ML/data/TSD/clean_cifs/KOSKAG_clean'
_cell_length_a  6.81050
_cell_length_b 15.12520
_cell_length_c 15.12520
_cell_angle_alpha 62.21150
_cell_angle_beta  81.36780
_cell_angle_gamma 98.63220
_space_group_name_H-M_alt      'P 1'


loop_
_space_group_symop_operation_xyz
  'x, y, z' 

loop_
_atom_site_label
_atom_site_fract_x
_atom_site_fract_y
_atom_site_fract_z
_atom_site_type_symbol
C       0.0435   0.0938   0.4664     C
C       0.0435   0.5336   0.9062     C
O       0.0546   0.4902   0.3292     O
O       0.0546   0.6708   0.5098     O
C        0.095      0.0   0.4986     C
C        0.095   0.5014      0.0     C
Co      0.1069   0.2994   0.2837    Co
Co      0.1069   0.7163   0.7006    Co
H       0.1126   0.5694   0.4306     H
O       0.1819   0.1827   0.3966     O
O       0.1819   0.6034   0.8173     O
C       0.2034   0.4535   0.3606     C
C       0.2034   0.6394   0.5465     C
C       0.2336  0.55575  0.44425     C
H      0.24405      0.0  0.48585     H
H      0.24405  0.51415     -0.0     H
O       0.2564   0.3824   0.3438     O
O       0.2564   0.6562   0.6176     O
C       0.3161   0.4892   0.4167     C
C       0.3161   0.5833   0.5108     C
O       0.3838   0.3292   0.1806     O
O       0.3838   0.8194   0.6708     O
Co      0.3906   0.2837   0.4169    Co
Co      0.3906   0.5831   0.7163    Co
C       0.5099   0.4664   0.4398     C
C       0.5099   0.5602   0.5336     C
H       0.5432     -0.0   0.5694     H
H       0.5432   0.4306     -0.0     H
C        0.564   0.3606   0.1859     C
C        0.564   0.8141   0.6394     C
O       0.5644   0.1806   0.4902     O
O       0.5644   0.5098   0.8194     O
O       0.5785   0.3966   0.4207     O
O       0.5785   0.5793   0.6034     O
C       0.5936   0.4986   0.5014     C
O       0.6002   0.3438   0.2738     O
O       0.6002   0.7262   0.6562     O
C      0.67785     -0.0  0.55575     C
C      0.67785  0.44425      0.0     C
H       0.7299  0.48585  0.51415     H
C       0.7328   0.4167   0.0941     C
C       0.7328   0.9059   0.5833     C
C       0.7499   0.1859   0.4535     C
C       0.7499   0.5465   0.8141     C
Co      0.8075   0.4169   0.2994    Co
Co      0.8075   0.7006   0.5831    Co
C       0.8269   0.0941   0.4892     C
C       0.8269   0.5108   0.9059     C
O        0.874   0.2738   0.3824     O
O        0.874   0.6176   0.7262     O
C       0.9497   0.4398   0.0938     C
C       0.9497   0.9062   0.5602     C
O       0.9992   0.4207   0.1827     O
O       0.9992   0.8173   0.5793     O
