data_I
_chemical_name_common  '/home/zhangsd/repos/MofS-CGCNN/ML/data/TSD/clean_cifs/KOSKUA_clean'
_cell_length_a  6.86870
_cell_length_b 15.11090
_cell_length_c 15.11090
_cell_angle_alpha 62.25330
_cell_angle_beta  81.28510
_cell_angle_gamma 98.71490
_space_group_name_H-M_alt      'P 1'


loop_
_space_group_symop_operation_xyz
  'x, y, z' 

loop_
_atom_site_label
_atom_site_fract_x
_atom_site_fract_y
_atom_site_fract_z
_atom_site_type_symbol
C       0.0318   0.8935   0.5296     C
C       0.0725   0.4614   0.0872     C
O        0.077   0.3825   0.2663     O
O       0.0818   0.8093   0.5588     O
O       0.0955   0.6212   0.5332     O
Co      0.1034   0.3241   0.4165    Co
C       0.1383   0.5769   0.8935     C
C       0.1597   0.0872   0.4514     C
C        0.182    0.439   0.1779     C
H       0.2008   0.5277   0.4474     H
C       0.2033   0.9847   0.4789     C
C       0.2186   0.5364   0.9847     C
Co      0.2207   0.7406   0.6759    Co
C        0.257   0.6169    0.561     C
O       0.2725   0.6319   0.8093     O
O       0.3055   0.6488   0.6175     O
C       0.3178   0.5211   0.4636     C
H       0.3269   0.9751   0.4723     H
O       0.3433   0.2663   0.3512     O
H       0.3518   0.5526   0.9751     H
O       0.3594   0.4412   0.3681     O
C       0.3599   0.1779   0.3831     C
O       0.3713   0.4668   0.1544     O
C       0.3889   0.5486   0.5386     C
C       0.4386   0.4704   0.4231     C
O       0.4743   0.8456   0.6212     O
Co      0.4801   0.5835   0.7406    Co
Co      0.5199   0.4165   0.2594    Co
O       0.5257   0.1544   0.3788     O
C       0.5614   0.5296   0.5769     C
C       0.6111   0.4514   0.4614     C
O       0.6287   0.5332   0.8456     O
C       0.6401   0.8221   0.6169     C
O       0.6406   0.5588   0.6319     O
H       0.6482   0.4474   0.0249     H
O       0.6567   0.7337   0.6488     O
H       0.6731   0.0249   0.5277     H
C       0.6822   0.4789   0.5364     C
O       0.6945   0.3512   0.3825     O
O       0.7275   0.3681   0.1907     O
C        0.743   0.3831    0.439     C
Co      0.7793   0.2594   0.3241    Co
C       0.7814   0.4636   0.0153     C
C       0.7967   0.0153   0.5211     C
H       0.7992   0.4723   0.5526     H
C        0.818    0.561   0.8221     C
C       0.8403   0.9128   0.5486     C
C       0.8617   0.4231   0.1065     C
Co      0.8966   0.6759   0.5835    Co
O       0.9045   0.3788   0.4668     O
O       0.9182   0.1907   0.4412     O
O        0.923   0.6175   0.7337     O
C       0.9275   0.5386   0.9128     C
C       0.9682   0.1065   0.4704     C
