data_I
_chemical_name_common  '/home/zhangsd/repos/MofS-CGCNN/ML/data/TSD/clean_cifs/KOSKIO01_clean'
_cell_length_a  6.79040
_cell_length_b 15.11810
_cell_length_c 15.11810
_cell_angle_alpha 62.20070
_cell_angle_beta  81.38930
_cell_angle_gamma 98.61070
_space_group_name_H-M_alt      'P 1'


loop_
_space_group_symop_operation_xyz
  'x, y, z' 

loop_
_atom_site_label
_atom_site_fract_x
_atom_site_fract_y
_atom_site_fract_z
_atom_site_type_symbol
C       0.0397   0.0957   0.4656     C
C       0.0397   0.5344   0.9043     C
O       0.0507   0.4978   0.3287     O
O       0.0507   0.6713   0.5022     O
H        0.084    0.561    0.439     H
C       0.0956      0.0   0.4962     C
C       0.0956   0.5038      0.0     C
Co     0.11537  0.29728  0.28017    Co
Co     0.11537  0.71983  0.70272    Co
O       0.1793   0.1822   0.4033     O
O       0.1793   0.5967   0.8178     O
C       0.2055   0.4602   0.3547     C
C       0.2055   0.6453   0.5398     C
C       0.2464   0.5601   0.4399     C
O       0.2504    0.387   0.3418     O
O       0.2504   0.6582    0.613     O
H       0.2655      0.0   0.4635     H
H       0.2655   0.5365     -0.0     H
C       0.3249   0.4946   0.4119     C
C       0.3249   0.5881   0.5054     C
O       0.3794   0.3287   0.1735     O
O       0.3794   0.8265   0.6713     O
Co     0.39554  0.28017  0.42255    Co
Co     0.39554  0.57745  0.71983    Co
C       0.5053   0.4656   0.4387     C
C       0.5053   0.5613   0.5344     C
H        0.523      0.0    0.561     H
H        0.523    0.439      0.0     H
O       0.5529   0.1735   0.4978     O
O       0.5529   0.5022   0.8265     O
C       0.5602   0.3547   0.1851     C
C       0.5602   0.8149   0.6453     C
O       0.5826   0.4033   0.4145     O
O       0.5826   0.5855   0.5967     O
C       0.5918   0.4962   0.5038     C
O       0.5922   0.3418   0.2712     O
O       0.5922   0.7288   0.6582     O
C       0.6863     -0.0   0.5601     C
C       0.6863   0.4399     -0.0     C
H        0.729   0.4635   0.5365     H
C       0.7368   0.4119   0.0935     C
C       0.7368   0.9065   0.5881     C
C       0.7453   0.1851   0.4602     C
C       0.7453   0.5398   0.8149     C
Co     0.81809  0.42255  0.29728    Co
Co     0.81809  0.70272  0.57745    Co
C       0.8303   0.0935   0.4946     C
C       0.8303   0.5054   0.9065     C
O       0.8634   0.2712    0.387     O
O       0.8634    0.613   0.7288     O
C        0.944   0.4387   0.0957     C
C        0.944   0.9043   0.5613     C
O       0.9971   0.4145   0.1822     O
O       0.9971   0.8178   0.5855     O
