data_I
_chemical_name_common  '/home/zhangsd/repos/MofS-CGCNN/ML/data/TSD/clean_cifs/KOSLAH_clean'
_cell_length_a  6.88200
_cell_length_b 15.11580
_cell_length_c 15.11580
_cell_angle_alpha 62.26050
_cell_angle_beta  81.27090
_cell_angle_gamma 98.72910
_space_group_name_H-M_alt      'P 1'


loop_
_space_group_symop_operation_xyz
  'x, y, z' 

loop_
_atom_site_label
_atom_site_fract_x
_atom_site_fract_y
_atom_site_fract_z
_atom_site_type_symbol
C        0.033   0.8961   0.5325     C
O       0.0706   0.3814   0.2634     O
C       0.0782   0.4617   0.0878     C
O       0.0853    0.808   0.5605     O
O       0.1008   0.6269   0.5287     O
Co      0.1011   0.3196   0.4123    Co
C       0.1369   0.5714   0.8961     C
C        0.166   0.0878   0.4505     C
C       0.1814   0.4407   0.1757     C
H       0.1973   0.5321   0.4422     H
C       0.1982   0.9879   0.4809     C
C       0.2103   0.5312   0.9879     C
Co      0.2185   0.7319   0.6804    Co
C       0.2593   0.6164   0.5593     C
O       0.2773   0.6315    0.808     O
O       0.3108   0.6448   0.6186     O
C       0.3209   0.5191   0.4688     C
O        0.334   0.2634   0.3552     O
H       0.3348   0.9743   0.4679     H
O       0.3542   0.4395   0.3685     O
C       0.3571   0.1757   0.3836     C
H       0.3605   0.5578   0.9743     H
O       0.3705   0.4713   0.1556     O
C       0.3835   0.5495   0.5383     C
C       0.4345   0.4675   0.4286     C
O       0.4739   0.8444   0.6269     O
Co      0.4866   0.5877   0.7319    Co
Co      0.5134   0.4123   0.2681    Co
O       0.5261   0.1556   0.3731     O
C       0.5655   0.5325   0.5714     C
C       0.6165   0.4505   0.4617     C
O       0.6295   0.5287   0.8444     O
H       0.6395   0.4422   0.0257     H
C       0.6429   0.8243   0.6164     C
O       0.6458   0.5605   0.6315     O
H       0.6652   0.0257   0.5321     H
O        0.666   0.7366   0.6448     O
C       0.6791   0.4809   0.5312     C
O       0.6892   0.3552   0.3814     O
O       0.7227   0.3685    0.192     O
C       0.7407   0.3836   0.4407     C
Co      0.7815   0.2681   0.3196    Co
C       0.7897   0.4688   0.0121     C
C       0.8018   0.0121   0.5191     C
H       0.8027   0.4679   0.5578     H
C       0.8186   0.5593   0.8243     C
C        0.834   0.9122   0.5495     C
C       0.8631   0.4286   0.1039     C
Co      0.8989   0.6804   0.5877    Co
O       0.8992   0.3731   0.4713     O
O       0.9147    0.192   0.4395     O
C       0.9218   0.5383   0.9122     C
O       0.9294   0.6186   0.7366     O
C        0.967   0.1039   0.4675     C
