data_I
_chemical_name_common  '/home/zhangsd/repos/MofS-CGCNN/ML/data/TSD/clean_cifs/KOSLUB_clean'
_cell_length_a  6.72920
_cell_length_b 15.06190
_cell_length_c 15.06190
_cell_angle_alpha 62.17760
_cell_angle_beta  81.43540
_cell_angle_gamma 98.56460
_space_group_name_H-M_alt      'P 1'


loop_
_space_group_symop_operation_xyz
  'x, y, z' 

loop_
_atom_site_label
_atom_site_fract_x
_atom_site_fract_y
_atom_site_fract_z
_atom_site_type_symbol
C       0.0411   0.0982   0.4639     C
C       0.0411   0.5361   0.9018     C
O       0.0522    0.499   0.3284     O
O       0.0522   0.6716    0.501     O
C      0.08685      0.0  0.50145     C
C      0.08685  0.49855     -0.0     C
H       0.1062   0.5718   0.4282     H
Ni      0.1163   0.2958   0.2813    Ni
Ni      0.1163   0.7187   0.7042    Ni
O       0.1764   0.1818   0.4056     O
O       0.1764   0.5944   0.8182     O
C        0.202   0.4589   0.3549     C
C        0.202   0.6451   0.5411     C
C       0.2442   0.5583   0.4417     C
O       0.2517   0.3853   0.3422     O
O       0.2517   0.6578   0.6147     O
H       0.2595      0.0   0.4815     H
H       0.2595   0.5185     -0.0     H
C       0.3176   0.4949   0.4131     C
C       0.3176   0.5869   0.5051     C
O       0.3806   0.3284   0.1726     O
O       0.3806   0.8274   0.6716     O
Ni      0.3976   0.2813   0.4229    Ni
Ni      0.3976   0.5771   0.7187    Ni
C        0.505   0.4639   0.4379     C
C        0.505   0.5621   0.5361     C
H       0.5344     -0.0   0.5718     H
H       0.5344   0.4282     -0.0     H
O       0.5532   0.1726    0.499     O
O       0.5532    0.501   0.8274     O
C       0.5569   0.3549   0.1862     C
C       0.5569   0.8138   0.6451     C
O        0.582   0.4056   0.4126     O
O        0.582   0.5874   0.5944     O
C       0.5883  0.50145  0.49855     C
O       0.5939   0.3422   0.2725     O
O       0.5939   0.7275   0.6578     O
C       0.6859      0.0   0.5583     C
C       0.6859   0.4417      0.0     C
C       0.7307   0.4131    0.092     C
C       0.7307    0.908   0.5869     C
H        0.741   0.4815   0.5185     H
C       0.7431   0.1862   0.4589     C
C       0.7431   0.5411   0.8138     C
Ni      0.8205   0.4229   0.2958    Ni
Ni      0.8205   0.7042   0.5771    Ni
C       0.8227    0.092   0.4949     C
C       0.8227   0.5051    0.908     C
O       0.8664   0.2725   0.3853     O
O       0.8664   0.6147   0.7275     O
C       0.9429   0.4379   0.0982     C
C       0.9429   0.9018   0.5621     C
O       0.9946   0.4126   0.1818     O
O       0.9946   0.8182   0.5874     O
