data_I
_chemical_name_common  '/home/zhangsd/repos/MofS-CGCNN/ML/data/TSD/clean_cifs/KOSMAI_clean'
_cell_length_a  6.77670
_cell_length_b 15.09990
_cell_length_c 15.09990
_cell_angle_alpha 62.19710
_cell_angle_beta  81.39650
_cell_angle_gamma 98.60350
_space_group_name_H-M_alt      'P 1'


loop_
_space_group_symop_operation_xyz
  'x, y, z' 

loop_
_atom_site_label
_atom_site_fract_x
_atom_site_fract_y
_atom_site_fract_z
_atom_site_type_symbol
C       0.0346   0.0941   0.4673     C
C       0.0346   0.5327   0.9059     C
O       0.0472   0.4992    0.322     O
O       0.0472    0.678   0.5008     O
C      0.08235     -0.0  0.49695     C
C      0.08235  0.50305      0.0     C
H        0.108   0.5715   0.4285     H
Co       0.113   0.2985   0.2795    Co
Co       0.113   0.7205   0.7015    Co
O       0.1784   0.1821   0.4017     O
O       0.1784   0.5983   0.8179     O
C       0.1969   0.4573   0.3548     C
C       0.1969   0.6452   0.5427     C
C       0.2318   0.5568   0.4432     C
H      0.24285     -0.0  0.48045     H
H      0.24285  0.51955      0.0     H
O       0.2519   0.3838   0.3425     O
O       0.2519   0.6575   0.6162     O
C       0.3166   0.4954   0.4118     C
C       0.3166   0.5882   0.5046     C
O       0.3692    0.322   0.1788     O
O       0.3692   0.8212    0.678     O
Co      0.3925   0.2795    0.422    Co
Co      0.3925    0.578   0.7205    Co
C       0.5019   0.4673   0.4386     C
C       0.5019   0.5614   0.5327     C
H       0.5365     -0.0   0.5715     H
H       0.5365   0.4285      0.0     H
O        0.548   0.1788   0.4992     O
O        0.548   0.5008   0.8212     O
C       0.5517   0.3548   0.1879     C
C       0.5517   0.8121   0.6452     C
C       0.5793  0.49695  0.50305     C
O       0.5801   0.4017   0.4162     O
O       0.5801   0.5838   0.5983     O
O       0.5944   0.3425   0.2737     O
O       0.5944   0.7263   0.6575     O
C        0.675      0.0   0.5568     C
C        0.675   0.4432      0.0     C
H       0.7233  0.48045  0.51955     H
C       0.7284   0.4118   0.0928     C
C       0.7284   0.9072   0.5882     C
C       0.7396   0.1879   0.4573     C
C       0.7396   0.5427   0.8121     C
Co      0.8145    0.422   0.2985    Co
Co      0.8145   0.7015    0.578    Co
C       0.8212   0.0928   0.4954     C
C       0.8212   0.5046   0.9072     C
O       0.8681   0.2737   0.3838     O
O       0.8681   0.6162   0.7263     O
C       0.9405   0.4386   0.0941     C
C       0.9405   0.9059   0.5614     C
O       0.9963   0.4162   0.1821     O
O       0.9963   0.8179   0.5838     O
