data_I
_chemical_name_common  '/home/zhangsd/repos/MofS-CGCNN/ML/data/TSD/clean_cifs/KOTSIX_clean'
_cell_length_a 15.16900
_cell_length_b 15.45300
_cell_length_c 16.45040
_cell_angle_alpha 67.46900
_cell_angle_beta  80.55900
_cell_angle_gamma 61.98200
_space_group_name_H-M_alt      'P 1'


loop_
_space_group_symop_operation_xyz
  'x, y, z' 

loop_
_atom_site_label
_atom_site_fract_x
_atom_site_fract_y
_atom_site_fract_z
_atom_site_type_symbol
O       0.0002  0.47035  0.79179     O
C       0.0003   0.4812   0.0913     C
C       0.0066    0.872   0.4802     C
C       0.0088   0.4552   0.1883     C
Zn     0.01026  0.49186  0.33552    Zn
C       0.0211   0.7821   0.5559     C
O      0.02634  0.36799  0.24381     O
H       0.0319   0.2346   0.4239     H
H       0.0433   0.0284   0.6942     H
C       0.0521   0.3979   0.0593     C
C       0.0536   0.4164   0.9657     C
H       0.0858   0.3301   0.0987     H
H       0.0863   0.5643   0.4936     H
H       0.0877   0.9455   0.3989     H
C       0.0915   0.0648   0.5696     C
C       0.0918   0.8913   0.4514     C
O      0.09574  0.25282  0.95842     O
O      0.09851  0.36601  0.43118     O
C       0.1008   0.0191   0.6611     C
C        0.113   0.7178   0.6012     C
C       0.1197   0.3263   0.9368     C
H       0.1212   0.6578   0.6495     H
O      0.13073  0.21654  0.75086     O
N       0.1329   0.4766  0.61763     N
C       0.1433   0.5185   0.5291     C
H       0.1486   0.2844   0.5853     H
H       0.1668   0.6632   0.8944     H
H       0.1748   0.7523   0.7436     H
H       0.1778   0.0785   0.4604     H
C       0.1805    0.049   0.5215     C
C       0.1826   0.8302    0.501     C
Zn     0.18728  0.13567  0.91624    Zn
H       0.1912    0.598    0.031     H
C       0.1913   0.3368   0.4201     C
C        0.193   0.9603   0.7042     C
C       0.1942   0.7445   0.5732     C
H       0.1965   0.9319   0.7653     H
O      0.19733  0.32187  0.89454     O
H       0.1992   0.5085   0.1848     H
H       0.2112   0.3886   0.7298     H
C       0.2132   0.6266   0.8605     C
C        0.216   0.2418    0.581     C
C       0.2165   0.6811   0.7689     C
C       0.2177   0.4145   0.6691     C
C       0.2241   0.1718   0.7447     C
O      0.22613  0.38173  0.35236     O
C       0.2262   0.5254   0.0545     C
C       0.2318    0.471   0.1474     C
H       0.2346   0.8489   0.4838     H
C       0.2387   0.4944   0.4893     C
H       0.2438   0.5241   0.4288     H
C       0.2574   0.2484    0.498     C
C       0.2724   0.9887   0.5662     C
C       0.2744   0.1718  0.65884     C
C       0.2748   0.4665   0.9994     C
C       0.2759    0.521   0.9017     C
O      0.28048  0.11874  0.81298     O
N       0.2807   0.9437  0.65594     N
N       0.2836   0.3664  0.18115     N
C       0.2861   0.6232   0.7165     C
N       0.2875   0.6781  0.62361     N
H       0.2882    0.336   0.2374     H
O       0.3026  0.74335  0.03462     O
C       0.3128   0.3884   0.6353     C
C        0.324   0.3583   0.0385     C
C       0.3273   0.4231   0.5444     C
C       0.3277   0.3083   0.1312     C
H       0.3304   0.9788   0.5337     H
H       0.3404   0.6592    0.466     H
O       0.3407  0.78769  0.88358     O
C       0.3456   0.4686   0.8475     C
C       0.3507   0.5202   0.7544     C
H       0.3552   0.3177   0.0032     H
O      0.35647  0.17696  0.34654     O
C       0.3601   0.1817   0.4889     C
H       0.3607   0.2357   0.1566     H
H       0.3679   0.3472   0.6736     H
C       0.3788   0.1096   0.6515     C
C       0.3805   0.6654   0.0718     C
C       0.3824   0.6561   0.5792     C
H       0.3861   0.4018   0.3881     H
H       0.3896   0.3982    0.873     H
C       0.3942   0.6488   0.4949     C
H       0.3973   0.4837   0.7205     H
C       0.4063   0.1697   0.4038     C
C       0.4171   0.7114   0.8694     C
C       0.4187   0.1124   0.5683     C
O      0.42083  0.65436  0.13895     O
Zn     0.42293  0.86626  0.71017    Zn
C       0.4267   0.3955   0.5023     C
C       0.4353   0.5849   0.0291     C
C       0.4406   0.3884   0.4181     C
C       0.4445   0.0359   0.7328     C
O      0.45515  0.94473  0.76422     O
C       0.4566   0.6043    0.941     C
H       0.4598   0.6435   0.6771     H
H       0.4629   0.4642   0.1487     H
O      0.46531  0.72204  0.79844     O
C       0.4665   0.6379   0.6219     C
C       0.4781   0.4787   0.0893     C
H       0.4855   0.0677   0.5642     H
C       0.4881   0.6255   0.4546     C
H       0.4934   0.9118   0.8094     H
H       0.4944   0.6238   0.3979     H
O      0.49595  0.06574  0.75795     O
O      0.49681  0.15338  0.39806     O
O      0.50319  0.84662  0.60194     O
O      0.50405  0.93426  0.24205     O
H       0.5056   0.3762   0.6021     H
H       0.5066   0.0882   0.1906     H
C       0.5119   0.3745   0.5454     C
H       0.5145   0.9323   0.4358     H
C       0.5219   0.5213   0.9107     C
C       0.5335   0.3621   0.3781     C
O      0.53469  0.27796  0.20156     O
H       0.5371   0.5358   0.8513     H
H       0.5402   0.3565   0.3229     H
C       0.5434   0.3957    0.059     C
O      0.54485  0.05527  0.23578     O
C       0.5555   0.9641   0.2672     C
C       0.5594   0.6116   0.5819     C
C       0.5647   0.4151   0.9709     C
C       0.5733   0.6045   0.4977     C
Zn     0.57707  0.13374  0.28983    Zn
O      0.57917  0.34564  0.86105     O
C       0.5813   0.8876   0.4317     C
C       0.5829   0.2886   0.1306     C
C       0.5937   0.8303   0.5962     C
H       0.6027   0.5163   0.2795     H
C       0.6058   0.3512   0.5051     C
H       0.6104   0.6018    0.127     H
H       0.6139   0.5982   0.6119     H
C       0.6176   0.3439   0.4208     C
C       0.6195   0.3346   0.9282     C
C       0.6212   0.8904   0.3485     C
H       0.6321   0.6528   0.3264     H
H       0.6393   0.7643   0.8434     H
C       0.6399   0.8183   0.5111     C
O      0.64353  0.82304  0.65346     O
H       0.6448   0.6823   0.9968     H
C       0.6493   0.4798   0.2456     C
C       0.6544   0.5314   0.1525     C
O       0.6593  0.21231  0.11642     O
H       0.6596   0.3408    0.534     H
H       0.6696   0.0212   0.4663     H
C       0.6723   0.6917   0.8688     C
C       0.6727   0.5769   0.4556     C
C        0.676   0.6417   0.9615     C
C       0.6872   0.6116   0.3647     C
O       0.6974  0.25665  0.96538     O
H       0.7118    0.664   0.7626     H
N       0.7125   0.3219  0.37639     N
C       0.7139   0.3768   0.2835     C
N       0.7164   0.6336  0.81885     N
N       0.7193   0.0563  0.34406     N
O      0.71952  0.88126  0.18702     O
C       0.7241    0.479   0.0983     C
C       0.7252   0.5335   0.0006     C
C       0.7256   0.8282  0.34116     C
C       0.7276   0.0113   0.4338     C
C       0.7426   0.7516    0.502     C
H       0.7562   0.4759   0.5712     H
C       0.7613   0.5056   0.5107     C
H       0.7654   0.1511   0.5162     H
C       0.7682    0.529   0.8526     C
C       0.7738   0.4746   0.9455     C
O      0.77387  0.61827  0.64764     O
C       0.7759   0.8282   0.2553     C
C       0.7823   0.5855   0.3309     C
C       0.7835   0.3189   0.2311     C
C        0.784   0.7582    0.419     C
C       0.7868   0.3734   0.1395     C
H       0.7888   0.6114   0.2702     H
H       0.8008   0.4915   0.8152     H
O      0.80267  0.67813  0.10546     O
H       0.8035   0.0681   0.2347     H
C       0.8058   0.2555   0.4268     C
C        0.807   0.0397   0.2958     C
C       0.8087   0.6632   0.5799     C
H       0.8088    0.402    0.969     H
Zn     0.81272  0.86433  0.08376    Zn
C       0.8174   0.1698    0.499     C
C       0.8195    0.951   0.4785     C
H       0.8222   0.9215   0.5396     H
H       0.8252   0.2477   0.2564     H
H       0.8332   0.3368   0.1056     H
H       0.8514   0.7156   0.4147     H
C       0.8567   0.4815   0.4709     C
N       0.8671   0.5234  0.38237     N
O      0.86927  0.78346  0.24914     O
H       0.8788   0.3422   0.3505     H
C       0.8803   0.6737   0.0632     C
C        0.887   0.2822   0.3988     C
C       0.8992   0.9809   0.3389     C
O      0.90149  0.63399  0.56882     O
O      0.90426  0.74718  0.04158     O
C       0.9082   0.1087   0.5486     C
C       0.9085   0.9352   0.4304     C
H       0.9123   0.0545   0.6011     H
H       0.9137   0.4357   0.5064     H
H       0.9142   0.6699   0.9013     H
C       0.9464   0.5836   0.0343     C
C       0.9479   0.6021   0.9407     C
H       0.9567   0.9716   0.3058     H
H       0.9681   0.7654   0.5761     H
O      0.97366  0.63201  0.75619     O
C       0.9789   0.2179   0.4441     C
Zn     0.98974  0.50814  0.66448    Zn
C       0.9912   0.5448   0.8117     C
C       0.9934    0.128   0.5198     C
C       0.9997   0.5188   0.9087     C
O       0.9998  0.52965  0.20821     O
