data_I
_chemical_name_common  '/home/zhangsd/repos/MofS-CGCNN/ML/data/TSD/clean_cifs/KOXGAH_clean'
_cell_length_a 12.71600
_cell_length_b 12.71600
_cell_length_c 62.07800
_cell_angle_alpha 90.00000
_cell_angle_beta  90.00000
_cell_angle_gamma 90.00000
_space_group_name_H-M_alt      'P 1'


loop_
_space_group_symop_operation_xyz
  'x, y, z' 

loop_
_atom_site_label
_atom_site_fract_x
_atom_site_fract_y
_atom_site_fract_z
_atom_site_type_symbol
N       0.0024   0.9271  0.36434     N
Cu     0.00476  0.05523  0.38466    Cu
N       0.0139   0.8169  0.86505     N
C       0.0142   0.2516   0.8387     C
H       0.0143   0.4436   0.8513     H
C       0.0148   0.1733  0.97657     C
C       0.0167   0.6439  0.95309     C
C        0.017   0.0862  0.96238     C
C       0.0214   0.7336  0.94075     C
C       0.0223   0.4443  0.83605     C
C       0.0227   0.3514  0.82568     C
H       0.0264   0.1222   0.1523     H
C       0.0286   0.6383  0.83856     C
Cu     0.02989  0.05077  0.42531    Cu
C        0.031   0.3506  0.80372     C
O       0.0311   0.2579  0.79154     O
C        0.033   0.5414  0.82592     C
H       0.0332   0.0683   0.0353     H
C       0.0339   0.2772  0.33335     C
H        0.035   0.7395   0.0318     H
C        0.037   0.4534  0.05359     C
N       0.0398    0.182  0.44408     N
C       0.0414    0.467  0.07592     C
C       0.0417   0.6823  0.02135     C
C       0.0424    0.556  0.23349     C
C       0.0432   0.4455  0.79227     C
C       0.0435   0.1921  0.34686     C
C       0.0446    0.558  0.25594     C
I      0.04593   0.8378  0.59021     I
C       0.0466    0.537  0.80359     C
N       0.0484   0.9251  0.44607     N
C       0.0486   0.4448  0.76806     C
O       0.0498   0.7369  0.51923     O
Cu     0.05077  0.02989   0.5747    Cu
C        0.052   0.3595  0.47042     C
C       0.0545   0.5432  0.54227     C
C       0.0552   0.5486  0.51806     C
Cu     0.05523  0.00476  0.61534    Cu
O       0.0554   0.6311  0.79215     O
C       0.0557   0.5223  0.58605     C
C        0.056   0.4576  0.48349     C
C        0.056   0.6436  0.50746     C
C       0.0563   0.4422  0.72359     C
I      0.05638   0.1982  0.59913     I
H       0.0564   0.5143   0.6013     H
H       0.0575   0.5593   0.4583     H
C       0.0578   0.5563  0.47359     C
C       0.0578   0.7487  0.47273     C
C        0.058   0.4554  0.50594     C
O        0.059   0.3598  0.51689     O
H       0.0593   0.4425   0.7083     H
H       0.0599   0.5851   0.9498     H
C       0.0601   0.6483  0.48477     C
H        0.062   0.1777   0.9884     H
H       0.0643   0.8482   0.2786     H
C       0.0656   0.7595  0.35422     C
H       0.0683   0.0332   0.9647     H
C       0.0689   0.7923  0.28944     C
C       0.0689   0.8479  0.36642     C
H       0.0706   0.7359   0.9293     H
H       0.0713   0.2776   0.3201     H
H       0.0728   0.7095    0.008     H
N       0.0729   0.9976  0.13566     N
C       0.0731   0.0821  0.84926     C
N       0.0749   0.9516  0.05393     N
C       0.0776   0.7389  0.86991     C
C       0.0821   0.0731  0.15074     C
C       0.0826   0.1672  0.83616     C
H       0.0851   0.4401   0.1998     H
C       0.0862    0.017  0.03762     C
H       0.0869    0.627   0.0273     H
C       0.0893   0.6516  0.85703     C
H       0.0894   0.8227   0.3033     H
H       0.0919    0.138   0.3433     H
H       0.0995   0.3605   0.1108     H
C       0.1082   0.1881  0.46057     C
C       0.1153   0.2727  0.47398     C
H       0.1167   0.7058   0.3561     H
H       0.1172   0.7431   0.8829     H
C       0.1202   0.8515  0.44262     C
H       0.1215   0.7405    0.285     H
H       0.1222   0.0264   0.8477     H
H       0.1222   0.8532   0.3771     H
H        0.127   0.4131   0.2773     H
C        0.128   0.7635  0.45556     C
H       0.1303    0.154    0.537     H
O       0.1311   0.4446  0.04215     O
H       0.1318   0.2891   0.0363     H
H       0.1354    0.169   0.8254     H
H        0.138   0.0919   0.6567     H
C       0.1383   0.4714  0.08856     C
H       0.1395   0.5995   0.8608     H
O       0.1402    0.559  0.26689     O
C       0.1405    0.552  0.22042     C
H       0.1405   0.8324   0.0691     H
H       0.1415   0.8419   0.5342     H
C       0.1436    0.444  0.75746     C
C       0.1439   0.4833  0.20309     C
H       0.1468   0.8778   0.1229     H
C       0.1483   0.4399  0.73477     C
C       0.1485   0.8798  0.05738     C
C       0.1486   0.5227  0.57568     C
C       0.1494    0.531  0.55372     C
C       0.1514   0.7783   0.5255     C
C       0.1516   0.4107  0.10703     C
H       0.1518   0.9357   0.2214     H
C       0.1521   0.9311  0.13358     C
H        0.154   0.1303    0.463     H
H       0.1581   0.8585   0.9658     H
C       0.1601    0.677  0.79378     C
H       0.1601   0.7469   0.7871     H
I       0.1622  0.95407  0.90979     I
H       0.1634   0.2721   0.4857     H
C       0.1672   0.0826  0.16384     C
H       0.1676   0.8595   0.4309     H
H        0.169   0.1354   0.1746     H
C       0.1733   0.0148  0.02343     C
C        0.177   0.3399  0.04378     C
H       0.1773   0.9106   0.1967     H
H       0.1777    0.062   0.0116     H
H       0.1798   0.6833    0.809     H
H       0.1811   0.7127   0.4528     H
N        0.182   0.0398  0.55592     N
C       0.1823   0.4583  0.27135     C
N       0.1831   0.9861  0.63495     N
H       0.1833   0.3202    0.059     H
C       0.1881   0.1082  0.53943     C
H       0.1893   0.7254    0.534     H
C       0.1921   0.0435  0.65314     C
H       0.1922   0.7956   0.5126     H
I       0.1982  0.05638  0.40087     I
H       0.2044   0.8078   0.9874     H
H       0.2058   0.3833   0.6061     H
C       0.2077   0.9311  0.21056     C
H       0.2095   0.4272    0.258     H
H       0.2109   0.6318   0.7863     H
H       0.2127   0.3189   0.7028     H
C       0.2217   0.8486   0.9745     C
H       0.2224   0.5713   0.0701     H
C       0.2228   0.5339  0.08335     C
H       0.2254   0.3107    0.784     H
C       0.2273   0.6153  0.22398     C
H       0.2279   0.6634   0.2357     H
C       0.2336   0.4786  0.19075     C
H       0.2359   0.4294   0.1793     H
C       0.2365    0.872  0.04444     C
O       0.2369   0.4502  0.76923     O
C       0.2389   0.4224  0.11991     C
H       0.2395    0.465   0.2818     H
H       0.2405   0.3785    0.535     H
C       0.2405   0.9344  0.14578     C
O       0.2421   0.5311  0.54154     O
H       0.2431   0.3828   0.1329     H
H       0.2469   0.3399   0.0371     H
C       0.2484   0.5142   0.5887     C
C       0.2487   0.4422  0.72273     C
C       0.2513   0.9422  0.02727     C
C       0.2516   0.0142   0.1613     C
H       0.2531   0.8399   0.7129     H
H       0.2569   0.8828   0.6171     H
O       0.2579   0.0311  0.20846     O
C       0.2595   0.4344  0.60422     C
H       0.2595   0.8785    0.215     H
H       0.2605    0.965   0.4682     H
C       0.2611   0.9224  0.63009     C
O       0.2631   0.9502  0.98077     O
C       0.2635    0.372  0.70556     C
H       0.2641   0.9294   0.5707     H
C       0.2664   0.9786  0.55925     C
H       0.2721   0.1634   0.5143     H
C       0.2727   0.1153  0.52602     C
H       0.2746   0.8107    0.966     H
C       0.2772   0.0339  0.66665     C
H       0.2776   0.0713   0.6799     H
C       0.2783   0.3486   0.7755     C
H       0.2873   0.8189   0.0472     H
H       0.2891   0.1318   0.9637     H
H       0.2905   0.9272    0.492     H
C       0.2923   0.4311  0.53944     C
H       0.2942   0.8833   0.1439     H
H       0.2956   0.3078   0.7626     H
I       0.3018  0.55638  0.34913     I
H       0.3078   0.2956   0.2374     H
C       0.3079   0.5435  0.09686     C
H       0.3107   0.2254    0.216     H
C       0.3119   0.6082  0.21057     C
H       0.3167   0.8202    0.691     H
N       0.3169   0.4861  0.11505     N
C       0.3177   0.9583  0.47865     C
N        0.318   0.5398  0.19408     N
H       0.3189   0.2127   0.2972     H
H       0.3202   0.1833    0.941     H
H       0.3223    0.562   0.7384     H
H       0.3227   0.4106   0.5533     H
C        0.323   0.8399  0.70622     C
C       0.3267   0.5148  0.72657     C
H        0.331   0.6354   0.5754     H
H       0.3324   0.3595   0.3191     H
C       0.3328   0.5826  0.58616     C
H       0.3366   0.7721   0.2643     H
I       0.3378  0.45407  0.84021     I
C       0.3399    0.177  0.95622     C
H       0.3399   0.2469   0.9629     H
H       0.3419   0.3585   0.7842     H
H        0.346   0.6303    0.287     H
C       0.3479   0.4311  0.61642     C
H       0.3482   0.4357   0.5286     H
C       0.3484   0.9107  0.64297     C
C       0.3486   0.2783   0.2245     C
C       0.3506    0.031  0.19628     C
C       0.3514   0.0227  0.17432     C
C       0.3515   0.3798  0.69262     C
C       0.3517   0.9399  0.01523     C
H       0.3532   0.3778   0.6271     H
C       0.3561   0.9833  0.54691     C
C       0.3564    0.944  0.99254     C
H       0.3585   0.3419   0.2158     H
C       0.3595    0.052  0.52958     C
H       0.3595   0.3324   0.6809     H
O       0.3598    0.059  0.48311     O
H       0.3605   0.0995   0.8892     H
C       0.3617   0.9714  0.66144     C
H        0.362   0.5919   0.0933     H
H       0.3646    0.669   0.9246     H
H       0.3682   0.7891   0.7137     H
O       0.3689   0.9446  0.70785     O
H       0.3697    0.654    0.213     H
C        0.372   0.2635  0.29444     C
H        0.373   0.9131   0.4727     H
H       0.3778   0.3532   0.3729     H
H       0.3778   0.5264   0.9023     H
H       0.3785   0.2405    0.465     H
C       0.3798   0.3515  0.30738     C
H       0.3828   0.2431   0.8671     H
H       0.3833   0.2058   0.3939     H
C       0.3847   0.7727  0.27602     C
C       0.3918   0.6881  0.28943     C
H       0.4005   0.8605   0.6392     H
H       0.4081    0.638   0.4067     H
H       0.4106   0.3227   0.4467     H
C       0.4107   0.1516  0.89297     C
H       0.4131    0.127   0.7227     H
C       0.4138    0.517  0.71238     C
H       0.4149   0.9401   0.5502     H
C       0.4174   0.6672  0.91384     C
C       0.4179   0.5731  0.59926     C
C       0.4224   0.2389  0.88009     C
N       0.4251   0.4516  0.69607     N
C       0.4269   0.5821  0.90074     C
N       0.4271   0.4976  0.61434     N
H       0.4272   0.2095    0.742     H
H       0.4287   0.7776   0.4299     H
H       0.4294   0.2359   0.8207     H
C       0.4311   0.2923  0.46056     C
C       0.4311   0.3479  0.38358     C
H       0.4317   0.5332   0.7853     H
C       0.4344   0.2595  0.39578     C
H       0.4357   0.3482   0.4714     H
H        0.438   0.6777   0.7616     H
C       0.4399   0.1483  0.26523     C
H       0.4401   0.0851   0.8002     H
H       0.4407   0.9425   0.0417     H
O        0.441   0.8598  0.23311     O
C        0.442   0.9554  0.24406     C
C       0.4422   0.0563  0.27641     C
C       0.4422   0.2487  0.27727     C
H       0.4425   0.0593   0.2917     H
H       0.4436   0.0143   0.1487     H
I      0.44362   0.6982  0.15087     I
C       0.4437   0.9422  0.02641     C
C        0.444   0.1436  0.24254     C
C        0.444   0.9576  0.26651     C
C       0.4443   0.0223  0.16395     C
O       0.4446   0.1311  0.95785     O
Cu     0.44477  0.50476  0.13466    Cu
C       0.4448   0.0486  0.23194     C
C       0.4455   0.0432  0.20773     C
C        0.448   0.8595  0.27958     C
Cu     0.44923  0.52989  0.17531    Cu
O       0.4502   0.2369  0.23077     O
C       0.4514   0.9448  0.98194     C
N       0.4516   0.4251  0.30393     N
C       0.4534    0.037  0.94641     C
I      0.45407   0.3378  0.15979     I
C       0.4554    0.058  0.49406     C
C       0.4565   0.6921  0.40314     C
C       0.4568   0.9455  0.95773     C
C       0.4576    0.056  0.51651     C
C       0.4583   0.1823  0.72865     C
C       0.4586    0.967  0.67408     C
N       0.4602    0.682  0.30592     N
C        0.463   0.9534  0.69641     C
H        0.465   0.2395   0.7182     H
C       0.4661   0.7772  0.41665     C
H       0.4668   0.5683   0.7147     H
C        0.467   0.0414  0.92408     C
O       0.4689   0.7579  0.95846     O
C        0.469   0.8506  0.94628     C
Cu     0.47011  0.55077   0.3247    Cu
C       0.4714   0.1383  0.91144     C
H       0.4736   0.6222   0.5977     H
C       0.4773   0.8514  0.92432     C
C       0.4777   0.9443  0.91395     C
C       0.4786   0.2336  0.80925     C
C        0.483   0.5862  0.78762     C
C       0.4833   0.1439  0.79691     C
C       0.4852   0.6733  0.77343     C
H       0.4857   0.9436   0.8987     H
C       0.4858   0.7516   0.9113     C
N       0.4861   0.3169  0.88495     N
Cu     0.49524  0.55523  0.36534    Cu
N       0.4976   0.4271  0.38566     N
N       0.5024   0.5729  0.88566     N
Cu     0.50476  0.44477  0.86534    Cu
N       0.5139   0.6831  0.38495     N
C       0.5142   0.2484   0.4113     C
H       0.5143   0.0564   0.3987     H
C       0.5148   0.3267  0.27343     C
C       0.5167   0.8561  0.29691     C
C        0.517   0.4138  0.28762     C
C       0.5214   0.7664  0.30925     C
C       0.5223   0.0557  0.41395     C
C       0.5227   0.1486  0.42432     C
H       0.5264   0.3778   0.0977     H
C       0.5286   0.8617  0.41144     C
Cu     0.52989  0.44923   0.8247    Cu
C        0.531   0.1494  0.44628     C
O       0.5311   0.2421  0.45846     O
C        0.533   0.9586  0.42408     C
H       0.5332   0.4317   0.2147     H
C       0.5339   0.2228  0.91665     C
H        0.535   0.7605   0.2182     H
C        0.537   0.0466  0.19641     C
N       0.5398    0.318  0.80592     N
C       0.5414    0.033  0.17408     C
C       0.5417   0.8177  0.22865     C
C       0.5424    0.944  0.01651     C
C       0.5432   0.0545  0.45773     C
C       0.5435   0.3079  0.90314     C
C       0.5446    0.942  0.99406     C
I      0.54593   0.6622  0.65979     I
C       0.5466    0.963  0.44641     C
N       0.5484   0.5749  0.80393     N
C       0.5486   0.0552  0.48194     C
O       0.5498   0.7631  0.73077     O
Cu     0.55077  0.47011  0.67531    Cu
C        0.552   0.1405  0.77958     C
C       0.5545   0.9568  0.70773     C
C       0.5552   0.9514  0.73194     C
Cu     0.55523  0.49524  0.63466    Cu
O       0.5554   0.8689  0.45785     O
C       0.5557   0.9777  0.66395     C
C        0.556   0.0424  0.76651     C
C        0.556   0.8564  0.74254     C
C       0.5563   0.0578  0.52641     C
I      0.55638   0.3018  0.65087     I
H       0.5564   0.9857   0.6487     H
H       0.5575   0.9407   0.7917     H
C       0.5578   0.7513  0.77727     C
C       0.5578   0.9437  0.77641     C
C        0.558   0.0446  0.74406     C
O        0.559   0.1402  0.73311     O
H       0.5593   0.0575   0.5417     H
H       0.5599   0.9149   0.3002     H
C       0.5601   0.8517  0.76523     C
H        0.562   0.3223   0.2616     H
H       0.5643   0.6518   0.9714     H
C       0.5656   0.7405  0.89578     C
H       0.5683   0.4668   0.2853     H
C       0.5689   0.6521  0.88358     C
C       0.5689   0.7077  0.96056     C
H       0.5706   0.7641   0.3207     H
H       0.5713   0.2224   0.9299     H
H       0.5728   0.7905    0.242     H
N       0.5729   0.5024  0.11434     N
C       0.5731   0.4179  0.40074     C
N       0.5749   0.5484  0.19607     N
C       0.5776   0.7611  0.38009     C
C       0.5821   0.4269  0.09926     C
C       0.5826   0.3328  0.41384     C
H       0.5851   0.0599   0.0502     H
C       0.5862    0.483  0.21238     C
H       0.5869    0.873   0.2227     H
C       0.5893   0.8484  0.39297     C
H       0.5894   0.6773   0.9467     H
H       0.5919    0.362   0.9067     H
H       0.5995   0.1395   0.1392     H
C       0.6082   0.3119  0.78943     C
C       0.6153   0.2273  0.77602     C
H       0.6167   0.7942   0.8939     H
H       0.6172   0.7569   0.3671     H
C       0.6202   0.6485  0.80738     C
H       0.6215   0.7595    0.965     H
H       0.6222   0.4736   0.4023     H
H       0.6222   0.6468   0.8729     H
H        0.627   0.0869   0.9727     H
C        0.628   0.7365  0.79444     C
H       0.6303    0.346    0.713     H
O       0.6311   0.0554  0.20785     O
H       0.6318   0.2109   0.2137     H
H       0.6354    0.331   0.4246     H
H        0.638   0.4081   0.5933     H
C       0.6383   0.0286  0.16144     C
H       0.6395   0.9005   0.3892     H
O       0.6402    0.941  0.98311     O
H       0.6405   0.6676   0.1809     H
C       0.6405    0.948  0.02958     C
H       0.6415   0.6581   0.7158     H
C       0.6436    0.056  0.49254     C
C       0.6439   0.0167  0.04691     C
H       0.6468   0.6222   0.1271     H
C       0.6483   0.0601  0.51523     C
C       0.6485   0.6202  0.19262     C
C       0.6486   0.9773  0.67432     C
C       0.6494    0.969  0.69628     C
C       0.6514   0.7217   0.7245     C
C       0.6516   0.0893  0.14297     C
H       0.6518   0.5643   0.0286     H
C       0.6521   0.5689  0.11642     C
H        0.654   0.3697    0.787     H
H       0.6581   0.6415   0.2842     H
H       0.6601   0.7531   0.4629     H
C       0.6601    0.823  0.45622     C
I       0.6622  0.54593  0.34021     I
H       0.6634   0.2279   0.7643     H
C       0.6672   0.4174  0.08616     C
H       0.6676   0.6405   0.8191     H
H        0.669   0.3646   0.0754     H
C       0.6733   0.4852  0.22657     C
C        0.677   0.1601  0.20622     C
H       0.6773   0.5894   0.0533     H
H       0.6777    0.438   0.2384     H
H       0.6798   0.8167    0.441     H
H       0.6811   0.7873   0.7972     H
N        0.682   0.4602  0.69408     N
C       0.6823   0.0417  0.97865     C
N       0.6831   0.5139  0.61505     N
H       0.6833   0.1798    0.191     H
C       0.6881   0.3918  0.71057     C
H       0.6893   0.7746    0.716     H
C       0.6921   0.4565  0.59686     C
H       0.6922   0.7044   0.7374     H
I       0.6982  0.44362  0.84913     I
H       0.7044   0.6922   0.2626     H
H       0.7058   0.1167   0.6439     H
C       0.7077   0.5689  0.03944     C
H       0.7095   0.0728    0.992     H
H       0.7109   0.8682   0.4637     H
H       0.7127   0.1811   0.5472     H
C       0.7217   0.6514   0.2755     C
H       0.7224   0.9287   0.1799     H
C       0.7228   0.9661  0.16665     C
H       0.7254   0.1893    0.466     H
C       0.7273   0.8847  0.02602     C
H       0.7279   0.8366   0.0143     H
C       0.7336   0.0214  0.05925     C
H       0.7359   0.0706   0.0707     H
C       0.7365    0.628  0.20556     C
O       0.7369   0.0498  0.48077     O
C       0.7389   0.0776  0.13009     C
H       0.7395    0.035   0.9682     H
H       0.7405   0.1215    0.715     H
C       0.7405   0.5656  0.10422     C
O       0.7421   0.9689  0.70846     O
H       0.7431   0.1172   0.1171     H
H       0.7469   0.1601   0.2129     H
C       0.7484   0.9858   0.6613     C
C       0.7487   0.0578  0.52727     C
C       0.7513   0.5578  0.22273     C
C       0.7516   0.4858   0.0887     C
H       0.7531   0.6601   0.5371     H
H       0.7569   0.6172   0.6329     H
O       0.7579   0.4689  0.04154     O
C       0.7595   0.0656  0.64578     C
H       0.7595   0.6215    0.035     H
H       0.7605    0.535   0.7818     H
C       0.7611   0.5776  0.61991     C
O       0.7631   0.5498  0.26923     O
C       0.7635    0.128  0.54444     C
H       0.7641   0.5706   0.6793     H
C       0.7664   0.5214  0.69075     C
H       0.7721   0.3366   0.7357     H
C       0.7727   0.3847  0.72398     C
H       0.7746   0.6893    0.284     H
C       0.7772   0.4661  0.58335     C
H       0.7776   0.4287   0.5701     H
C       0.7783   0.1514   0.4745     C
H       0.7873   0.6811   0.2028     H
H       0.7891   0.3682   0.2863     H
H       0.7905   0.5728    0.758     H
C       0.7923   0.0689  0.71056     C
H       0.7942   0.6167   0.1061     H
H       0.7956   0.1922   0.4874     H
I       0.8018  0.94362  0.90087     I
H       0.8078   0.2044   0.0126     H
C       0.8079   0.9565  0.15314     C
H       0.8107   0.2746    0.034     H
C       0.8119   0.8918  0.03943     C
H       0.8167   0.6798    0.559     H
N       0.8169   0.0139  0.13495     N
C       0.8177   0.5417  0.77135     C
N        0.818   0.9602  0.05592     N
H       0.8189   0.2873   0.9528     H
H       0.8202   0.3167    0.309     H
H       0.8223    0.938   0.5116     H
H       0.8227   0.0894   0.6967     H
C        0.823   0.6601  0.54378     C
C       0.8267   0.9852  0.52343     C
H        0.831   0.8646   0.6746     H
H       0.8324   0.1405   0.9309     H
C       0.8328   0.9174  0.66384     C
H       0.8366   0.7279   0.9857     H
I       0.8378  0.04593  0.40979     I
H       0.8399   0.2531   0.2871     H
C       0.8399    0.323  0.29378     C
H       0.8419   0.1415   0.4658     H
H        0.846   0.8697    0.963     H
C       0.8479   0.0689  0.63358     C
H       0.8482   0.0643   0.7214     H
C       0.8484   0.5893  0.60703     C
C       0.8486   0.2217   0.0255     C
C       0.8506    0.469  0.05372     C
C       0.8514   0.4773  0.07568     C
C       0.8515   0.1202  0.55738     C
C       0.8517   0.5601  0.23477     C
H       0.8532   0.1222   0.6229     H
C       0.8561   0.5167  0.70309     C
C       0.8564    0.556  0.25746     C
H       0.8585   0.1581   0.0342     H
H       0.8595   0.1676   0.5691     H
C       0.8595    0.448  0.72042     C
O       0.8598    0.441  0.76689     O
H       0.8605   0.4005   0.3608     H
C       0.8617   0.5286  0.58856     C
H        0.862   0.9081   0.1567     H
H       0.8646    0.831   0.3254     H
H       0.8682   0.7109   0.5363     H
O       0.8689   0.5554  0.54215     O
H       0.8697    0.846    0.037     H
C        0.872   0.2365  0.95556     C
H        0.873   0.5869   0.7773     H
H       0.8778   0.1468   0.8771     H
H       0.8778   0.9736   0.3477     H
H       0.8785   0.2595    0.785     H
C       0.8798   0.1485  0.94262     C
H       0.8828   0.2569   0.3829     H
H       0.8833   0.2942   0.8561     H
C       0.8847   0.7273  0.97398     C
C       0.8918   0.8119  0.96057     C
H       0.9005   0.6395   0.6108     H
H       0.9081    0.862   0.8433     H
H       0.9106   0.1773   0.8033     H
C       0.9107   0.3484  0.35703     C
H       0.9131    0.373   0.5273     H
C       0.9138    0.983  0.53762     C
H       0.9149   0.5599   0.6998     H
C       0.9174   0.8328  0.33616     C
C       0.9179   0.9269  0.65074     C
C       0.9224   0.2611  0.36991     C
N       0.9251   0.0484  0.55393     N
C       0.9269   0.9179  0.34926     C
N       0.9271   0.0024  0.63566     N
H       0.9272   0.2905    0.508     H
H       0.9287   0.7224   0.8201     H
H       0.9294   0.2641   0.4293     H
C       0.9311   0.1521  0.86642     C
C       0.9311   0.2077  0.78944     C
H       0.9317   0.9668   0.4647     H
C       0.9344   0.2405  0.85422     C
H       0.9357   0.1518   0.7786     H
H        0.938   0.8223   0.4884     H
C       0.9399   0.3517  0.98477     C
H       0.9401   0.4149   0.4498     H
H       0.9407   0.5575   0.2083     H
O        0.941   0.6402  0.01689     O
C        0.942   0.5446  0.00594     C
C       0.9422   0.2513  0.97273     C
C       0.9422   0.4437  0.97359     C
H       0.9425   0.4407   0.9583     H
H       0.9436   0.4857   0.1013     H
I      0.94362   0.8018  0.09913     I
C       0.9437   0.5578  0.22359     C
C        0.944   0.3564  0.00746     C
C        0.944   0.5424  0.98349     C
C       0.9443   0.4777  0.08605     C
O       0.9446   0.3689  0.29215     O
Cu     0.94477  0.99524  0.11534    Cu
C       0.9448   0.4514  0.01806     C
C       0.9455   0.4568  0.04227     C
C        0.948   0.6405  0.97042     C
Cu     0.94923  0.97011   0.0747    Cu
O       0.9502   0.2631  0.01923     O
C       0.9514   0.5552  0.26806     C
N       0.9516   0.0749  0.94607     N
C       0.9534    0.463  0.30359     C
I      0.95407   0.1622  0.09021     I
C       0.9554    0.442  0.75594     C
C       0.9565   0.8079  0.84686     C
C       0.9568   0.5545  0.29227     C
C       0.9576    0.444  0.73349     C
C       0.9583   0.3177  0.52135     C
C       0.9586    0.533  0.57592     C
N       0.9602    0.818  0.94408     N
C        0.963   0.5466  0.55359     C
H        0.965   0.2605   0.5318     H
C       0.9661   0.7228  0.83335     C
H       0.9668   0.9317   0.5353     H
C        0.967   0.4586  0.32592     C
O       0.9689   0.7421  0.29154     O
C        0.969   0.6494  0.30372     C
Cu     0.97011  0.94923  0.92531    Cu
C       0.9714   0.3617  0.33856     C
H       0.9736   0.8778   0.6523     H
C       0.9773   0.6486  0.32568     C
C       0.9777   0.5557  0.33605     C
C       0.9786   0.2664  0.44075     C
C        0.983   0.9138  0.46238     C
C       0.9833   0.3561  0.45309     C
C       0.9852   0.8267  0.47657     C
H       0.9857   0.5564   0.3513     H
C       0.9858   0.7484   0.3387     C
N       0.9861   0.1831  0.36505     N
Cu     0.99524  0.94477  0.88466    Cu
N       0.9976   0.0729  0.86434     N
