data_I
_chemical_name_common  '/home/zhangsd/repos/MofS-CGCNN/ML/data/TSD/clean_cifs/KOXGIP_clean'
_cell_length_a 17.09800
_cell_length_b 26.43500
_cell_length_c 12.83800
_cell_angle_alpha 90.00000
_cell_angle_beta  129.16600
_cell_angle_gamma 90.00000
_space_group_name_H-M_alt      'P 1'


loop_
_space_group_symop_operation_xyz
  'x, y, z' 

loop_
_atom_site_label
_atom_site_fract_x
_atom_site_fract_y
_atom_site_fract_z
_atom_site_type_symbol
H          0.0   0.0424     0.75     H
C          0.0   0.0776     0.75     C
C          0.0   0.1827     0.75     C
C          0.0   0.2395     0.75     C
C          0.0   0.3416     0.75     C
H          0.0   0.3768     0.75     H
Ag         0.0  0.46757     0.25    Ag
Ag         0.0  0.53243     0.75    Ag
H          0.0   0.6232     0.25     H
C          0.0   0.6584     0.25     C
C          0.0   0.7605     0.25     C
C          0.0   0.8173     0.25     C
C          0.0   0.9224     0.25     C
H          0.0   0.9576     0.25     H
C       0.0079   0.3179   0.6633     C
C       0.0079   0.6821   0.1633     C
C       0.0089   0.2648   0.6632     C
C       0.0089   0.7352   0.1632     C
N       0.0107   0.4121   0.3966     N
N       0.0107   0.5879   0.8966     N
C       0.0129   0.3484   0.5717     C
C       0.0129   0.6516   0.0717     C
O       0.0165   0.2381   0.5802     O
O       0.0165   0.7619   0.0802     O
C       0.0514   0.3723     0.15     C
C       0.0514   0.6277     0.65     C
C       0.0531   0.3399   0.0689     C
C       0.0531   0.6601   0.5689     C
C       0.0755   0.4188   0.5282     C
C       0.0755   0.5812   0.0282     C
C       0.0788   0.3882   0.6141     C
C       0.0788   0.6118   0.1141     C
C         0.09   0.1554   0.8315     C
C         0.09   0.8446   0.3315     C
C       0.0909   0.1027   0.8347     C
C       0.0909   0.8973   0.3347     C
H        0.091   0.4458   0.9685     H
H        0.091   0.5542   0.4685     H
H       0.0956   0.3666   0.2422     H
H       0.0956   0.6334   0.7422     H
H        0.097   0.3124   0.1054     H
H        0.097   0.6876   0.6054     H
H       0.1165   0.2155   0.5594     H
H       0.1165   0.7845   0.0594     H
C       0.1166   0.2367   0.6202     C
C       0.1166   0.7633   0.1202     C
H       0.1203   0.4458   0.5624     H
H       0.1203   0.5542   0.0624     H
H       0.1273    0.394   0.7059     H
H       0.1273    0.606   0.2059     H
H       0.1341   0.0289   0.0034     H
H       0.1341   0.9711   0.5034     H
H       0.1368   0.2703   0.6181     H
H       0.1368   0.7297   0.1181     H
N       0.1418   0.4859   0.8948     N
N       0.1418   0.5141   0.3948     N
C       0.1468   0.4505   0.9727     C
C       0.1468   0.5495   0.4727     C
H        0.163   0.2234   0.7096     H
H        0.163   0.7766   0.2096     H
H       0.1694   0.2085   0.0429     H
H       0.1694   0.7915   0.5429     H
O       0.1794   0.1821   0.9082     O
O       0.1794   0.8179   0.4082     O
C       0.1852   0.0737   0.9307     C
C       0.1852   0.9263   0.4307     C
C       0.1901   0.0356   0.0092     C
C       0.1901   0.9644   0.5092     C
C       0.2188   0.1909   0.0433     C
C       0.2188   0.8091   0.5433     C
H       0.2212   0.2889   0.9111     H
H       0.2212   0.7111   0.4111     H
H       0.2233   0.4834   0.3528     H
H       0.2233   0.5166   0.8528     H
C       0.2244   0.4921   0.9058     C
C       0.2244   0.5079   0.4058     C
H       0.2317   0.3957    0.113     H
H       0.2317   0.6043    0.613     H
C       0.2319     0.42   0.0608     C
C       0.2319     0.58   0.5608     C
H       0.2346   0.1592    0.089     H
H       0.2346   0.8408    0.589     H
H       0.2654   0.3408    0.911     H
H       0.2654   0.6592    0.411     H
C       0.2681     0.08   0.9392     C
C       0.2681     0.92   0.4392     C
H       0.2683   0.1043    0.887     H
H       0.2683   0.8957    0.387     H
C       0.2756   0.0079   0.0942     C
C       0.2756   0.9921   0.5942     C
H       0.2767   0.0166   0.6472     H
H       0.2767   0.9834   0.1472     H
H       0.2788   0.2111   0.0889     H
H       0.2788   0.7889   0.5889     H
C       0.2812   0.3091   0.9567     C
C       0.2812   0.6909   0.4567     C
C       0.3099   0.4644   0.9908     C
C       0.3099   0.5356   0.4908     C
C       0.3148   0.4263   0.0693     C
C       0.3148   0.5737   0.5693     C
O       0.3206   0.3179   0.0918     O
O       0.3206   0.6821   0.5918     O
H       0.3306   0.2915   0.9571     H
H       0.3306   0.7085   0.4571     H
H        0.337   0.2766   0.2904     H
H        0.337   0.7234   0.7904     H
C       0.3532   0.0495   0.0273     C
C       0.3532   0.9505   0.5273     C
N       0.3582   0.0141   0.1052     N
N       0.3582   0.9859   0.6052     N
H       0.3632   0.2297   0.3819     H
H       0.3632   0.7703   0.8819     H
H       0.3659   0.4711   0.9966     H
H       0.3659   0.5289   0.4966     H
H       0.3727    0.106   0.2941     H
H       0.3727    0.894   0.7941     H
H       0.3797   0.0542   0.4376     H
H       0.3797   0.9458   0.9376     H
C       0.3834   0.2633   0.3798     C
C       0.3834   0.7367   0.8798     C
H       0.3835   0.2845   0.4406     H
H       0.3835   0.7155   0.9406     H
H        0.403   0.1876   0.8946     H
H        0.403   0.8124   0.3946     H
H       0.4044   0.1334   0.7578     H
H       0.4044   0.8666   0.2578     H
H        0.409   0.0542   0.0315     H
H        0.409   0.9458   0.5315     H
C       0.4091   0.3973   0.1653     C
C       0.4091   0.6027   0.6653     C
C         0.41   0.3446   0.1685     C
C         0.41   0.6554   0.6685     C
C       0.4212   0.1118   0.3859     C
C       0.4212   0.8882   0.8859     C
C       0.4245   0.0812   0.4718     C
C       0.4245   0.9188   0.9718     C
C       0.4469   0.1601   0.9311     C
C       0.4469   0.8399   0.4311     C
C       0.4486   0.1277     0.85     C
C       0.4486   0.8723     0.35     C
O       0.4835   0.2619   0.4198     O
O       0.4835   0.7381   0.9198     O
C       0.4871   0.1516   0.4283     C
C       0.4871   0.8484   0.9283     C
N       0.4893   0.0879   0.6034     N
N       0.4893   0.9121   0.1034     N
C       0.4911   0.2352   0.3368     C
C       0.4911   0.7648   0.8368     C
C       0.4921   0.1821   0.3367     C
C       0.4921   0.8179   0.8367     C
Ag         0.5  0.03243     0.75    Ag
H          0.5   0.1232     0.25     H
C          0.5   0.1584     0.25     C
C          0.5   0.2605     0.25     C
C          0.5   0.3173     0.25     C
C          0.5   0.4224     0.25     C
H          0.5   0.4576     0.25     H
H          0.5   0.5424     0.75     H
C          0.5   0.5776     0.75     C
C          0.5   0.6827     0.75     C
C          0.5   0.7395     0.75     C
C          0.5   0.8416     0.75     C
H          0.5   0.8768     0.75     H
Ag         0.5  0.96757     0.25    Ag
C       0.5079   0.1821   0.1633     C
C       0.5079   0.8179   0.6633     C
C       0.5089   0.2352   0.1632     C
C       0.5089   0.7648   0.6632     C
N       0.5107   0.0879   0.8966     N
N       0.5107   0.9121   0.3966     N
C       0.5129   0.1516   0.0717     C
C       0.5129   0.8484   0.5717     C
O       0.5165   0.2619   0.0802     O
O       0.5165   0.7381   0.5802     O
C       0.5514   0.1277     0.65     C
C       0.5514   0.8723     0.15     C
C       0.5531   0.1601   0.5689     C
C       0.5531   0.8399   0.0689     C
C       0.5755   0.0812   0.0282     C
C       0.5755   0.9188   0.5282     C
C       0.5788   0.1118   0.1141     C
C       0.5788   0.8882   0.6141     C
C         0.59   0.3446   0.3315     C
C         0.59   0.6554   0.8315     C
C       0.5909   0.3973   0.3347     C
C       0.5909   0.6027   0.8347     C
H        0.591   0.0542   0.4685     H
H        0.591   0.9458   0.9685     H
H       0.5956   0.1334   0.7422     H
H       0.5956   0.8666   0.2422     H
H        0.597   0.1876   0.6054     H
H        0.597   0.8124   0.1054     H
H       0.6165   0.2845   0.0594     H
H       0.6165   0.7155   0.5594     H
C       0.6166   0.2633   0.1202     C
C       0.6166   0.7367   0.6202     C
H       0.6203   0.0542   0.0624     H
H       0.6203   0.9458   0.5624     H
H       0.6273    0.106   0.2059     H
H       0.6273    0.894   0.7059     H
H       0.6341   0.4711   0.5034     H
H       0.6341   0.5289   0.0034     H
H       0.6368   0.2297   0.1181     H
H       0.6368   0.7703   0.6181     H
N       0.6418   0.0141   0.3948     N
N       0.6418   0.9859   0.8948     N
C       0.6468   0.0495   0.4727     C
C       0.6468   0.9505   0.9727     C
H        0.663   0.2766   0.2096     H
H        0.663   0.7234   0.7096     H
H       0.6694   0.2915   0.5429     H
H       0.6694   0.7085   0.0429     H
O       0.6794   0.3179   0.4082     O
O       0.6794   0.6821   0.9082     O
C       0.6852   0.4263   0.4307     C
C       0.6852   0.5737   0.9307     C
C       0.6901   0.4644   0.5092     C
C       0.6901   0.5356   0.0092     C
C       0.7188   0.3091   0.5433     C
C       0.7188   0.6909   0.0433     C
H       0.7212   0.2111   0.4111     H
H       0.7212   0.7889   0.9111     H
H       0.7233   0.0166   0.8528     H
H       0.7233   0.9834   0.3528     H
C       0.7244   0.0079   0.4058     C
C       0.7244   0.9921   0.9058     C
H       0.7317   0.1043    0.613     H
H       0.7317   0.8957    0.113     H
C       0.7319     0.08   0.5608     C
C       0.7319     0.92   0.0608     C
H       0.7346   0.3408    0.589     H
H       0.7346   0.6592    0.089     H
H       0.7654   0.1592    0.411     H
H       0.7654   0.8408    0.911     H
C       0.7681     0.42   0.4392     C
C       0.7681     0.58   0.9392     C
H       0.7683   0.3957    0.387     H
H       0.7683   0.6043    0.887     H
C       0.7756   0.4921   0.5942     C
C       0.7756   0.5079   0.0942     C
H       0.7767   0.4834   0.1472     H
H       0.7767   0.5166   0.6472     H
H       0.7788   0.2889   0.5889     H
H       0.7788   0.7111   0.0889     H
C       0.7812   0.1909   0.4567     C
C       0.7812   0.8091   0.9567     C
C       0.8099   0.0356   0.4908     C
C       0.8099   0.9644   0.9908     C
C       0.8148   0.0737   0.5693     C
C       0.8148   0.9263   0.0693     C
O       0.8206   0.1821   0.5918     O
O       0.8206   0.8179   0.0918     O
H       0.8306   0.2085   0.4571     H
H       0.8306   0.7915   0.9571     H
H        0.837   0.2234   0.7904     H
H        0.837   0.7766   0.2904     H
C       0.8532   0.4505   0.5273     C
C       0.8532   0.5495   0.0273     C
N       0.8582   0.4859   0.6052     N
N       0.8582   0.5141   0.1052     N
H       0.8632   0.2703   0.8819     H
H       0.8632   0.7297   0.3819     H
H       0.8659   0.0289   0.4966     H
H       0.8659   0.9711   0.9966     H
H       0.8727    0.394   0.7941     H
H       0.8727    0.606   0.2941     H
H       0.8797   0.4458   0.9376     H
H       0.8797   0.5542   0.4376     H
C       0.8834   0.2367   0.8798     C
C       0.8834   0.7633   0.3798     C
H       0.8835   0.2155   0.9406     H
H       0.8835   0.7845   0.4406     H
H        0.903   0.3124   0.3946     H
H        0.903   0.6876   0.8946     H
H       0.9044   0.3666   0.2578     H
H       0.9044   0.6334   0.7578     H
H        0.909   0.4458   0.5315     H
H        0.909   0.5542   0.0315     H
C       0.9091   0.1027   0.6653     C
C       0.9091   0.8973   0.1653     C
C         0.91   0.1554   0.6685     C
C         0.91   0.8446   0.1685     C
C       0.9212   0.3882   0.8859     C
C       0.9212   0.6118   0.3859     C
C       0.9245   0.4188   0.9718     C
C       0.9245   0.5812   0.4718     C
C       0.9469   0.3399   0.4311     C
C       0.9469   0.6601   0.9311     C
C       0.9486   0.3723     0.35     C
C       0.9486   0.6277     0.85     C
O       0.9835   0.2381   0.9198     O
O       0.9835   0.7619   0.4198     O
C       0.9871   0.3484   0.9283     C
C       0.9871   0.6516   0.4283     C
N       0.9893   0.4121   0.1034     N
N       0.9893   0.5879   0.6034     N
C       0.9911   0.2648   0.8368     C
C       0.9911   0.7352   0.3368     C
C       0.9921   0.3179   0.8367     C
C       0.9921   0.6821   0.3367     C
