data_I
_chemical_name_common  '/home/zhangsd/repos/MofS-CGCNN/ML/data/TSD/clean_cifs/KOZSOJ_clean'
_cell_length_a 32.42500
_cell_length_b 32.42500
_cell_length_c  9.34000
_cell_angle_alpha 90.00000
_cell_angle_beta  90.00000
_cell_angle_gamma 120.00000
_space_group_name_H-M_alt      'P 1'


loop_
_space_group_symop_operation_xyz
  'x, y, z' 

loop_
_atom_site_label
_atom_site_fract_x
_atom_site_fract_y
_atom_site_fract_z
_atom_site_type_symbol
Co         0.0      0.5      0.0    Co
H      0.00033  0.56647  0.75027     H
C      0.00192  0.75671  0.49803     C
N      0.00209  0.46696   0.8217     N
H      0.00363  0.20097  0.73667     H
H      0.00707  0.80063  0.65883     H
C       0.0087    0.593   0.3337     C
C      0.01433  0.22707  0.39317     C
H      0.02143  0.29687  0.64867     H
H        0.022   0.6237    0.376     H
C      0.02479    0.581   0.2043     C
C      0.02737  0.43893  0.19913     C
C       0.0283    0.447   0.6175     C
C      0.02922  0.81208  0.24143     C
C      0.03118  0.28412  0.57277     C
H      0.03207  0.14173  0.48453     H
C      0.03496  0.48433   0.7126     C
H      0.03607  0.11933  0.80713     H
H      0.03647  0.39123  0.31533     H
H      0.03807  0.84643  0.04823     H
H      0.04297  0.73163  0.70933     H
N      0.04307  0.47061  0.09163     N
H      0.04587  0.10523  0.55433     H
H       0.0468   0.4501    0.535     H
C      0.04922  0.41373  0.23943     C
C      0.05184   0.8379  0.12423     C
C       0.0527  0.78145  0.45393     C
H       0.0548   0.5351   0.4259     H
N       0.0576  0.55871   0.9305     N
C      0.05787  0.13853  0.52773     C
H       0.0579   0.6881    0.018     H
C      0.05887  0.15213  0.79663     C
H      0.05937  0.95413  0.55433     H
H      0.06117  0.16753  0.00933     H
C      0.06201  0.25127  0.35977     C
C      0.06209  0.61397   0.1206     C
C      0.06358  0.80794  0.32673     C
H      0.06457  0.91603  0.45863     H
H      0.06497  0.35533  0.95733     H
H      0.06997  0.28653  0.86833     H
H      0.07253  0.23907  0.28437     H
C      0.07351  0.53155   0.7021     C
C      0.07367  0.74903  0.66703     C
C      0.07377  0.18083  0.91813     C
C      0.07607  0.16963  0.66043     C
C       0.0777  0.60309   0.9934     C
C      0.07823  0.30597  0.53247     C
C       0.0804  0.69785   0.0939     C
C      0.08067  0.94213  0.52773     C
C      0.08207  0.47741  0.02643     C
C      0.08223  0.56549    0.804     C
C      0.08237  0.34203  0.99963     C
H      0.08327  0.96393  0.80713     H
H      0.08397  0.14853  0.45863     H
C      0.08537  0.30503  0.95083     C
C      0.08567  0.77712  0.53763     C
C       0.0874  0.54437   0.4371     C
C      0.08813  0.66475   0.1647     C
C      0.09005  0.42146  0.16863     C
C      0.09327  0.94113  0.79663     C
C      0.09357  0.92393  0.66043     C
N      0.09421  0.29027  0.42497     N
H      0.09427  0.50013  0.95103     H
H       0.1002   0.7672   0.0836     H
H      0.10053  0.33367  0.58307     H
C      0.10118  0.85007  0.13733     C
H       0.1029   0.5548   0.2246     H
C      0.10466  0.54484   0.5722     C
H      0.10523  0.05937  0.44567     H
C       0.1056   0.7449   0.1342     C
C      0.10627  0.45393  0.05983     C
H      0.10637  0.93883  0.00933     H
C      0.10685  0.22867  0.90553     C
C      0.10707  0.92623  0.91813     C
C      0.10737  0.21683  0.64983     C
N      0.10796  0.83222  0.26383     N
C      0.10947  0.89263  0.64983     C
H      0.10967  0.96793  0.48453     H
C      0.11046  0.35812  0.12903     C
H      0.11187  0.88143  0.55793     H
C      0.11367  0.75203  0.71583     C
C      0.11479  0.39542  0.21273     C
C      0.11604  0.29837  0.04593     C
C       0.1162  0.63745   0.9081     C
C       0.1165   0.5572   0.3165     C
H      0.11677  0.73663  0.79833     H
H      0.11857  0.23043  0.55793     H
H      0.11933  0.08327  0.19287     H
C       0.1194  0.61483   0.7909     C
C       0.1206    0.681   0.2735     C
C      0.12183  0.89315  0.90553     C
C       0.1223  0.87636  0.77043     C
C      0.12364  0.24593  0.77043     C
C      0.12471  0.25982  0.03543     C
H       0.1269   0.6596   0.3255     H
N      0.13154  0.33124  0.15503     N
H      0.13157  0.85303  0.75923     H
H      0.13237  0.46933  0.40333     H
N      0.13363   0.7982  0.51163     N
H      0.13397  0.46023  0.00783     H
C      0.13512  0.87529  0.03543     C
H        0.136   0.6703     0.93     H
N      0.13728  0.76088   0.2417     N
C      0.13853  0.08067  0.47227     C
C      0.14128  0.41103  0.33993     C
H       0.1417   0.6286   0.7149     H
H      0.14173  0.10967  0.51547     H
C      0.14408  0.72868   0.3069     C
C      0.14542  0.44953  0.42523     C
H      0.14697  0.27853  0.75923     H
H      0.14853  0.06457  0.54137     H
C      0.14993   0.2511  0.13733     C
C        0.151   0.7827  0.62073     C
C      0.15213  0.09327  0.20337     C
C       0.1525   0.5596   0.5848     C
H      0.15357  0.19163  0.04823     H
C       0.1621  0.21393  0.12423     C
C       0.1637   0.5731   0.3271     C
N      0.16556  0.39093  0.40283     N
H       0.1658   0.5603    0.676     H
H      0.16653  0.92747  0.28437     H
Co     0.16667  0.33333  0.33333    Co
Co     0.16667  0.83333  0.33333    Co
H       0.1668   0.7392   0.3823     H
H      0.16753  0.10637  0.99067     H
N      0.16778  0.27573  0.26383     N
C      0.16963  0.09357  0.33957     C
C      0.17124  0.45273  0.54243     C
H      0.17977  0.47503  0.61843     H
C      0.18083  0.10707  0.08187     C
C       0.1812   0.5734   0.4633     C
C      0.18234  0.88396  0.04593     C
C      0.18341  0.41556  0.52933     C
H       0.1848   0.6021   0.1253     H
H      0.18637  0.38813  0.90743     H
C      0.18792  0.21713  0.24143     C
C      0.18925  0.93799  0.35977     C
H       0.1916    0.557   0.1512     H
H      0.19163  0.03807  0.95177     H
C      0.19206  0.25563  0.32673     C
C       0.1948    0.586   0.1944     C
N      0.19605  0.90579  0.42497     N
H      0.19733  0.99637  0.73667     H
C      0.19822  0.79137  0.63123     C
H      0.19937  0.20643  0.65883     H
N      0.19971  0.86846  0.15503     N
H      0.20097  0.19733  0.26333     H
H      0.20177  0.81363  0.90743     H
N       0.2018  0.33542  0.51163     N
H      0.20643  0.00707  0.34117     H
C      0.20863  0.40684  0.63123     C
C       0.2097  0.42073  0.89623     C
C      0.21104   0.7903  0.89623     C
C      0.21151  0.77351  0.76113     C
C      0.21273  0.98567  0.39317     C
C      0.21393  0.05184  0.87577     C
H        0.214   0.5834   0.4738     H
H      0.21477  0.43623  0.10873     H
H      0.21657  0.93003  0.86833     H
C      0.21683  0.10947  0.35017     C
C      0.21713  0.02922  0.75857     C
C       0.2173  0.36829  0.62073     C
C      0.21855  0.27124  0.45393     C
C      0.21967  0.91463  0.95083     C
H      0.22147  0.78523  0.10873     H
C      0.22288  0.30854  0.53763     C
H      0.22367  0.69873  0.18213     H
C      0.22387  0.77403  0.01683     C
N      0.22538  0.83444  0.40283     N
C      0.22597  0.44983  0.01683     C
C      0.22627  0.74043  0.74853     C
C      0.22649  0.43799  0.76113     C
H      0.22697  0.72783  0.65733     H
C      0.22707  0.21273  0.60683     C
C      0.22773  0.92177  0.53247     C
H       0.2281   0.6073    0.221     H
C      0.22867  0.12183  0.09447     C
H      0.23043  0.11187  0.44207     H
C      0.23216  0.81659  0.52933     C
H       0.2328    0.333   0.0836     H
H      0.23313  0.89947  0.58307     H
H      0.23907  0.16653  0.71563     H
N      0.23912   0.3764   0.2417     N
C      0.23977  0.74273  0.00623     C
C      0.24007  0.72553  0.87003     C
C      0.24329   0.2452  0.49803     C
C       0.2452  0.00192  0.50197     C
C      0.24593   0.1223  0.22957     C
C      0.24767  0.88954  0.12903     C
C      0.24797  0.36163  0.71583     C
H      0.24937  0.51813  0.20803     H
H      0.25007  0.70273  0.85953     H
C      0.25097  0.32463  0.66703     C
C       0.2511  0.10118  0.86267     C
C      0.25127  0.18925  0.64023     C
C      0.25267  0.72453  0.13893     C
C      0.25293  0.96882  0.57277     C
C       0.2551   0.3607   0.1342     C
C      0.25563  0.06358  0.67327     C
C      0.25727  0.49703  0.00623     C
C      0.25957  0.48583  0.74853     C
C      0.25967  0.91763  0.99963     C
C      0.25982  0.13512  0.96457     C
H       0.2608   0.4276   0.3823     H
H      0.26337  0.38013  0.79833     H
H      0.26837  0.31133  0.70933     H
H      0.26877  0.75063  0.20803     H
C      0.26976  0.85872  0.33993     C
C      0.27124   0.0527  0.54607     C
C      0.27132   0.4154   0.3069     C
H      0.27217  0.49913  0.65733     H
H      0.27397  0.71253  0.11233     H
C      0.27447  0.51453  0.87003     C
H      0.27543  0.97857  0.64867     H
C      0.27547  0.52813  0.13893     C
N      0.27573  0.10796  0.73617     N
H      0.27853  0.13157  0.24077     H
C      0.28064  0.88521  0.21273     C
C       0.2815  0.82876  0.54243     C
C      0.28412  0.25293  0.42723     C
H      0.28653  0.21657  0.13167     H
H      0.28747  0.56143  0.11233     H
N      0.29027  0.19605  0.57503     N
H      0.29037  0.93503  0.95733     H
H      0.29527  0.82023  0.61843     H
H      0.29687  0.27543  0.35133     H
H      0.29727  0.54733  0.85953     H
C      0.29837  0.18234  0.95407     C
H      0.30127  0.52493  0.18213     H
C      0.30215  0.38255   0.0939     C
C      0.30412  0.85458  0.42523     C
C      0.30503  0.21967  0.04917     C
C      0.30597  0.22773  0.46753     C
C      0.30854  0.08567  0.46237     C
H      0.31133  0.04297  0.29067     H
H       0.3119   0.3698    0.018     H
C        0.319   0.4396   0.2735     C
C      0.32463  0.07367  0.33297     C
H      0.32627  0.86603  0.00783     H
H       0.3297   0.4657     0.93     H
N      0.33124  0.19971  0.84497     N
C      0.33142  0.90995  0.16863     C
H        0.333   0.1002   0.9164     H
Co     0.33333  0.16667  0.66667    Co
H      0.33367  0.23313  0.41693     H
C      0.33525  0.42338   0.1647     C
N      0.33542  0.13363  0.48837     N
H      0.33697  0.86763  0.40333     H
H       0.3404   0.4673   0.3255     H
C      0.34203  0.25967  0.00037     C
C      0.34767  0.89373  0.05983     C
H      0.35477  0.96353  0.31533     H
H      0.35533  0.29037  0.04267     H
C      0.35812  0.24767  0.87097     C
C       0.3607   0.1056   0.8658     C
C      0.36163  0.11367  0.28417     C
C      0.36255  0.47875   0.9081     C
C      0.36452  0.95078  0.23943     C
H       0.3654   0.8084   0.1512     H
C      0.36829    0.151  0.37927     C
H       0.3694    0.786   0.4738     H
H       0.3698   0.0579    0.982     H
H       0.3714   0.5131   0.7149     H
H       0.3763   0.3983    0.376     H
N       0.3764  0.13728   0.7583     N
H       0.3792   0.7719    0.221     H
H      0.38013  0.11677  0.20167     H
C      0.38255   0.0804   0.9061     C
C      0.38517  0.50457   0.7909     C
C      0.38603  0.44812   0.1206     C
H      0.38813  0.20177  0.09257     H
N      0.39093  0.22538  0.59717     N
C       0.3912   0.8052   0.1944     C
H      0.39123  0.35477  0.68467     H
C       0.3922   0.8188   0.4633     C
H       0.3927   0.6208    0.221     H
H       0.3945   0.8342    0.676     H
C      0.39535  0.91793  0.02643     C
C      0.39542  0.28064  0.78727     C
C      0.39691  0.47461   0.9934     C
H       0.3979   0.5827   0.1253     H
H       0.3983    0.022    0.624     H
H       0.4033   0.9532    0.535     H
H      0.40587  0.90573  0.95103     H
C      0.40684  0.19822  0.36877     C
C        0.407   0.4157   0.3337     C
C       0.4071   0.8475   0.5848     C
C       0.4094   0.8363   0.3271     C
C      0.41103  0.26976  0.66007     C
C      0.41157  0.97263  0.19913     C
C      0.41373  0.36452  0.76057     C
C        0.414   0.6088   0.1944     C
C       0.4154  0.14408   0.6931     C
C      0.41556  0.23216  0.47067     C
C       0.4157   0.0087   0.6663     C
H       0.4166   0.6306   0.4738     H
H       0.4173   0.8152   0.1253     H
C       0.4187   0.9717   0.6175     C
C        0.419  0.44379   0.2043     C
C      0.42073  0.21104  0.10377     C
C      0.42146  0.33142  0.83137     C
C      0.42338  0.08813   0.8353     C
C       0.4266   0.6078   0.4633     C
C       0.4269   0.5906   0.3271     C
N      0.42755  0.95693  0.09163     N
H       0.4276   0.1668   0.6177     H
H      0.43353  0.43387  0.75027     H
H      0.43387  0.00033  0.24973     H
C      0.43451  0.51674    0.804     C
H      0.43623  0.22147  0.89127     H
C      0.43799  0.21151  0.23887     C
H      0.43857  0.72603  0.11233     H
C      0.43893  0.41157  0.80087     C
C       0.4396   0.1206   0.7265     C
H       0.4397   0.6055    0.676     H
C      0.44018  0.89534   0.5722     C
C       0.4404   0.5929   0.5848     C
C       0.4407   0.8835   0.3165     C
N      0.44129  0.49889   0.9305     N
C       0.4428   0.5593   0.3165     C
H        0.443   0.6346   0.1512     H
C      0.44379  0.02479   0.7957     C
H       0.4452   0.5481   0.2246     H
C        0.447   0.4187   0.3825     C
C      0.44812  0.06209   0.8794     C
C      0.44937  0.96504   0.7126     C
C      0.44953  0.30412  0.57477     C
C      0.44983  0.22387  0.98317     C
H       0.4501   0.4033    0.465     H
H       0.4519   0.8971   0.2246     H
H      0.45267  0.74993  0.85953     H
C      0.45273   0.2815  0.45757     C
C      0.45393  0.34767  0.94017     C
C      0.45516  0.55982   0.5722     C
C      0.45563  0.54303   0.4371     C
C      0.45697   0.9126   0.4371     C
C      0.45804  0.92649   0.7021     C
H      0.46023  0.32627  0.99217     H
N      0.46487  0.99791   0.8217     N
H       0.4649   0.5197   0.4259     H
H       0.4657    0.136     0.07     H
N      0.46696  0.46487   0.1783     N
H       0.4673   0.1269   0.6745     H
C      0.46845  0.54196   0.7021     C
H      0.46933  0.33697  0.59667     H
N      0.47061  0.42755  0.90837     N
C      0.47187  0.74733  0.13893     C
C      0.47461   0.0777   0.0066     C
H      0.47503  0.29527  0.38157     H
H      0.47507  0.77633  0.18213     H
C      0.47741  0.39535  0.97357     C
C      0.47875   0.1162   0.0919     C
H       0.4803   0.9452   0.4259     H
H      0.48187  0.73123  0.20803     H
C      0.48326  0.91777    0.804     C
C      0.48433  0.44937   0.2874     C
C      0.48547  0.75993  0.87003     C
C      0.48583  0.22627  0.25147     C
H       0.4869   0.8583   0.7149     H
C      0.49543   0.8806   0.7909     C
C      0.49703  0.23977  0.99377     C
N      0.49889   0.0576   0.0695     N
H      0.49913  0.22697  0.34267     H
H      0.49987  0.59413  0.95103     H
Co         0.5      0.0      0.0    Co
Co         0.5      0.5      0.0    Co
H      0.50013  0.40587  0.04897     H
H      0.50087  0.77303  0.65733     H
N      0.50111   0.9424   0.9305     N
C      0.50297  0.76023  0.00623     C
C      0.50457   0.1194   0.2091     C
H       0.5131   0.1417   0.2851     H
C      0.51417  0.77373  0.74853     C
C      0.51453  0.24007  0.12997     C
C      0.51567  0.55063   0.7126     C
C      0.51674  0.08223    0.196     C
H      0.51813  0.26877  0.79197     H
H       0.5197   0.0548   0.5741     H
C      0.52125   0.8838   0.9081     C
C      0.52259  0.60465  0.02643     C
H      0.52493  0.22367  0.81787     H
H      0.52497  0.70473  0.61843     H
C      0.52539   0.9223   0.9934     C
C      0.52813  0.25267  0.86107     C
N      0.52939  0.57245  0.09163     N
H      0.53067  0.66303  0.40333     H
C      0.53155  0.45804   0.2979     C
H       0.5327   0.8731   0.3255     H
N      0.53304  0.53513   0.8217     N
H       0.5343    0.864     0.93     H
H       0.5351   0.4803   0.5741     H
N      0.53513  0.00209   0.1783     N
H      0.53977  0.67373  0.00783     H
C      0.54196  0.07351   0.2979     C
C      0.54303   0.0874   0.5629     C
C      0.54437  0.45697   0.5629     C
C      0.54484  0.44018   0.4278     C
C      0.54607  0.65233  0.05983     C
C      0.54727   0.7185  0.54243     C
H      0.54733  0.25007  0.14047     H
H       0.5481   0.1029   0.7754     H
H       0.5499   0.5967    0.535     H
C      0.55017  0.77613  0.01683     C
C      0.55047  0.69588  0.42523     C
C      0.55063  0.03496   0.2874     C
C      0.55188  0.93791   0.1206     C
C        0.553   0.5813   0.6175     C
H       0.5548   0.4519   0.7754     H
C      0.55621  0.97521   0.2043     C
H        0.557   0.3654   0.8488     H
C       0.5572   0.4407   0.6835     C
N      0.55871  0.50111   0.0695     N
C       0.5593   0.1165   0.6835     C
C       0.5596   0.4071   0.4152     C
C      0.55982  0.10466   0.4278     C
H       0.5603   0.3945    0.324     H
C       0.5604   0.8794   0.2735     C
C      0.56107  0.58843  0.19913     C
H      0.56143  0.27397  0.88767     H
C      0.56201  0.78849  0.76113     C
H      0.56377  0.77853  0.10873     H
C      0.56549  0.48326    0.196     C
H      0.56613  0.99967  0.75027     H
H      0.56647  0.56613  0.24973     H
H       0.5724   0.8332   0.3823     H
N      0.57245  0.04307  0.90837     N
C       0.5731   0.4094   0.6729     C
C       0.5734   0.3922   0.5367     C
C      0.57662  0.91187   0.1647     C
C      0.57854  0.66858  0.16863     C
C      0.57927  0.78896  0.89623     C
C        0.581  0.55621   0.7957     C
C       0.5813   0.0283   0.3825     C
H       0.5827   0.1848   0.8747     H
H       0.5834   0.3694   0.5262     H
C       0.5843   0.9913   0.3337     C
C      0.58444  0.76784  0.52933     C
C       0.5846  0.85592   0.3069     C
C        0.586   0.3912   0.8056     C
C      0.58627  0.63548  0.23943     C
C      0.58843  0.02737  0.80087     C
C      0.58897  0.73024  0.33993     C
C       0.5906   0.1637   0.6729     C
C       0.5929   0.1525   0.4152     C
C        0.593   0.5843   0.6663     C
C      0.59316  0.80178  0.63123     C
H      0.59413  0.09427  0.04897     H
H       0.5967   0.0468    0.465     H
H       0.6017    0.978    0.376     H
H       0.6021   0.4173   0.8747     H
C      0.60309  0.52539   0.0066     C
C      0.60458  0.71936  0.21273     C
C      0.60465  0.08207  0.97357     C
H       0.6055   0.1658    0.324     H
H       0.6073   0.3792    0.779     H
C       0.6078   0.1812   0.5367     C
H      0.60877  0.64523  0.31533     H
C       0.6088   0.1948   0.8056     C
N      0.60907  0.77462  0.40283     N
H      0.61187  0.79823  0.90743     H
C      0.61397  0.55188   0.8794     C
C      0.61483  0.49543   0.2091     C
C      0.61745   0.9196   0.0939     C
H      0.61987  0.88323  0.79833     H
H       0.6208   0.2281    0.779     H
N       0.6236  0.86272   0.2417     N
H       0.6237   0.6017    0.624     H
H       0.6286   0.4869   0.2851     H
H       0.6302   0.9421    0.018     H
H       0.6306    0.214   0.5262     H
C      0.63171    0.849  0.62073     C
H       0.6346   0.1916   0.8488     H
C      0.63548  0.04922  0.76057     C
C      0.63745  0.52125   0.0919     C
C      0.63837  0.88633  0.71583     C
C       0.6393   0.8944   0.1342     C
C      0.64188  0.75233  0.12903     C
H      0.64467  0.70963  0.95733     H
H      0.64523  0.03647  0.68467     H
C      0.65233  0.10627  0.94017     C
C      0.65797  0.74033  0.99963     C
H       0.6596   0.5327   0.6745     H
H      0.66303  0.13237  0.59667     H
N      0.66458  0.86637  0.51163     N
C      0.66475  0.57662   0.8353     C
H      0.66633  0.76687  0.58307     H
Co     0.66667  0.83333  0.33333    Co
H        0.667   0.8998   0.0836     H
C      0.66858  0.09005  0.83137     C
N      0.66876  0.80029  0.15503     N
H       0.6703   0.5343     0.07     H
H      0.67373  0.13397  0.99217     H
C      0.67537  0.92633  0.66703     C
C        0.681   0.5604   0.7265     C
H       0.6881   0.6302    0.982     H
H      0.68867  0.95703  0.70933     H
C      0.69146  0.91433  0.53763     C
C      0.69403  0.77227  0.53247     C
C      0.69497  0.78033  0.95083     C
C      0.69588  0.14542  0.57477     C
C      0.69785  0.61745   0.9061     C
H      0.69873  0.47507  0.81787     H
C      0.70163  0.81766  0.04593     C
H      0.70273  0.45267  0.14047     H
H      0.70313  0.72457  0.64867     H
H      0.70473  0.17977  0.38157     H
H      0.70963  0.06497  0.04267     H
N      0.70973  0.80395  0.42497     N
H      0.71253  0.43857  0.88767     H
H      0.71347  0.78343  0.86833     H
C      0.71588  0.74707  0.57277     C
C       0.7185  0.17124  0.45757     C
C      0.71936  0.11479  0.78727     C
H      0.72147  0.86843  0.75923     H
N      0.72427  0.89204  0.26383     N
C      0.72453  0.47187  0.86107     C
H      0.72457  0.02143  0.35133     H
C      0.72553  0.48547  0.12997     C
H      0.72603  0.28747  0.88767     H
H      0.72783  0.50087  0.34267     H
C      0.72868   0.5846   0.6931     C
C      0.72876   0.9473  0.45393     C
C      0.73024  0.14128  0.66007     C
H      0.73123  0.24937  0.79197     H
H      0.73163  0.68867  0.29067     H
H      0.73663  0.61987  0.20167     H
H       0.7392   0.5724   0.6177     H
C      0.74018  0.86488  0.03543     C
C      0.74033  0.08237  0.00037     C
C      0.74043  0.51417  0.25147     C
C      0.74273  0.50297  0.99377     C
C      0.74437  0.93642  0.32673     C
C       0.7449   0.6393   0.8658     C
C      0.74707  0.03118  0.42723     C
C      0.74733  0.27547  0.86107     C
C      0.74873  0.81075  0.35977     C
C       0.7489  0.89882  0.13733     C
C      0.74903  0.67537  0.33297     C
H      0.74993  0.29727  0.14047     H
H      0.75063  0.48187  0.79197     H
C      0.75203  0.63837  0.28417     C
C      0.75233  0.11046  0.87097     C
C      0.75407   0.8777  0.77043     C
C       0.7548  0.99808  0.49803     C
C      0.75671   0.7548  0.50197     C
C      0.75993  0.27447  0.12997     C
C      0.76023  0.25727  0.99377     C
N      0.76088   0.6236   0.7583     N
H      0.76093  0.83347  0.28437     H
H      0.76687  0.10053  0.41693     H
H       0.7672    0.667   0.9164     H
C      0.76784  0.18341  0.47067     C
H      0.76957  0.88813  0.55793     H
C      0.77133  0.87817  0.90553     C
H       0.7719   0.3927    0.779     H
C      0.77227  0.07823  0.46753     C
C      0.77293  0.78727  0.39317     C
H      0.77303  0.27217  0.34267     H
C      0.77351  0.56201  0.23887     C
C      0.77373  0.25957  0.25147     C
C      0.77403  0.55017  0.98317     C
N      0.77462  0.16556  0.59717     N
C      0.77613  0.22597  0.98317     C
H      0.77633  0.30127  0.81787     H
C      0.77712  0.69146  0.46237     C
H      0.77853  0.21477  0.89127     H
C      0.78033  0.08537  0.04917     C
C      0.78145  0.72876  0.54607     C
C       0.7827  0.63171  0.37927     C
C      0.78287  0.97078  0.24143     C
C      0.78317  0.89053  0.64983     C
H      0.78343  0.06997  0.13167     H
H      0.78523  0.56377  0.89127     H
H        0.786   0.4166   0.5262     H
C      0.78607  0.94816  0.12423     C
C      0.78727  0.01433  0.60683     C
C      0.78849  0.22649  0.23887     C
C      0.78896   0.2097  0.10377     C
C       0.7903  0.57927  0.10377     C
C      0.79137  0.59316  0.36877     C
H      0.79357  0.99293  0.65883     H
N       0.7982  0.66458  0.48837     N
H      0.79823  0.18637  0.09257     H
H      0.79903  0.80267  0.73667     H
N      0.80029  0.13154  0.84497     N
H      0.80063  0.79357  0.34117     H
C      0.80178  0.20863  0.36877     C
H      0.80267  0.00363  0.26333     H
N      0.80395  0.09421  0.57503     N
C       0.8052    0.414   0.8056     C
C      0.80794  0.74437  0.67327     C
H      0.80837  0.96193  0.04823     H
H       0.8084    0.443   0.8488     H
C      0.81075  0.06201  0.64023     C
C      0.81208  0.78287  0.75857     C
H      0.81363  0.61187  0.09257     H
H       0.8152   0.3979   0.8747     H
C      0.81659  0.58444  0.47067     C
C      0.81766  0.11604  0.95407     C
C       0.8188   0.4266   0.5367     C
C      0.81917  0.89293  0.91813     C
H      0.82023  0.52497  0.38157     H
C      0.82876  0.54727  0.45757     C
C      0.83037  0.90643  0.66043     C
N      0.83222  0.72427  0.73617     N
H      0.83247  0.89363  0.00933     H
H       0.8332   0.2608   0.6177     H
Co     0.83333  0.16667  0.66667    Co
Co     0.83333  0.66667  0.66667    Co
H      0.83347  0.07253  0.71563     H
H       0.8342   0.4397    0.324     H
N      0.83444  0.60907  0.59717     N
C       0.8363   0.4269   0.6729     C
C       0.8379  0.78607  0.87577     C
H      0.84643  0.80837  0.95177     H
C       0.8475   0.4404   0.4152     C
C      0.84787  0.90673  0.79663     C
C        0.849   0.2173  0.37927     C
C      0.85007   0.7489  0.86267     C
H      0.85147  0.93543  0.45863     H
H      0.85303  0.72147  0.24077     H
C      0.85458  0.55047  0.57477     C
C      0.85592  0.27132   0.6931     C
H      0.85827  0.89033  0.48453     H
H       0.8583   0.3714   0.2851     H
C      0.85872  0.58897  0.66007     C
C      0.86147  0.91933  0.52773     C
N      0.86272  0.23912   0.7583     N
H        0.864   0.3297     0.07     H
C      0.86488  0.12471  0.96457     C
H      0.86603  0.53977  0.99217     H
N      0.86637   0.2018  0.48837     N
H      0.86763  0.53067  0.59667     H
H      0.86843  0.14697  0.24077     H
N      0.86846  0.66876  0.84497     N
H       0.8731   0.3404   0.6745     H
C      0.87529  0.74018  0.96457     C
C      0.87636  0.75407  0.22957     C
C       0.8777  0.12364  0.22957     C
C      0.87817  0.10685  0.09447     C
C       0.8794    0.319   0.7265     C
C       0.8806  0.38517   0.2091     C
H      0.88067  0.91673  0.80713     H
H      0.88143  0.76957  0.44207     H
H      0.88323  0.26337  0.20167     H
C       0.8835   0.4428   0.6835     C
C       0.8838  0.36255   0.0919     C
C      0.88396  0.70163  0.95407     C
C      0.88521  0.60458  0.78727     C
C      0.88633  0.24797  0.28417     C
H      0.88813  0.11857  0.44207     H
C      0.88954  0.64188  0.87097     C
H      0.89033  0.03207  0.51547     H
C      0.89053  0.10737  0.35017     C
N      0.89204  0.16778  0.73617     N
C      0.89263  0.78317  0.35017     C
C      0.89293  0.07377  0.08187     C
C      0.89315  0.77133  0.09447     C
H      0.89363  0.06117  0.99067     H
C      0.89373  0.54607  0.94017     C
C       0.8944   0.2551   0.8658     C
H      0.89477  0.94063  0.55433     H
C      0.89534  0.45516   0.4278     C
H       0.8971   0.4452   0.7754     H
C      0.89882  0.14993  0.86267     C
H      0.89947  0.66633  0.41693     H
H       0.8998   0.2328   0.9164     H
H      0.90573  0.49987  0.04897     H
N      0.90579  0.70973  0.57503     N
C      0.90643  0.07607  0.33957     C
C      0.90673  0.05887  0.20337     C
C      0.90995  0.57854  0.83137     C
C      0.91187  0.33525   0.8353     C
C       0.9126  0.45563   0.5629     C
C      0.91433  0.22288  0.46237     C
C      0.91463  0.69497  0.04917     C
H      0.91603  0.85147  0.54137     H
H      0.91673  0.03607  0.19287     H
C      0.91763  0.65797  0.00037     C
C      0.91777  0.43451    0.196     C
C      0.91793  0.52259  0.97357     C
C      0.91933  0.05787  0.47227     C
C       0.9196  0.30215   0.9061     C
C      0.92177  0.69403  0.46753     C
C       0.9223  0.39691   0.0066     C
C      0.92393  0.83037  0.33957     C
C      0.92623  0.81917  0.08187     C
C      0.92633  0.25097  0.33297     C
C      0.92649  0.46845   0.2979     C
H      0.92747  0.76093  0.71563     H
H      0.93003  0.71347  0.13167     H
H      0.93503  0.64467  0.04267     H
H      0.93543  0.08397  0.54137     H
C      0.93642  0.19206  0.67327     C
C      0.93791  0.38603   0.8794     C
C      0.93799  0.74873  0.64023     C
H      0.93883  0.83247  0.99067     H
H      0.94063  0.04587  0.44567     H
C      0.94113  0.84787  0.20337     C
H       0.9421   0.3119    0.982     H
C      0.94213  0.86147  0.47227     C
N       0.9424  0.44129   0.0695     N
H       0.9452   0.4649   0.5741     H
C       0.9473  0.21855  0.54607     C
C      0.94816   0.1621  0.87577     C
C      0.95078  0.58627  0.76057     C
H       0.9532   0.5499    0.465     H
H      0.95413  0.89477  0.44567     H
N      0.95693  0.52939  0.90837     N
H      0.95703  0.26837  0.29067     H
H      0.96193  0.15357  0.95177     H
H      0.96353  0.60877  0.68467     H
H      0.96393  0.88067  0.19287     H
C      0.96504  0.51567   0.2874     C
H      0.96793  0.85827  0.51547     H
C      0.96882  0.71588  0.42723     C
C      0.97078  0.18792  0.75857     C
C       0.9717    0.553   0.3825     C
C      0.97263  0.56107  0.80087     C
C      0.97521    0.419   0.7957     C
H        0.978   0.3763    0.624     H
H      0.97857  0.70313  0.35133     H
C      0.98567  0.77293  0.60683     C
C       0.9913    0.407   0.6663     C
H      0.99293  0.19937  0.34117     H
H      0.99637  0.79903  0.26333     H
N      0.99791  0.53304   0.1783     N
C      0.99808  0.24329  0.50197     C
H      0.99967  0.43353  0.24973     H
