data_I
_chemical_name_common  '/home/zhangsd/repos/MofS-CGCNN/ML/data/TSD/clean_cifs/KUHNEI_clean'
_cell_length_a 13.66900
_cell_length_b 15.92500
_cell_length_c 14.63300
_cell_angle_alpha 90.00000
_cell_angle_beta  90.00000
_cell_angle_gamma 90.00000
_space_group_name_H-M_alt      'P 1'


loop_
_space_group_symop_operation_xyz
  'x, y, z' 

loop_
_atom_site_label
_atom_site_fract_x
_atom_site_fract_y
_atom_site_fract_z
_atom_site_type_symbol
O       0.0383   0.4071   0.3673     O
O       0.0383   0.5929   0.8673     O
O       0.0572   0.4455   0.5532     O
O       0.0572   0.5545   0.0532     O
Co       0.064  0.41669  0.03015    Co
Co       0.064  0.58331  0.53015    Co
C        0.123   0.3773   0.3685     C
C        0.123   0.6227   0.8685     C
C       0.1258   0.3965   0.5786     C
C       0.1258   0.6035   0.0786     C
C       0.1457   0.3148   0.5292     C
C       0.1457   0.6852   0.0292     C
C       0.1489   0.3075   0.4344     C
C       0.1489   0.6925   0.9344     C
H       0.1686   0.2502   0.6461     H
H       0.1686   0.7498   0.1461     H
O       0.1702   0.4466   0.9354     O
O       0.1702   0.5534   0.4354     O
C       0.1727    0.246   0.5828     C
C       0.1727    0.754   0.0828     C
O       0.1733   0.4093    0.125     O
O       0.1733   0.5907    0.625     O
O       0.1735   0.0667   0.6576     O
O       0.1735   0.9333   0.1576     O
C       0.1821   0.2328   0.3958     C
C       0.1821   0.7672   0.8958     C
O       0.1831   0.4111   0.6424     O
O       0.1831   0.5889   0.1424     O
H       0.1837   0.2281   0.3325     H
H       0.1837   0.7719   0.8325     H
O        0.191   0.3984   0.3166     O
O        0.191   0.6016   0.8166     O
C       0.2056   0.1716   0.5442     C
C       0.2056   0.8284   0.0442     C
Co     0.20609   0.4971  0.23316    Co
Co     0.20609   0.5029  0.73316    Co
C        0.213   0.1651   0.4485     C
C        0.213   0.8349   0.9485     C
O       0.2271   0.0758   0.3208     O
O       0.2271   0.9242   0.8208     O
C       0.2356   0.1046   0.6112     C
C       0.2356   0.8954   0.1112     C
C       0.2401   0.4078   0.8996     C
C       0.2401   0.5922   0.3996     C
C       0.2599   0.0922   0.3996     C
C       0.2599   0.9078   0.8996     C
C       0.2644   0.3954   0.1112     C
C       0.2644   0.6046   0.6112     C
O       0.2729   0.4242   0.8208     O
O       0.2729   0.5758   0.3208     O
C        0.287   0.3349   0.9485     C
C        0.287   0.6651   0.4485     C
Co     0.29391   0.0029  0.73316    Co
Co     0.29391   0.9971  0.23316    Co
C       0.2944   0.3284   0.0442     C
C       0.2944   0.6716   0.5442     C
O        0.309   0.1016   0.8166     O
O        0.309   0.8984   0.3166     O
H       0.3163   0.2719   0.8325     H
H       0.3163   0.7281   0.3325     H
O       0.3169   0.0889   0.1424     O
O       0.3169   0.9111   0.6424     O
C       0.3179   0.2672   0.8958     C
C       0.3179   0.7328   0.3958     C
O       0.3265   0.4333   0.1576     O
O       0.3265   0.5667   0.6576     O
O       0.3267   0.0907    0.625     O
O       0.3267   0.9093    0.125     O
C       0.3273    0.254   0.0828     C
C       0.3273    0.746   0.5828     C
O       0.3298   0.0534   0.4354     O
O       0.3298   0.9466   0.9354     O
H       0.3314   0.2498   0.1461     H
H       0.3314   0.7502   0.6461     H
C       0.3511   0.1925   0.9344     C
C       0.3511   0.8075   0.4344     C
C       0.3543   0.1852   0.0292     C
C       0.3543   0.8148   0.5292     C
C       0.3742   0.1035   0.0786     C
C       0.3742   0.8965   0.5786     C
C        0.377   0.1227   0.8685     C
C        0.377   0.8773   0.3685     C
Co       0.436  0.08331  0.53015    Co
Co       0.436  0.91669  0.03015    Co
O       0.4428   0.0545   0.0532     O
O       0.4428   0.9455   0.5532     O
O       0.4617   0.0929   0.8673     O
O       0.4617   0.9071   0.3673     O
O       0.5383   0.0929   0.6327     O
O       0.5383   0.9071   0.1327     O
O       0.5572   0.0545   0.4468     O
O       0.5572   0.9455   0.9468     O
Co       0.564  0.08331  0.96985    Co
Co       0.564  0.91669  0.46985    Co
C        0.623   0.1227   0.6315     C
C        0.623   0.8773   0.1315     C
C       0.6258   0.1035   0.4214     C
C       0.6258   0.8965   0.9214     C
C       0.6457   0.1852   0.4708     C
C       0.6457   0.8148   0.9708     C
C       0.6489   0.1925   0.5656     C
C       0.6489   0.8075   0.0656     C
H       0.6686   0.2498   0.3539     H
H       0.6686   0.7502   0.8539     H
O       0.6702   0.0534   0.0646     O
O       0.6702   0.9466   0.5646     O
C       0.6727    0.254   0.4172     C
C       0.6727    0.746   0.9172     C
O       0.6733   0.0907    0.875     O
O       0.6733   0.9093    0.375     O
O       0.6735   0.4333   0.3424     O
O       0.6735   0.5667   0.8424     O
C       0.6821   0.2672   0.6042     C
C       0.6821   0.7328   0.1042     C
O       0.6831   0.0889   0.3576     O
O       0.6831   0.9111   0.8576     O
H       0.6837   0.2719   0.6675     H
H       0.6837   0.7281   0.1675     H
O        0.691   0.1016   0.6834     O
O        0.691   0.8984   0.1834     O
C       0.7056   0.3284   0.4558     C
C       0.7056   0.6716   0.9558     C
Co     0.70609   0.0029  0.76684    Co
Co     0.70609   0.9971  0.26684    Co
C        0.713   0.3349   0.5515     C
C        0.713   0.6651   0.0515     C
O       0.7271   0.4242   0.6792     O
O       0.7271   0.5758   0.1792     O
C       0.7356   0.3954   0.3888     C
C       0.7356   0.6046   0.8888     C
C       0.7401   0.0922   0.1004     C
C       0.7401   0.9078   0.6004     C
C       0.7599   0.4078   0.6004     C
C       0.7599   0.5922   0.1004     C
C       0.7644   0.1046   0.8888     C
C       0.7644   0.8954   0.3888     C
O       0.7729   0.0758   0.1792     O
O       0.7729   0.9242   0.6792     O
C        0.787   0.1651   0.0515     C
C        0.787   0.8349   0.5515     C
Co     0.79391   0.4971  0.26684    Co
Co     0.79391   0.5029  0.76684    Co
C       0.7944   0.1716   0.9558     C
C       0.7944   0.8284   0.4558     C
O        0.809   0.3984   0.1834     O
O        0.809   0.6016   0.6834     O
H       0.8163   0.2281   0.1675     H
H       0.8163   0.7719   0.6675     H
O       0.8169   0.4111   0.8576     O
O       0.8169   0.5889   0.3576     O
C       0.8179   0.2328   0.1042     C
C       0.8179   0.7672   0.6042     C
O       0.8265   0.0667   0.8424     O
O       0.8265   0.9333   0.3424     O
O       0.8267   0.4093    0.375     O
O       0.8267   0.5907    0.875     O
C       0.8273    0.246   0.9172     C
C       0.8273    0.754   0.4172     C
O       0.8298   0.4466   0.5646     O
O       0.8298   0.5534   0.0646     O
H       0.8314   0.2502   0.8539     H
H       0.8314   0.7498   0.3539     H
C       0.8511   0.3075   0.0656     C
C       0.8511   0.6925   0.5656     C
C       0.8543   0.3148   0.9708     C
C       0.8543   0.6852   0.4708     C
C       0.8742   0.3965   0.9214     C
C       0.8742   0.6035   0.4214     C
C        0.877   0.3773   0.1315     C
C        0.877   0.6227   0.6315     C
Co       0.936  0.41669  0.46985    Co
Co       0.936  0.58331  0.96985    Co
O       0.9428   0.4455   0.9468     O
O       0.9428   0.5545   0.4468     O
O       0.9617   0.4071   0.1327     O
O       0.9617   0.5929   0.6327     O
