data_I
_chemical_name_common  '/home/zhangsd/repos/MofS-CGCNN/ML/data/TSD/clean_cifs/LABGAY_clean'
_cell_length_a 11.02100
_cell_length_b 18.56100
_cell_length_c 20.57100
_cell_angle_alpha 90.00000
_cell_angle_beta  90.00000
_cell_angle_gamma 105.82200
_space_group_name_H-M_alt      'P 1'


loop_
_space_group_symop_operation_xyz
  'x, y, z' 

loop_
_atom_site_label
_atom_site_fract_x
_atom_site_fract_y
_atom_site_fract_z
_atom_site_type_symbol
N       0.0016    0.429    0.197     N
N       0.0016    0.929    0.303     N
N       0.0053   0.0445   0.8002     N
N       0.0053   0.5445   0.6998     N
H       0.0075   0.0364   0.8957     H
H       0.0075   0.5364   0.6043     H
H       0.0101   0.2209   0.4939     H
H       0.0101   0.7209   0.0061     H
C       0.0116   0.4979   0.3593     C
C       0.0116   0.9979   0.1407     C
C       0.0295   0.4787   0.2386     C
C       0.0295   0.9787   0.2614     C
H        0.038   0.1119   0.0623     H
H        0.038   0.6119   0.4377     H
Zn      0.0454  0.42202  0.10399    Zn
Zn      0.0454  0.92202  0.39601    Zn
H       0.0475   0.4109   0.6703     H
H       0.0475   0.9109   0.8297     H
Zn     0.04949  0.16619  0.35227    Zn
Zn     0.04949  0.66619  0.14773    Zn
C       0.0514   0.4101   0.5695     C
C       0.0514   0.9101   0.9305     C
C       0.0561   0.1378   0.7315     C
C       0.0561   0.6378   0.7685     C
C       0.0594   0.1198   0.7948     C
C       0.0594   0.6198   0.7052     C
C       0.0635   0.2597   0.4705     C
C       0.0635   0.7597   0.0295     C
O       0.0685   0.2389   0.2351     O
O       0.0685   0.7389   0.2649     O
C       0.0704   0.4483   0.6362     C
C       0.0704   0.9483   0.8638     C
H       0.0712   0.0281   0.2714     H
H       0.0712   0.5281   0.2286     H
H       0.0743     0.31   0.5909     H
H       0.0743     0.81   0.9091     H
O       0.0805   0.0762  0.39568     O
O       0.0805   0.5762  0.10432     O
H        0.082   0.4475   0.5361     H
H        0.082   0.9475   0.9639     H
H       0.0862   0.1854   0.7136     H
H       0.0862   0.6854   0.7864     H
H       0.0924   0.1525   0.8286     H
H       0.0924   0.6525   0.6714     H
N       0.0938   0.2553   0.4094     N
N       0.0938   0.7553   0.0906     N
O       0.0962   0.0931  0.54262     O
O       0.0962   0.5931  0.95738     O
H       0.0994   0.0263   0.1372     H
H       0.0994   0.5263   0.3628     H
O       0.1068   0.3319   0.0943     O
O       0.1068   0.8319   0.4057     O
C       0.1167   0.3526   0.5642     C
C       0.1167   0.8526   0.9358     C
N       0.1201   0.3277   0.4949     N
N       0.1201   0.8277   0.0051     N
N       0.1365   0.3783   0.8509     N
N       0.1365   0.8783   0.6491     N
C       0.1509   0.2086   0.2348     C
C       0.1509   0.7086   0.2652     C
H       0.1561    0.454   0.9226     H
H       0.1561    0.954   0.5774     H
H       0.1584   0.4755   0.6419     H
H       0.1584   0.9755   0.8581     H
O       0.1613    0.167   0.2793     O
O       0.1613    0.667   0.2207     O
C       0.1739   0.0667   0.4257     C
C       0.1739   0.5667   0.0743     C
C        0.174   0.3241   0.3935     C
C        0.174   0.8241   0.1065     C
O       0.1844   0.0022  0.43693     O
O       0.1844   0.5022  0.06307     O
C       0.1881   0.3694   0.4461     C
C       0.1881   0.8694   0.0539     C
F       0.1899   0.1116   0.9648     F
F       0.1899   0.6116   0.5352     F
C       0.1908    0.146    0.555     C
C       0.1908    0.646    0.945     C
C       0.1955   0.4316   0.8917     C
C       0.1955   0.9316   0.6083     C
O       0.1973   0.1879   0.6024     O
O       0.1973   0.6879   0.8976     O
C       0.1995     0.33   0.1301     C
C       0.1995     0.83   0.3699     C
H       0.2022   0.3717   0.5803     H
H       0.2022   0.8717   0.9197     H
H       0.2122   0.3371   0.3532     H
H       0.2122   0.8371   0.1468     H
H       0.2141   0.3243   0.7821     H
H       0.2141   0.8243   0.7179     H
C       0.2282   0.3604   0.8146     C
C       0.2282   0.8604   0.6854     C
C       0.2293    0.207    0.174     C
C       0.2293    0.707    0.326     C
H        0.235   0.4193   0.4484     H
H        0.235   0.9193   0.0516     H
C       0.2424     0.26   0.1246     C
C       0.2424     0.76   0.3754     C
F       0.2527   0.2249  0.93114     F
F       0.2527   0.7249  0.56886     F
O       0.2568   0.3802   0.1643     O
O       0.2568   0.8802   0.3357     O
H       0.2754   0.1133   0.1994     H
H       0.2754   0.6133   0.3006     H
C       0.2802   0.1471   0.1654     C
C       0.2802   0.6471   0.3346     C
C       0.2804   0.1321   0.4445     C
C       0.2804   0.6321   0.0555     C
C       0.2899   0.1642   0.9416     C
C       0.2899   0.6642   0.5584     C
C       0.2924   0.1661   0.5048     C
C       0.2924   0.6661   0.9952     C
C       0.3038   0.2495   0.0677     C
C       0.3038   0.7495   0.4323     C
H       0.3153   0.2856   0.0352     H
H       0.3153   0.7856   0.4648     H
F       0.3158   0.1389  0.88339     F
F       0.3158   0.6389  0.61661     F
N       0.3207   0.4485   0.8819     N
N       0.3207   0.9485   0.6181     N
C       0.3376    0.136   0.1084     C
C       0.3376    0.636   0.3916     C
C       0.3411   0.4031   0.8332     C
C       0.3411   0.9031   0.6668     C
C       0.3485   0.1875   0.0576     C
C       0.3485   0.6875   0.4424     C
H       0.3639   0.1388   0.3562     H
H       0.3639   0.6388   0.1438     H
F       0.3676   0.0441   0.9932     F
F       0.3676   0.5441   0.5068     F
H        0.369   0.0946   0.1037     H
H        0.369   0.5946   0.3963     H
C       0.3718   0.1606   0.3972     C
C       0.3718   0.6606   0.1028     C
H       0.3738   0.4541   0.0082     H
H       0.3738   0.9541   0.4918     H
H        0.387    0.047   0.5714     H
H        0.387    0.547   0.9286     H
C       0.3984   0.2254   0.5178     C
C       0.3984   0.7254   0.9822     C
C       0.4013   0.1776   0.9897     C
C       0.4013   0.6776   0.5103     C
H        0.408   0.2467    0.559     H
H        0.408   0.7467    0.941     H
C       0.4175   0.0038   0.5811     C
C       0.4175   0.5038   0.9189     C
H       0.4189   0.4021   0.8162     H
H       0.4189   0.9021   0.6838     H
C       0.4489   0.4704   0.9816     C
C       0.4489   0.9704   0.5184     C
C       0.4574   0.1091    0.987     C
C       0.4574   0.6091    0.513     C
F       0.4581   0.3887   0.5313     F
F       0.4581   0.8887   0.9687     F
H       0.4675   0.2606   0.8784     H
H       0.4675   0.7606   0.6216     H
C       0.4734   0.2206   0.4107     C
C       0.4734   0.7206   0.0893     C
H       0.4792   0.4271   0.9721     H
H       0.4792   0.9271   0.5279     H
F        0.489    0.395   0.4288     F
F        0.489    0.895   0.0712     F
C       0.4892   0.2532   0.4714     C
C       0.4892   0.7532   0.0286     C
H       0.4931   0.0207   0.6073     H
H       0.4931   0.5207   0.8927     H
H       0.5069   0.4793   0.1073     H
H       0.5069   0.9793   0.3927     H
C       0.5108   0.2468   0.9714     C
C       0.5108   0.7468   0.5286     C
F        0.511    0.105   0.9288     F
F        0.511    0.605   0.5712     F
H       0.5208   0.0729   0.4721     H
H       0.5208   0.5729   0.0279     H
C       0.5266   0.2794   0.9107     C
C       0.5266   0.7794   0.5893     C
H       0.5325   0.2394   0.3784     H
H       0.5325   0.7394   0.1216     H
F       0.5419   0.1113   0.0313     F
F       0.5419   0.6113   0.4687     F
C       0.5426   0.3909    0.487     C
C       0.5426   0.8909    0.013     C
C       0.5511   0.0296   0.4816     C
C       0.5511   0.5296   0.0184     C
H       0.5811   0.0979   0.3162     H
H       0.5811   0.5979   0.1838     H
C       0.5825   0.4962   0.0811     C
C       0.5825   0.9962   0.4189     C
H        0.592   0.2533    0.059     H
H        0.592   0.7533    0.441     H
C       0.5987   0.3224   0.4897     C
C       0.5987   0.8224   0.0103     C
C       0.6016   0.2746   0.0178     C
C       0.6016   0.7746   0.4822     C
H        0.613    0.453   0.0714     H
H        0.613    0.953   0.4286     H
H       0.6262   0.0459   0.5082     H
H       0.6262   0.5459   0.9918     H
C       0.6282   0.3394   0.8972     C
C       0.6282   0.8394   0.6028     C
H        0.631   0.4054   0.6037     H
H        0.631   0.9054   0.8963     H
F       0.6324   0.4559   0.4932     F
F       0.6324   0.9559   0.0068     F
H       0.6361   0.3612   0.8562     H
H       0.6361   0.8612   0.6438     H
C       0.6515   0.3125   0.5576     C
C       0.6515   0.8125   0.9424     C
C       0.6589   0.0969   0.3332     C
C       0.6589   0.5969   0.1668     C
C       0.6624    0.364   0.6084     C
C       0.6624    0.864   0.8916     C
N       0.6793   0.0515   0.3819     N
N       0.6793   0.5515   0.1181     N
F       0.6842   0.3611  0.38339     F
F       0.6842   0.8611  0.11661     F
H       0.6847   0.2144   0.5352     H
H       0.6847   0.7144   0.9648     H
C       0.6962   0.2505   0.5677     C
C       0.6962   0.7505   0.9323     C
C       0.7076   0.3339   0.0048     C
C       0.7076   0.8339   0.4952     C
C       0.7101   0.3358   0.4416     C
C       0.7101   0.8358   0.0584     C
C       0.7196   0.3679   0.9445     C
C       0.7196   0.8679   0.5555     C
C       0.7198   0.3529   0.6654     C
C       0.7198   0.8529   0.8346     C
H       0.7246   0.3867   0.6994     H
H       0.7246   0.8867   0.8006     H
O       0.7432   0.1198   0.6643     O
O       0.7432   0.6198   0.8357     O
F       0.7473   0.2751  0.43114     F
F       0.7473   0.7751  0.06886     F
C       0.7576     0.24   0.6246     C
C       0.7576     0.74   0.8754     C
H        0.765   0.0807   0.9484     H
H        0.765   0.5807   0.5516     H
C       0.7707    0.293    0.674     C
C       0.7707    0.793    0.826     C
C       0.7718   0.1396   0.3146     C
C       0.7718   0.6396   0.1854     C
H       0.7859   0.1757   0.2821     H
H       0.7859   0.6757   0.2179     H
H       0.7878   0.1629   0.8532     H
H       0.7878   0.6629   0.6468     H
H       0.7978   0.1283   0.0803     H
H       0.7978   0.6283   0.4197     H
C       0.8005     0.17   0.6301     C
C       0.8005     0.67   0.8699     C
O       0.8027   0.3121   0.1024     O
O       0.8027   0.8121   0.3976     O
C       0.8045   0.0684   0.3917     C
C       0.8045   0.5684   0.1083     C
C       0.8092    0.354    0.055     C
C       0.8092    0.854    0.445     C
F       0.8101   0.3884   0.4648     F
F       0.8101   0.8884   0.0352     F
C       0.8119   0.1306   0.9461     C
C       0.8119   0.6306   0.5539     C
O       0.8156   0.4978  0.93693     O
O       0.8156   0.9978  0.56307     O
C        0.826   0.1759   0.8935     C
C        0.826   0.6759   0.6065     C
C       0.8261   0.4333   0.9257     C
C       0.8261   0.9333   0.5743     C
O       0.8387    0.333   0.7793     O
O       0.8387    0.833   0.7207     O
H       0.8416   0.0245   0.1419     H
H       0.8416   0.5245   0.3581     H
H       0.8439    0.046   0.4226     H
H       0.8439    0.546   0.0774     H
C       0.8491   0.2914   0.7348     C
C       0.8491   0.7914   0.7652     C
N       0.8635   0.1217   0.3509     N
N       0.8635   0.6217   0.1491     N
N       0.8799   0.1723   0.9949     N
N       0.8799   0.6723   0.5051     N
C       0.8833   0.1474   0.0642     C
C       0.8833   0.6474   0.4358     C
O       0.8932   0.1681   0.5943     O
O       0.8932   0.6681   0.9057     O
H       0.9006   0.4737   0.6372     H
H       0.9006   0.9737   0.8628     H
O       0.9038   0.4069  0.04262     O
O       0.9038   0.9069  0.45738     O
N       0.9062   0.2447   0.9094     N
N       0.9062   0.7447   0.5906     N
H       0.9076   0.3475   0.3286     H
H       0.9076   0.8475   0.1714     H
H       0.9138   0.3146   0.2136     H
H       0.9138   0.8146   0.2864     H
H        0.918   0.0525   0.0361     H
H        0.918   0.5525   0.4639     H
O       0.9195   0.4238  0.89568     O
O       0.9195   0.9238  0.60432     O
H       0.9257     0.19   0.0909     H
H       0.9257     0.69   0.4091     H
H       0.9288   0.4719   0.7714     H
H       0.9288   0.9719   0.7286     H
C       0.9296   0.0517   0.1362     C
C       0.9296   0.5517   0.3638     C
O       0.9315   0.2611   0.7351     O
O       0.9315   0.7611   0.7649     O
C       0.9365   0.2403   0.9705     C
C       0.9365   0.7403   0.5295     C
C       0.9406   0.3802   0.2948     C
C       0.9406   0.8802   0.2052     C
C       0.9439   0.3622   0.2315     C
C       0.9439   0.8622   0.2685     C
C       0.9486   0.0899   0.0695     C
C       0.9486   0.5899   0.4305     C
Zn     0.95051  0.33381  0.85227    Zn
Zn     0.95051  0.83381  0.64773    Zn
H       0.9525   0.0891   0.1703     H
H       0.9525   0.5891   0.3297     H
Zn      0.9546  0.07798  0.60399    Zn
Zn      0.9546  0.57798  0.89601    Zn
H        0.962   0.3881   0.5623     H
H        0.962   0.8881   0.9377     H
C       0.9705   0.0213   0.7386     C
C       0.9705   0.5213   0.7614     C
C       0.9884   0.0021   0.8593     C
C       0.9884   0.5021   0.6407     C
H       0.9899   0.2791   0.9939     H
H       0.9899   0.7791   0.5061     H
H       0.9925   0.4636   0.3957     H
H       0.9925   0.9636   0.1043     H
N       0.9947   0.4555   0.3002     N
N       0.9947   0.9555   0.1998     N
N       0.9984    0.071    0.697     N
N       0.9984    0.571    0.803     N
