data_I
_chemical_name_common  '/home/zhangsd/repos/MofS-CGCNN/ML/data/TSD/clean_cifs/LABPUB_clean'
_cell_length_a  7.09000
_cell_length_b 20.91000
_cell_length_c 27.82300
_cell_angle_alpha 107.61100
_cell_angle_beta  90.00000
_cell_angle_gamma 90.00000
_space_group_name_H-M_alt      'P 1'


loop_
_space_group_symop_operation_xyz
  'x, y, z' 

loop_
_atom_site_label
_atom_site_fract_x
_atom_site_fract_y
_atom_site_fract_z
_atom_site_type_symbol
H       0.0086   0.2342   0.6182     H
H        0.017   0.6196   0.6881     H
C       0.0183   0.0571  0.12721     C
H       0.0198   0.3034   0.1253     H
H         0.02   0.6804   0.9529     H
H       0.0293    0.535   0.6113     H
P      0.04063  0.08221  0.72728     P
H       0.0427   0.6579   0.6197     H
H       0.0456   0.7499   0.7769     H
H       0.0463   0.2515   0.5404     H
H       0.0463   0.7912    0.046     H
O       0.0466   0.7454  0.80518     O
H       0.0515    0.163    0.095     H
H        0.055    0.903   0.8567     H
O       0.0606   0.0985  0.86995     O
H        0.068   0.9806   0.8826     H
C       0.0684   0.7387   0.4428     C
O       0.0721  0.97982  0.29831     O
O       0.0728  0.20699  0.35547     O
O       0.0729   0.3552  0.77702     O
H       0.0739   0.7939   0.5496     H
C        0.074   0.3359   0.3613     C
H       0.0743   0.6809   0.5162     H
C         0.08   0.4656   0.6732     C
C       0.0806   0.4265   0.7053     C
O       0.0812  0.75891  0.71516     O
C       0.0819    0.623   0.2341     C
N       0.0827   0.3862  0.33277     N
C       0.0827   0.4574   0.3676     C
C       0.0846    0.585   0.2718     C
C       0.0861   0.5064   0.3369     C
P      0.08636  0.24953  0.32049     P
Sm     0.08665  0.74695  0.20675    Sm
O       0.0873  0.85711  0.25612     O
C       0.0906   0.7488   0.3961     C
C        0.094   0.7076   0.8918     C
C       0.1069   0.1264   0.0716     C
C         0.11   0.0653  0.08054     C
H       0.1166   0.0969   0.6498     H
C       0.1182   0.6981   0.9387     C
O       0.1191  0.80615  0.14913     O
P      0.12247  0.86332  0.12631     P
O       0.1251   0.0368  0.40765     O
Sm     0.12723  0.08965  0.33851    Sm
O       0.1303   0.1468  0.44059     O
H       0.1336   0.5067   0.8264     H
H       0.1362   0.5715   0.7726     H
O       0.1411   0.7527  0.29697     O
H       0.1501   0.0125   0.1767     H
C       0.1552   0.0878   0.4434     C
N       0.1571   0.0458  0.16469     N
C       0.1577   0.8174  0.05951     C
H       0.1605   0.7652   0.5855     H
O       0.1707   0.0714  0.76684     O
N        0.177   0.7724  0.55555     N
H       0.1777    0.344   0.3851     H
H       0.1804   0.8486   0.0405     H
H       0.1818   0.9818   0.4768     H
H       0.1839   0.1761   0.0221     H
C       0.1862   0.1343   0.0275     C
H        0.188   0.3793   0.3138     H
C       0.1889   0.7061   0.5159     C
C       0.1914   0.0979   0.6792     C
H       0.1918   0.4731   0.6582     H
H       0.1923   0.4645   0.3895     H
C        0.193   0.0112   0.0449     C
H       0.1931   0.4077   0.7117     H
H       0.1987   0.9697   0.0506     H
H       0.2061   0.6808   0.0232     H
O       0.2076  0.90931   0.6417     O
C       0.2155   0.7143   0.4643     C
C       0.2219   0.7451   0.8206     C
O       0.2317    0.241  0.79134     O
C       0.2328   0.0188   0.5009     C
C       0.2331   0.0806  0.49219     C
O       0.2339   0.6369  0.21645     O
C       0.2405   0.7335    0.871     C
C       0.2475   0.5222   0.8177     C
H        0.248   0.1421    0.692     H
C       0.2495   0.5612   0.7854     C
C       0.2505   0.5612   0.2854     C
H        0.252   0.1421    0.192     H
C       0.2525   0.5222   0.3177     C
C       0.2595   0.7335    0.371     C
O       0.2661   0.6369  0.71645     O
C       0.2669   0.0806  0.99219     C
C       0.2672   0.0188   0.0009     C
O       0.2683    0.241  0.29134     O
C       0.2781   0.7451   0.3206     C
C       0.2845   0.7143   0.9643     C
O       0.2924  0.90931   0.1417     O
H       0.2939   0.6808   0.5232     H
H       0.3013   0.9697   0.5506     H
H       0.3069   0.4077   0.2117     H
C        0.307   0.0112   0.5449     C
H       0.3077   0.4645   0.8895     H
H       0.3082   0.4731   0.1582     H
C       0.3086   0.0979   0.1792     C
C       0.3111   0.7061   0.0159     C
H        0.312   0.3793   0.8138     H
C       0.3138   0.1343   0.5275     C
H       0.3161   0.1761   0.5221     H
H       0.3182   0.9818   0.9768     H
H       0.3196   0.8486   0.5405     H
H       0.3223    0.344   0.8851     H
N        0.323   0.7724  0.05555     N
O       0.3293   0.0714  0.26684     O
H       0.3395   0.7652   0.0855     H
C       0.3423   0.8174  0.55951     C
N       0.3429   0.0458  0.66469     N
C       0.3448   0.0878   0.9434     C
H       0.3499   0.0125   0.6767     H
O       0.3589   0.7527  0.79697     O
H       0.3638   0.5715   0.2726     H
H       0.3664   0.5067   0.3264     H
O       0.3697   0.1468  0.94059     O
Sm     0.37277  0.08965  0.83851    Sm
O       0.3749   0.0368  0.90765     O
P      0.37753  0.86332  0.62631     P
O       0.3809  0.80615  0.64913     O
C       0.3818   0.6981   0.4387     C
H       0.3834   0.0969   0.1498     H
C         0.39   0.0653  0.58054     C
C       0.3931   0.1264   0.5716     C
C        0.406   0.7076   0.3918     C
C       0.4094   0.7488   0.8961     C
O       0.4127  0.85711  0.75612     O
Sm     0.41335  0.74695  0.70675    Sm
P      0.41364  0.24953  0.82049     P
C       0.4139   0.5064   0.8369     C
C       0.4154    0.585   0.7718     C
N       0.4173   0.3862  0.83277     N
C       0.4173   0.4574   0.8676     C
C       0.4181    0.623   0.7341     C
O       0.4188  0.75891  0.21516     O
C       0.4194   0.4265   0.2053     C
C         0.42   0.4656   0.1732     C
H       0.4257   0.6809   0.0162     H
C        0.426   0.3359   0.8613     C
H       0.4261   0.7939   0.0496     H
O       0.4271   0.3552  0.27702     O
O       0.4272  0.20699  0.85547     O
O       0.4279  0.97982  0.79831     O
C       0.4316   0.7387   0.9428     C
H        0.432   0.9806   0.3826     H
O       0.4394   0.0985  0.36995     O
H        0.445    0.903   0.3567     H
H       0.4485    0.163    0.595     H
O       0.4534   0.7454  0.30518     O
H       0.4537   0.2515   0.0404     H
H       0.4537   0.7912    0.546     H
H       0.4544   0.7499   0.2769     H
H       0.4573   0.6579   0.1197     H
P      0.45937  0.08221  0.22728     P
H       0.4707    0.535   0.1113     H
H         0.48   0.6804   0.4529     H
H       0.4802   0.3034   0.6253     H
C       0.4817   0.0571  0.62721     C
H        0.483   0.6196   0.1881     H
H       0.4914   0.2342   0.1182     H
H       0.5086   0.7658   0.8818     H
H        0.517   0.3804   0.8119     H
C       0.5183   0.9429  0.37279     C
H       0.5198   0.6966   0.3747     H
H         0.52   0.3196   0.5471     H
H       0.5293    0.465   0.8887     H
P      0.54063  0.91779  0.77272     P
H       0.5427   0.3421   0.8803     H
H       0.5456   0.2501   0.7231     H
H       0.5463   0.2088    0.454     H
H       0.5463   0.7485   0.9596     H
O       0.5466   0.2546  0.69482     O
H       0.5515    0.837    0.405     H
H        0.555    0.097   0.6433     H
O       0.5606   0.9015  0.63005     O
H        0.568   0.0194   0.6174     H
C       0.5684   0.2613   0.0572     C
O       0.5721  0.02018  0.20169     O
O       0.5728  0.79301  0.14453     O
O       0.5729   0.6448  0.72298     O
H       0.5739   0.2061   0.9504     H
C        0.574   0.6641   0.1387     C
H       0.5743   0.3191   0.9838     H
C         0.58   0.5344   0.8268     C
C       0.5806   0.5735   0.7947     C
O       0.5812  0.24109  0.78484     O
C       0.5819    0.377   0.2659     C
C       0.5827   0.5426   0.1324     C
N       0.5827   0.6138  0.16723     N
C       0.5846    0.415   0.2282     C
C       0.5861   0.4936   0.1631     C
P      0.58636  0.75047  0.17951     P
Sm     0.58665  0.25305  0.29325    Sm
O       0.5873  0.14289  0.24388     O
C       0.5906   0.2512   0.1039     C
C        0.594   0.2924   0.6082     C
C       0.6069   0.8736   0.4284     C
C         0.61   0.9347  0.41946     C
H       0.6166   0.9031   0.8502     H
C       0.6182   0.3019   0.5613     C
O       0.6191  0.19385  0.35087     O
P      0.62247  0.13668  0.37369     P
O       0.6251   0.9632  0.09235     O
Sm     0.62723  0.91035  0.16149    Sm
O       0.6303   0.8532  0.05941     O
H       0.6336   0.4933   0.6736     H
H       0.6362   0.4285   0.7274     H
O       0.6411   0.2473  0.20303     O
H       0.6501   0.9875   0.3233     H
C       0.6552   0.9122   0.0566     C
N       0.6571   0.9542  0.33531     N
C       0.6577   0.1826  0.44049     C
H       0.6605   0.2348   0.9145     H
O       0.6707   0.9286  0.73316     O
N        0.677   0.2276  0.94445     N
H       0.6777    0.656   0.1149     H
H       0.6804   0.1514   0.4595     H
H       0.6818   0.0182   0.0232     H
H       0.6839   0.8239   0.4779     H
C       0.6862   0.8657   0.4725     C
H        0.688   0.6207   0.1862     H
C       0.6889   0.2939   0.9841     C
C       0.6914   0.9021   0.8208     C
H       0.6918   0.5269   0.8418     H
H       0.6923   0.5355   0.1105     H
C        0.693   0.9888   0.4551     C
H       0.6931   0.5923   0.7883     H
H       0.6987   0.0303   0.4494     H
H       0.7061   0.3192   0.4768     H
O       0.7076  0.09069   0.8583     O
C       0.7155   0.2857   0.0357     C
C       0.7219   0.2549   0.6794     C
O       0.7317    0.759  0.70866     O
C       0.7328   0.9812   0.9991     C
C       0.7331   0.9194  0.00781     C
O       0.7339   0.3631  0.28355     O
C       0.7405   0.2665    0.629     C
C       0.7475   0.4778   0.6823     C
H        0.748   0.8579    0.808     H
C       0.7495   0.4388   0.7146     C
C       0.7505   0.4388   0.2146     C
H        0.752   0.8579    0.308     H
C       0.7525   0.4778   0.1823     C
C       0.7595   0.2665    0.129     C
O       0.7661   0.3631  0.78355     O
C       0.7669   0.9194  0.50781     C
C       0.7672   0.9812   0.4991     C
O       0.7683    0.759  0.20866     O
C       0.7781   0.2549   0.1794     C
C       0.7845   0.2857   0.5357     C
O       0.7924  0.09069   0.3583     O
H       0.7939   0.3192   0.9768     H
H       0.8013   0.0303   0.9494     H
H       0.8069   0.5923   0.2883     H
C        0.807   0.9888   0.9551     C
H       0.8077   0.5355   0.6105     H
H       0.8082   0.5269   0.3418     H
C       0.8086   0.9021   0.3208     C
C       0.8111   0.2939   0.4841     C
H        0.812   0.6207   0.6862     H
C       0.8138   0.8657   0.9725     C
H       0.8161   0.8239   0.9779     H
H       0.8182   0.0182   0.5232     H
H       0.8196   0.1514   0.9595     H
H       0.8223    0.656   0.6149     H
N        0.823   0.2276  0.44445     N
O       0.8293   0.9286  0.23316     O
H       0.8395   0.2348   0.4145     H
C       0.8423   0.1826  0.94049     C
N       0.8429   0.9542  0.83531     N
C       0.8448   0.9122   0.5566     C
H       0.8499   0.9875   0.8233     H
O       0.8589   0.2473  0.70303     O
H       0.8638   0.4285   0.2274     H
H       0.8664   0.4933   0.1736     H
O       0.8697   0.8532  0.55941     O
Sm     0.87277  0.91035  0.66149    Sm
O       0.8749   0.9632  0.59235     O
P      0.87753  0.13668  0.87369     P
O       0.8809  0.19385  0.85087     O
C       0.8818   0.3019   0.0613     C
H       0.8834   0.9031   0.3502     H
C         0.89   0.9347  0.91946     C
C       0.8931   0.8736   0.9284     C
C        0.906   0.2924   0.1082     C
C       0.9094   0.2512   0.6039     C
O       0.9127  0.14289  0.74388     O
Sm     0.91335  0.25305  0.79325    Sm
P      0.91364  0.75047  0.67951     P
C       0.9139   0.4936   0.6631     C
C       0.9154    0.415   0.7282     C
C       0.9173   0.5426   0.6324     C
N       0.9173   0.6138  0.66723     N
C       0.9181    0.377   0.7659     C
O       0.9188  0.24109  0.28484     O
C       0.9194   0.5735   0.2947     C
C         0.92   0.5344   0.3268     C
H       0.9257   0.3191   0.4838     H
C        0.926   0.6641   0.6387     C
H       0.9261   0.2061   0.4504     H
O       0.9271   0.6448  0.22298     O
O       0.9272  0.79301  0.64453     O
O       0.9279  0.02018  0.70169     O
C       0.9316   0.2613   0.5572     C
H        0.932   0.0194   0.1174     H
O       0.9394   0.9015  0.13005     O
H        0.945    0.097   0.1433     H
H       0.9485    0.837    0.905     H
O       0.9534   0.2546  0.19482     O
H       0.9537   0.2088    0.954     H
H       0.9537   0.7485   0.4596     H
H       0.9544   0.2501   0.2231     H
H       0.9573   0.3421   0.3803     H
P      0.95937  0.91779  0.27272     P
H       0.9707    0.465   0.3887     H
H         0.98   0.3196   0.0471     H
H       0.9802   0.6966   0.8747     H
C       0.9817   0.9429  0.87279     C
H        0.983   0.3804   0.3119     H
H       0.9914   0.7658   0.3818     H
