data_I
_chemical_name_common  '/home/zhangsd/repos/MofS-CGCNN/ML/data/TSD/clean_cifs/LACGAZ_clean'
_cell_length_a 10.14300
_cell_length_b 12.70900
_cell_length_c 16.79500
_cell_angle_alpha 90.00000
_cell_angle_beta  107.03600
_cell_angle_gamma 90.00000
_space_group_name_H-M_alt      'P 1'


loop_
_space_group_symop_operation_xyz
  'x, y, z' 

loop_
_atom_site_label
_atom_site_fract_x
_atom_site_fract_y
_atom_site_fract_z
_atom_site_type_symbol
O       0.0118   0.6035   0.2269     O
O       0.0118   0.8965   0.7269     O
H       0.0198   0.2167   0.4021     H
H       0.0198   0.2833   0.9021     H
O       0.0349   0.1241   0.0037     O
O       0.0349   0.3759   0.5037     O
O       0.0435   0.1957   0.1251     O
O       0.0435   0.3043   0.6251     O
C       0.0549   0.0393    0.327     C
C       0.0549   0.4607    0.827     C
C       0.0568   0.1992   0.0526     C
C       0.0568   0.3008   0.5526     C
C       0.0651   0.1681   0.4422     C
C       0.0651   0.3319   0.9422     C
Ca     0.06862  0.73201  0.78719    Ca
Ca     0.06862  0.76799  0.28719    Ca
O       0.0877   0.5507   0.8092     O
O       0.0877   0.9493   0.3092     O
C       0.0976   0.0701   0.4182     C
C       0.0976   0.4299   0.9182     C
C       0.1003   0.1948   0.5268     C
C       0.1003   0.3052   0.0268     C
O       0.1293   0.1699   0.8092     O
O       0.1293   0.3301   0.3092     O
O       0.1636   0.6792   0.6848     O
O       0.1636   0.8208   0.1848     O
C         0.17      0.0   0.4781     C
C         0.17      0.5   0.9781     C
C       0.1714   0.1239   0.5855     C
C       0.1714   0.3761   0.0855     C
H       0.1944   0.5655    0.962     H
H       0.1944   0.9345    0.462     H
H       0.1962   0.1415   0.6417     H
H       0.1962   0.3585   0.1417     H
C       0.2063   0.0261   0.5612     C
C       0.2063   0.4739   0.0612     C
C       0.2468   0.1291   0.8341     C
C       0.2468   0.3709   0.3341     C
H       0.2543   0.5218    0.101     H
H       0.2543   0.9782    0.601     H
O       0.2551   0.5351   0.6506     O
O       0.2551   0.9649   0.1506     O
C       0.2651   0.6289   0.6724     C
C       0.2651   0.8711   0.1724     C
H       0.2691   0.1748   0.2811     H
H       0.2691   0.3252   0.7811     H
O       0.2693   0.0455   0.8735     O
O       0.2693   0.4545   0.3735     O
H       0.3336   0.6727   0.2144     H
H       0.3336   0.8273   0.7144     H
C       0.3537   0.2087   0.2916     C
C       0.3537   0.2913   0.7916     C
C       0.3665   0.1867   0.8176     C
C       0.3665   0.3133   0.3176     C
C       0.3968   0.6877   0.6844     C
C       0.3968   0.8123   0.1844     C
C       0.4091   0.7083   0.2069     C
C       0.4091   0.7917   0.7069     C
H       0.4578   0.0845   0.2666     H
H       0.4578   0.4155   0.7666     H
C       0.4654   0.1552   0.2813     C
C       0.4654   0.3448   0.7813     C
C       0.4903   0.1345   0.8282     C
C       0.4903   0.3655   0.3282     C
H       0.4983    0.064   0.8436     H
H       0.4983    0.436   0.3436     H
H       0.5017    0.564   0.6564     H
H       0.5017    0.936   0.1564     H
C       0.5097   0.6345   0.6718     C
C       0.5097   0.8655   0.1718     C
C       0.5346   0.6552   0.2187     C
C       0.5346   0.8448   0.7187     C
H       0.5422   0.5845   0.2334     H
H       0.5422   0.9155   0.7334     H
C       0.5909   0.2083   0.2931     C
C       0.5909   0.2917   0.7931     C
C       0.6032   0.1877   0.8156     C
C       0.6032   0.3123   0.3156     C
C       0.6335   0.6867   0.6824     C
C       0.6335   0.8133   0.1824     C
C       0.6463   0.7087   0.2084     C
C       0.6463   0.7913   0.7084     C
H       0.6664   0.1727   0.2856     H
H       0.6664   0.3273   0.7856     H
O       0.7307   0.5455   0.6265     O
O       0.7307   0.9545   0.1265     O
H       0.7309   0.6748   0.2189     H
H       0.7309   0.8252   0.7189     H
C       0.7349   0.1289   0.8276     C
C       0.7349   0.3711   0.3276     C
O       0.7449   0.0351   0.8494     O
O       0.7449   0.4649   0.3494     O
H       0.7457   0.0218    0.399     H
H       0.7457   0.4782    0.899     H
C       0.7532   0.6291   0.6659     C
C       0.7532   0.8709   0.1659     C
C       0.7937   0.5261   0.9388     C
C       0.7937   0.9739   0.4388     C
H       0.8038   0.6415   0.8583     H
H       0.8038   0.8585   0.3583     H
H       0.8056   0.0655    0.538     H
H       0.8056   0.4345    0.038     H
C       0.8286   0.6239   0.9145     C
C       0.8286   0.8761   0.4145     C
C         0.83      0.0   0.5219     C
C         0.83      0.5   0.0219     C
O       0.8364   0.1792   0.8152     O
O       0.8364   0.3208   0.3152     O
O       0.8707   0.6699   0.6908     O
O       0.8707   0.8301   0.1908     O
C       0.8997   0.6948   0.9732     C
C       0.8997   0.8052   0.4732     C
C       0.9024   0.5701   0.0818     C
C       0.9024   0.9299   0.5818     C
O       0.9123   0.0507   0.6908     O
O       0.9123   0.4493   0.1908     O
Ca     0.93138  0.23201  0.71281    Ca
Ca     0.93138  0.26799  0.21281    Ca
C       0.9349   0.6681   0.0578     C
C       0.9349   0.8319   0.5578     C
C       0.9432   0.6992   0.4474     C
C       0.9432   0.8008   0.9474     C
C       0.9451   0.5393    0.173     C
C       0.9451   0.9607    0.673     C
O       0.9565   0.6957   0.3749     O
O       0.9565   0.8043   0.8749     O
O       0.9651   0.6241   0.4963     O
O       0.9651   0.8759   0.9963     O
H       0.9802   0.7167   0.0979     H
H       0.9802   0.7833   0.5979     H
O       0.9882   0.1035   0.2731     O
O       0.9882   0.3965   0.7731     O
