data_I
_chemical_name_common  '/home/zhangsd/repos/MofS-CGCNN/ML/data/TSD/clean_cifs/LACJAC_clean'
_cell_length_a  9.78100
_cell_length_b 11.90500
_cell_length_c 15.22000
_cell_angle_alpha 96.50000
_cell_angle_beta  99.07000
_cell_angle_gamma 112.41000
_space_group_name_H-M_alt      'P 1'


loop_
_space_group_symop_operation_xyz
  'x, y, z' 

loop_
_atom_site_label
_atom_site_fract_x
_atom_site_fract_y
_atom_site_fract_z
_atom_site_type_symbol
Zn     0.01127  0.42971  0.70515    Zn
C       0.0315   0.3701   0.5077     C
H       0.0714   0.6784    0.514     H
N       0.0925   0.4323   0.5928     N
O        0.094    0.812   0.7304     O
O        0.107   0.7551   0.3042     O
Zn     0.10931  0.31173  0.32978    Zn
N       0.1212   0.5139   0.2285     N
N       0.1332   0.3853   0.4582     N
O       0.1538   0.6512   0.7182     O
H       0.1715   0.5695   0.9089     H
H       0.1725   0.6331   0.1462     H
N       0.1834   0.4321   0.2497     N
N       0.1839   0.4508   0.8089     N
C       0.1871    0.761   0.7479     C
C       0.1931   0.5721   0.1712     C
H        0.196   0.9886   0.3349     H
O       0.2015    0.193   0.3313     O
C       0.2236   0.5234   0.8904     C
C       0.2384   0.7849   0.3541     C
C       0.2392   0.4866   0.5922     C
N       0.2701   0.4609   0.5143     N
O       0.2724   0.7096   0.3921     O
H       0.2769   0.9604   0.0575     H
C       0.2881   0.4478   0.2024     C
C       0.2884   0.4041   0.8123     C
H       0.2915   0.3496   0.7646     H
H       0.2915   0.9111   0.5772     H
C       0.2989    0.009   0.3546     C
N       0.2999   0.5347   0.1521     N
O       0.3059   0.7546   0.0426     O
H        0.308   0.9987   0.8236     H
H       0.3126   0.5381   0.6426     H
C       0.3396   0.8407   0.8061     C
C       0.3425   0.2305   0.3631     C
H       0.3437   0.1682   0.1042     H
N        0.345   0.5223   0.9418     N
H        0.348    0.403   0.2037     H
C       0.3485   0.9157   0.3659     C
C       0.3738   0.0103   0.0913     C
H        0.377   0.7556   0.5895     H
C        0.379   0.9655   0.8371     C
N       0.3879   0.4443   0.8916     N
C        0.395   0.9312    0.593     C
C       0.3999   0.1315   0.3719     C
C       0.4131   0.1342   0.1202     C
H       0.4203   0.7081   0.8055     H
O       0.4291   0.3418   0.3852     O
C       0.4355   0.8246   0.0834     C
Zn     0.43913  0.60484  0.07046    Zn
C       0.4449   0.7913   0.8269     C
C       0.4458   0.8379   0.6015     C
H       0.4605   0.1139   0.6003     H
O       0.4631   0.2159   0.8943     O
C        0.478   0.9591   0.1123     C
C       0.4958   0.0526   0.6078     C
Zn         0.5      0.5      0.5    Zn
C       0.5042   0.9474   0.3922     C
C        0.522   0.0409   0.8877     C
O       0.5369   0.7841   0.1057     O
H       0.5395   0.8861   0.3997     H
C       0.5542   0.1621   0.3985     C
C       0.5551   0.2087   0.1731     C
Zn     0.56087  0.39516  0.92954    Zn
C       0.5645   0.1754   0.9166     C
O       0.5709   0.6582   0.6148     O
H       0.5797   0.2919   0.1945     H
C       0.5869   0.8658   0.8798     C
C       0.6001   0.8685   0.6281     C
C        0.605   0.0688    0.407     C
N       0.6121   0.5557   0.1084     N
C        0.621   0.0345   0.1629     C
H        0.623   0.2444   0.4105     H
C       0.6262   0.9897   0.9087     C
C       0.6515   0.0843   0.6341     C
H        0.652    0.597   0.7963     H
N        0.655   0.4777   0.0582     N
H       0.6563   0.8318   0.8958     H
C       0.6575   0.7695   0.6369     C
C       0.6604   0.1593   0.1939     C
H       0.6874   0.4619   0.3574     H
H        0.692   0.0013   0.1764     H
O       0.6941   0.2454   0.9574     O
N       0.7001   0.4653   0.8479     N
C       0.7011    0.991   0.6454     C
H       0.7085   0.0889   0.4228     H
H       0.7085   0.6504   0.2354     H
C       0.7116   0.5959   0.1877     C
C       0.7119   0.5522   0.7976     C
H       0.7231   0.0396   0.9425     H
O       0.7276   0.2904   0.6079     O
N       0.7299   0.5391   0.4857     N
C       0.7608   0.5134   0.4078     C
C       0.7616   0.2151   0.6459     C
C       0.7764   0.4766   0.1096     C
O       0.7985    0.807   0.6687     O
H        0.804   0.0114   0.6651     H
C       0.8069   0.4279   0.8288     C
C       0.8129    0.239   0.2521     C
N       0.8161   0.5492   0.1911     N
N       0.8166   0.5679   0.7503     N
H       0.8275   0.3669   0.8538     H
H       0.8285   0.4305   0.0911     H
O       0.8462   0.3488   0.2818     O
N       0.8668   0.6147   0.5418     N
N       0.8788   0.4861   0.7715     N
Zn     0.89069  0.68827  0.67022    Zn
O        0.893   0.2449   0.6958     O
O        0.906    0.188   0.2696     O
N       0.9075   0.5677   0.4072     N
H       0.9286   0.3216    0.486     H
C       0.9685   0.6299   0.4923     C
Zn     0.98873  0.57029  0.29485    Zn
