data_I
_chemical_name_common  '/home/zhangsd/repos/MofS-CGCNN/ML/data/TSD/clean_cifs/LADQUF_clean'
_cell_length_a 11.46460
_cell_length_b 13.62880
_cell_length_c 23.79780
_cell_angle_alpha 92.92900
_cell_angle_beta  103.54800
_cell_angle_gamma 112.49400
_space_group_name_H-M_alt      'P 1'


loop_
_space_group_symop_operation_xyz
  'x, y, z' 

loop_
_atom_site_label
_atom_site_fract_x
_atom_site_fract_y
_atom_site_fract_z
_atom_site_type_symbol
C       0.0102   0.3361   0.3113     C
C       0.0165   0.4924   0.8018     C
C       0.0199   0.4102   0.2728     C
H       0.0312   0.1213   0.2096     H
H       0.0372   0.9151   0.1694     H
C       0.0391   0.0183   0.7113     C
H       0.0479   0.4087   0.8669     H
C       0.0502   0.0167   0.5974     C
H       0.0529   0.0147   0.5586     H
C        0.054   0.9367   0.8047     C
C       0.0545   0.0354    0.777     C
C       0.0553   0.9362   0.2107     C
C       0.0577    0.058   0.3891     C
H       0.0599   0.8779   0.2307     H
C       0.0633   0.0571   0.3317     C
H        0.066   0.7263   0.6952     H
H       0.0753   0.9536   0.8465     H
C       0.0755   0.5852   0.7789     C
H       0.0823   0.6752   0.2838     H
C       0.0878   0.4688   0.8505     C
H       0.1091    0.308   0.3857     H
C       0.1153   0.3565   0.3592     C
H       0.1184   0.9159   0.7945     H
C       0.1242    0.571   0.2341     C
H       0.1256   0.7221   0.2297     H
H       0.1354   0.1068   0.3224     H
C       0.1364   0.5014   0.2816     C
H       0.1376   0.9977   0.2244     H
C       0.1423   0.6825   0.2605     C
C       0.1478   0.0927   0.6973     C
C       0.1531   0.0935   0.6394     C
O       0.1634   0.1509   0.4882     O
C       0.1713   0.1403   0.4363     C
C       0.1877   0.1312   0.7975     C
C        0.207    0.652   0.8035     C
H       0.2085   0.6203   0.1675     H
H       0.2163   0.5128   0.1843     H
C        0.218   0.5348   0.8743     C
H       0.2202   0.1652   0.8851     H
H       0.2238   0.1442   0.6296     H
C       0.2243   0.5825   0.1994     C
H       0.2308   0.7202   0.2847     H
C        0.231   0.4489   0.3687     C
O       0.2341   0.4486   0.9578     O
C        0.239   0.1639    0.751     C
C        0.243   0.5208    0.329     C
H       0.2466   0.7139   0.7882     H
C       0.2544   0.1865   0.8538     C
O       0.2717   0.1986   0.4223     O
C       0.2788   0.6253   0.8513     C
C        0.296   0.5059    0.927     C
H       0.3006   0.8897   0.1967     H
H       0.3112   0.6224   0.2246     H
H       0.3198   0.8893   0.7434     H
O       0.3207   0.4211   0.4636     O
H       0.3212   0.5808   0.3342     H
H       0.3415   0.3309    0.242     H
C       0.3425   0.4719   0.4216     C
H       0.3491   0.0103   0.7618     H
Tb     0.35852  0.40528  0.03837    Tb
C       0.3605   0.2501   0.7603     C
C       0.3672   0.2743   0.2391     C
H       0.3676   0.6684   0.8676     H
O        0.368   0.2573   0.0862     O
O       0.3682   0.3911   0.1412     O
H        0.371   0.2465   0.3221     H
C       0.3726   0.3007   0.1356     C
C       0.3752   0.2756   0.8625     C
H       0.3764    0.941   0.8097     H
C       0.3776   0.9538   0.7705     C
Tb     0.37832  0.30086  0.51767    Tb
H       0.3799    0.933   0.1513     H
C       0.3834   0.2236   0.2873     C
C       0.3857   0.9141   0.1899     C
O       0.3858   0.3131   0.9624     O
C       0.3869   0.2459   0.1878     C
H       0.3963   0.2709   0.7294     H
H       0.4107   0.1131   0.3995     H
H       0.4166   0.8578   0.1932     H
O       0.4183   0.5425    0.937     O
C       0.4187   0.1373   0.2822     C
C       0.4229   0.1573   0.1829     C
C       0.4264   0.3038   0.8168     C
O       0.4343   0.2314   0.6072     O
H       0.4347   0.1348   0.1479     H
C       0.4353   0.0648   0.3815     C
C       0.4402   0.1051   0.2302     C
C       0.4421   0.0672   0.3239     C
O        0.443   0.5865     0.07     O
C       0.4441   0.3384   0.9229     C
O       0.4514   0.5449   0.4234     O
O       0.4601    0.161   0.5284     O
H       0.4618   0.9884   0.4499     H
C       0.4632    0.164   0.5819     C
C       0.4655   0.9901   0.4113     C
H       0.4702   0.1312   0.6907     H
C       0.4773   0.9936   0.2971     C
C       0.4818   0.0126   0.2355     C
H        0.492   0.6392   0.1763     H
C       0.4932    0.082   0.6726     C
C       0.4984   0.0834   0.6152     C
C       0.5016   0.9166   0.3848     C
C       0.5068    0.918   0.3274     C
H        0.508   0.3608   0.8237     H
C       0.5182   0.9874   0.7645     C
C       0.5227   0.0064   0.7029     C
H       0.5298   0.8688   0.3093     H
C       0.5345   0.0099   0.5887     C
C       0.5368    0.836   0.4181     C
H       0.5382   0.0116   0.5501     H
O       0.5399    0.839   0.4716     O
O       0.5486   0.4551   0.5766     O
C       0.5559   0.6616   0.0771     C
O        0.557   0.4135     0.93     O
C       0.5579   0.9328   0.6761     C
C       0.5598   0.8949   0.7698     C
C       0.5647   0.9352   0.6185     C
H       0.5653   0.8652   0.8521     H
O       0.5657   0.7686   0.3928     O
C       0.5736   0.6962   0.1832     C
C       0.5771   0.8427   0.8171     C
C       0.5813   0.8627   0.7178     C
O       0.5817   0.4575    0.063     O
H       0.5834   0.1422   0.8068     H
H       0.5893   0.8869   0.6005     H
H       0.6037   0.7291   0.2706     H
C       0.6131   0.7541   0.8122     C
O       0.6142   0.6869   0.0376     O
C       0.6143   0.0859   0.8101     C
C       0.6166   0.7764   0.7127     C
H       0.6201    0.067   0.8487     H
Tb     0.62168  0.69914  0.48233    Tb
C       0.6224   0.0462   0.2295     C
H       0.6236    0.059   0.1903     H
C       0.6248   0.7244   0.1375     C
C       0.6274   0.6993   0.8644     C
H        0.629   0.7535   0.6779     H
O       0.6318   0.6089   0.8588     O
O        0.632   0.7427   0.9138     O
H       0.6324   0.3316   0.1324     H
C       0.6328   0.7257   0.7609     C
C       0.6395   0.7499   0.2397     C
Tb     0.64148  0.59472  0.96163    Tb
H       0.6509   0.9897   0.2382     H
C       0.6575   0.5281   0.5784     C
H       0.6585   0.6691    0.758     H
H       0.6788   0.4192   0.6658     H
O       0.6793   0.5789   0.5364     O
H       0.6802   0.1107   0.2566     H
H       0.6888   0.3776   0.7754     H
H       0.6994   0.1103   0.8033     H
C        0.704   0.4941    0.073     C
C       0.7212   0.3747   0.1487     C
O       0.7283   0.8014   0.5777     O
C       0.7456   0.8135   0.1462     C
H       0.7534   0.2861   0.2118     H
C        0.757   0.4792    0.671     C
C        0.761   0.8361    0.249     C
O       0.7659   0.5514   0.0422     O
C        0.769   0.5511   0.6313     C
H       0.7692   0.2798   0.7153     H
C       0.7757   0.4175   0.8006     C
H       0.7762   0.8558   0.3704     H
H       0.7798   0.8348   0.1149     H
C        0.782   0.4652   0.1257     C
H       0.7837   0.4872   0.8157     H
H       0.7915   0.3797   0.8325     H
C        0.793    0.348   0.1965     C
C       0.8123   0.8688   0.2025     C
C       0.8287   0.8597   0.5637     C
O       0.8366   0.8491   0.5118     O
C       0.8469   0.9065   0.3606     C
C       0.8522   0.9073   0.3027     C
C       0.8577   0.3175   0.7395     C
H       0.8624   0.0023   0.7756     H
C       0.8636   0.4986   0.7184     C
H       0.8646   0.8932   0.6776     H
H       0.8744   0.2779   0.7703     H
C       0.8758    0.429   0.7659     C
H       0.8816   0.0841   0.2055     H
C       0.8847   0.6435   0.6408     C
H       0.8909    0.692   0.6143     H
C       0.9122   0.5312   0.1495     C
H       0.9177   0.3248   0.7162     H
C       0.9245   0.4148   0.2211     C
H       0.9247   0.0464   0.1535     H
H        0.934   0.2737   0.3048     H
C       0.9367   0.9429   0.6683     C
H       0.9401   0.1221   0.7693     H
C       0.9423    0.942   0.6109     C
C       0.9447   0.0638   0.7893     C
C       0.9455   0.9646    0.223     C
C        0.946   0.0633   0.1953     C
H       0.9471   0.9853   0.4414     H
C       0.9498   0.9833   0.4026     C
H       0.9521   0.5913   0.1331     H
C       0.9609   0.9817   0.2887     C
H       0.9628   0.0849   0.8306     H
H       0.9688   0.8787   0.7904     H
C       0.9801   0.5898   0.7272     C
C       0.9835   0.5076   0.1982     C
C       0.9898   0.6639   0.6887     C
