data_I
_chemical_name_common  '/home/zhangsd/repos/MofS-CGCNN/ML/data/TSD/clean_cifs/LASWIN_clean'
_cell_length_a 10.25370
_cell_length_b 10.93200
_cell_length_c 13.33830
_cell_angle_alpha 90.00000
_cell_angle_beta  90.00000
_cell_angle_gamma 113.14900
_space_group_name_H-M_alt      'P 1'


loop_
_space_group_symop_operation_xyz
  'x, y, z' 

loop_
_atom_site_label
_atom_site_fract_x
_atom_site_fract_y
_atom_site_fract_z
_atom_site_type_symbol
H       0.0084   0.6844   0.8807     H
C       0.0307   0.8564   0.9435     C
C       0.0386   0.0684   0.0191     C
C       0.0428    0.269   0.0934     C
C       0.0476   0.6243  0.54669     C
C       0.0478    0.488  0.40323     C
C       0.0926   0.6097  0.45085     C
O      0.09651  0.53491  0.22746     O
O      0.10197  0.76837  0.68903     O
C       0.1055   0.7587   0.5957     C
C       0.1176   0.4811   0.3043     C
H       0.1293   0.8913   0.9431     H
H       0.1492   0.2045   0.5537     H
H       0.1552   0.6846   0.4176     H
O      0.15905  0.86025   0.5416     O
N       0.1842    0.328  0.09397     N
C       0.1855   0.1291   0.0206     C
O      0.20929  0.43199   0.3063     O
Co     0.21135  0.98777  0.66323    Co
H        0.239   0.0832   0.9975     H
C       0.2478   0.2434   0.5562     C
C       0.2522   0.2566   0.0562     C
H        0.261   0.4168   0.4975     H
Co     0.28865  0.51223  0.16323    Co
O      0.29071  0.06801   0.8063     O
C       0.3145   0.3709   0.5206     C
N       0.3158    0.172  0.59397     N
O      0.34095  0.63975   0.0416     O
H       0.3448   0.8154   0.9176     H
H       0.3508   0.2955   0.0537     H
H       0.3707   0.6087   0.4431     H
C       0.3824   0.0189   0.8043     C
C       0.3945   0.7413   0.0957     C
O      0.39803  0.73163  0.18903     O
O      0.40349  0.96509  0.72746     O
C       0.4074   0.8903  0.95085     C
C       0.4522    0.012  0.90323     C
C       0.4524   0.8757  0.04669     C
C       0.4572    0.231   0.5934     C
C       0.4614   0.4316   0.5191     C
C       0.4693   0.6436   0.4435     C
H       0.4916   0.8156   0.3807     H
H       0.5084   0.1844   0.6193     H
C       0.5307   0.3564   0.5565     C
C       0.5386   0.5684   0.4809     C
C       0.5428    0.769   0.4066     C
C       0.5476   0.1243  0.95331     C
C       0.5478    0.988  0.09677     C
C       0.5926   0.1097  0.04915     C
O      0.59651  0.03491  0.27254     O
O      0.60197  0.26837  0.81097     O
C       0.6055   0.2587   0.9043     C
C       0.6176   0.9811   0.1957     C
H       0.6293   0.3913   0.5569     H
H       0.6492   0.7045   0.9463     H
H       0.6552   0.1846   0.0824     H
O      0.65905  0.36025   0.9584     O
N       0.6842    0.828  0.40603     N
C       0.6855   0.6291   0.4794     C
O      0.70929  0.93199   0.1937     O
Co     0.71135  0.48777  0.83677    Co
H        0.739   0.5832   0.5025     H
C       0.7478   0.7434   0.9438     C
C       0.7522   0.7566   0.4438     C
H        0.761   0.9168   0.0025     H
Co     0.78865  0.01223  0.33677    Co
O      0.79071  0.56801   0.6937     O
C       0.8145   0.8709   0.9794     C
N       0.8158    0.672  0.90603     N
O      0.84095  0.13975   0.4584     O
H       0.8448   0.3154   0.5824     H
H       0.8508   0.7955   0.4463     H
H       0.8707   0.1087   0.0569     H
C       0.8824   0.5189   0.6957     C
C       0.8945   0.2413   0.4043     C
O      0.89803  0.23163  0.31097     O
O      0.90349  0.46509  0.77254     O
C       0.9074   0.3903  0.54915     C
C       0.9522    0.512  0.59677     C
C       0.9524   0.3757  0.45331     C
C       0.9572    0.731   0.9066     C
C       0.9614   0.9316   0.9809     C
C       0.9693   0.1436   0.0565     C
H       0.9916   0.3156   0.1193     H
