data_I
_chemical_name_common  '/home/zhangsd/repos/MofS-CGCNN/ML/data/TSD/clean_cifs/LAVTAF_clean'
_cell_length_a 10.33000
_cell_length_b 10.33000
_cell_length_c 14.51000
_cell_angle_alpha 90.00000
_cell_angle_beta  90.00000
_cell_angle_gamma 90.00000
_space_group_name_H-M_alt      'P 1'


loop_
_space_group_symop_operation_xyz
  'x, y, z' 

loop_
_atom_site_label
_atom_site_fract_x
_atom_site_fract_y
_atom_site_fract_z
_atom_site_type_symbol
H          0.0   0.1044      0.0     H
C          0.0   0.1945      0.0     C
C          0.0   0.3906      0.5     C
C          0.0    0.464      0.0     C
C          0.0    0.536      0.5     C
C          0.0   0.6094      0.0     C
C          0.0   0.8055      0.5     C
H          0.0   0.8956      0.5     H
C       0.0428   0.2616   0.0777     C
C       0.0428   0.7384   0.4223     C
C        0.043   0.3962   0.0773     C
C        0.043   0.6038   0.4227     C
O       0.0695   0.3359   0.4412     O
O       0.0695   0.6641   0.0588     O
O       0.0709    0.109   0.5979     O
O       0.0709    0.891   0.9021     O
H       0.0719   0.4413   0.1288     H
H       0.0719   0.5587   0.3712     H
C       0.0856   0.1862   0.1604     C
C       0.0856   0.8138   0.3396     C
O       0.0924    0.244  0.23611     O
O       0.0924    0.756  0.26389     O
H       0.1044      0.0     0.75     H
O        0.109   0.0709   0.1521     O
O        0.109   0.9291   0.3479     O
Tb     0.14702  0.14702    0.375    Tb
Tb     0.14702  0.85298    0.125    Tb
C       0.1862   0.0856   0.5896     C
C       0.1862   0.9144   0.9104     C
C       0.1945      0.0     0.75     C
O        0.244   0.0924  0.51389     O
O        0.244   0.9076  0.98611     O
C       0.2616   0.0428   0.6723     C
C       0.2616   0.9572   0.8277     C
O       0.3359   0.0695   0.3088     O
O       0.3359   0.9305   0.1912     O
C       0.3906      0.0     0.25     C
C       0.3962    0.043   0.6727     C
C       0.3962    0.957   0.8273     C
H       0.4413   0.0719   0.6212     H
H       0.4413   0.9281   0.8788     H
C        0.464      0.0     0.75     C
C        0.536      0.0     0.25     C
H       0.5587   0.0719   0.3788     H
H       0.5587   0.9281   0.1212     H
C       0.6038    0.043   0.3273     C
C       0.6038    0.957   0.1727     C
C       0.6094      0.0     0.75     C
O       0.6641   0.0695   0.6912     O
O       0.6641   0.9305   0.8088     O
C       0.7384   0.0428   0.3277     C
C       0.7384   0.9572   0.1723     C
O        0.756   0.0924  0.48611     O
O        0.756   0.9076  0.01389     O
C       0.8055      0.0     0.25     C
C       0.8138   0.0856   0.4104     C
C       0.8138   0.9144   0.0896     C
Tb     0.85298  0.14702    0.625    Tb
Tb     0.85298  0.85298    0.875    Tb
O        0.891   0.0709   0.8479     O
O        0.891   0.9291   0.6521     O
H       0.8956      0.0     0.25     H
O       0.9076    0.244  0.76389     O
O       0.9076    0.756  0.73611     O
C       0.9144   0.1862   0.8396     C
C       0.9144   0.8138   0.6604     C
H       0.9281   0.4413   0.8712     H
H       0.9281   0.5587   0.6288     H
O       0.9291    0.109   0.4021     O
O       0.9291    0.891   0.0979     O
O       0.9305   0.3359   0.5588     O
O       0.9305   0.6641   0.9412     O
C        0.957   0.3962   0.9227     C
C        0.957   0.6038   0.5773     C
C       0.9572   0.2616   0.9223     C
C       0.9572   0.7384   0.5777     C
