data_I
_chemical_name_common  '/home/zhangsd/repos/MofS-CGCNN/ML/data/TSD/clean_cifs/LECFAC_clean'
_cell_length_a 22.40040
_cell_length_b 22.40040
_cell_length_c 22.40040
_cell_angle_alpha 109.47100
_cell_angle_beta  109.47100
_cell_angle_gamma 109.47100
_space_group_name_H-M_alt      'P 1'


loop_
_space_group_symop_operation_xyz
  'x, y, z' 

loop_
_atom_site_label
_atom_site_fract_x
_atom_site_fract_y
_atom_site_fract_z
_atom_site_type_symbol
H          0.0      0.0    0.474     H
O          0.0      0.0  0.51166     O
S          0.0      0.0  0.65544     S
N          0.0   0.2245   0.6065     N
C          0.0  0.29464  0.63242     C
H          0.0   0.2976   0.7224     H
H          0.0   0.3086   0.5452     H
C          0.0  0.32267  0.69553     C
C          0.0  0.32958  0.58964     C
O          0.0  0.38688  0.82846     O
C          0.0  0.38871  0.72171     C
C          0.0  0.39317  0.61423     C
C          0.0  0.41977  0.79263     C
C          0.0  0.42502  0.68294     C
C          0.0  0.43431  0.57329     C
Cu         0.0  0.44813  0.44813    Cu
H          0.0   0.4699   0.7003     H
H          0.0    0.474      0.0     H
O          0.0  0.49275  0.59917     O
Cu         0.0  0.50563  0.90816    Cu
O          0.0  0.51166     -0.0     O
O          0.0  0.51291  0.40495     O
H          0.0   0.5452   0.3086     H
Cu         0.0  0.55187  0.55187    Cu
C          0.0  0.57329  0.43431     C
C          0.0  0.58964  0.32958     C
O          0.0  0.59917  0.49275     O
N          0.0   0.6065   0.2245     N
O          0.0  0.61146  0.93352     O
C          0.0  0.61423  0.39317     C
C          0.0  0.63242  0.29464     C
S          0.0  0.65544     -0.0     S
C          0.0  0.68294  0.42502     C
C          0.0  0.69553  0.32267     C
O          0.0  0.72136     -0.0     O
C          0.0  0.72171  0.38871     C
H          0.0   0.7224   0.2976     H
C          0.0  0.79263  0.41977     C
O          0.0    0.814  0.47956     O
O          0.0  0.82846  0.38688     O
Cu         0.0  0.90816  0.50563    Cu
O          0.0  0.93352  0.61146     O
O          0.0      1.0  0.72136     O
N      0.03703  0.14528  0.59213     N
N      0.03703  0.59213  0.14528     N
C      0.05766  0.21536  0.62422     C
C      0.05766  0.62422  0.21536     C
O      0.06648  0.06648  0.67794     O
O      0.06648  0.67794  0.06648     O
Cu     0.09184  0.09184  0.59747    Cu
Cu     0.09184  0.59747  0.09184    Cu
O      0.10642  0.50725  0.50725     O
H        0.107   0.2539   0.6557     H
H        0.107   0.6557   0.2539     H
O      0.10796  0.59505  0.59505     O
N      0.10825   0.5551  0.96297     N
N      0.10825  0.96297   0.5551     N
C      0.13898  0.56569  0.56569     C
N      0.14528  0.03703  0.59213     N
N      0.14528  0.59213  0.03703     N
H       0.1469   0.5487    0.893     H
H       0.1469    0.893   0.5487     H
C       0.1577  0.56656  0.94234     C
C       0.1577  0.94234  0.56656     C
O      0.17154  0.17154  0.55842     O
O      0.17154  0.55842  0.17154     O
O        0.186    0.186  0.66556     O
O        0.186  0.66556    0.186     O
C      0.20737  0.20737  0.62714     C
C      0.20737  0.62714  0.20737     C
C      0.21536  0.05766  0.62422     C
C      0.21536  0.62422  0.05766     C
C      0.22106  0.60683  0.60683     C
N       0.2245   0.6065     -0.0     N
N       0.2245      1.0   0.6065     N
H       0.2304   0.5301   0.5301     H
H       0.2366   0.6914   0.6914     H
H       0.2539    0.107   0.6557     H
H       0.2539   0.6557    0.107     H
C      0.25792  0.57498  0.57498     C
C      0.26006  0.67042  0.67042     C
H       0.2776   0.2776   0.5752     H
H       0.2776   0.5752   0.2776     H
C      0.27829  0.27829    0.667     C
C      0.27829    0.667  0.27829     C
O      0.27864  0.27864  0.27864     O
C      0.29464  0.63242      1.0     C
C      0.29464      1.0  0.63242     C
H       0.2976   0.7224      1.0     H
H       0.2976      1.0   0.7224     H
H       0.2997   0.2997   0.7696     H
H       0.2997   0.7696   0.2997     H
C      0.30447  0.30447  0.62714     C
C      0.30447  0.62714  0.30447     C
H       0.3086   0.5452      1.0     H
H       0.3086      1.0   0.5452     H
C      0.31706  0.31706  0.74208     C
C      0.31706  0.74208  0.31706     C
O      0.32206  0.38854  0.38854     O
C      0.32267  0.69553      1.0     C
C      0.32267      1.0  0.69553     C
C      0.32958     -0.0  0.58964     C
C      0.32958  0.58964      1.0     C
C        0.333  0.61129  0.61129     C
O      0.33444  0.52044  0.52044     O
C      0.33778  0.70536  0.70536     C
H       0.3443   0.4513   0.5982     H
H       0.3443   0.5982   0.4513     H
S      0.34456  0.34456  0.34456     S
C      0.36758  0.36758  0.66222     C
C      0.36758  0.66222  0.36758     C
C      0.37286  0.58023  0.58023     C
C      0.37286  0.67733  0.67733     C
C      0.37578  0.43344  0.59114     C
C      0.37578  0.59114  0.43344     C
N        0.382   0.7755   0.7755     N
C      0.38577  0.38577  0.77894     C
C      0.38577  0.77894  0.38577     C
O      0.38688  0.82846      0.0     O
O      0.38688      1.0  0.82846     O
O      0.38854  0.32206  0.38854     O
O      0.38854  0.38854  0.32206     O
C      0.38871      0.0  0.72171     C
C      0.38871  0.72171      1.0     C
C      0.39317     -0.0  0.61423     C
C      0.39317  0.61423     -0.0     C
N       0.3935   0.3935    0.618     N
N       0.3935    0.618   0.3935     N
O      0.40083  0.40083  0.89358     O
O      0.40083  0.89358  0.40083     O
H       0.4018   0.7461   0.8531     H
H       0.4018   0.8531   0.7461     H
Cu     0.40253  0.49437  0.49437    Cu
O      0.40495      0.0  0.51291     O
O      0.40495  0.51291     -0.0     O
N      0.40787   0.4449  0.55315     N
N      0.40787  0.55315   0.4449     N
C      0.40886  0.78464   0.8423     C
C      0.40886   0.8423  0.78464     C
C      0.41036  0.41036  0.73994     C
C      0.41036  0.73994  0.41036     C
C      0.41977  0.79263      0.0     C
C      0.41977      1.0  0.79263     C
H       0.4248   0.7024   0.7024     H
C      0.42502  0.68294      1.0     C
C      0.42502      1.0  0.68294     C
C      0.42671  0.42671  0.86102     C
C      0.42671  0.86102  0.42671     C
C      0.43344  0.37578  0.59114     C
C      0.43344  0.59114  0.37578     C
C      0.43431  0.57329      0.0     C
C      0.43431      1.0  0.57329     C
O      0.44158  0.61312  0.61312     O
N       0.4449  0.40787  0.55315     N
N       0.4449  0.55315  0.40787     N
N      0.44685  0.85472  0.89175     N
N      0.44685  0.89175  0.85472     N
Cu     0.44813     -0.0  0.44813    Cu
Cu     0.44813  0.44813      0.0    Cu
H       0.4513   0.3443   0.5982     H
H       0.4513   0.5982   0.3443     H
H       0.4548   0.4548   0.7634     H
H       0.4548   0.7634   0.4548     H
H       0.4699   0.7003     -0.0     H
H       0.4699      1.0   0.7003     H
H        0.474     -0.0     -0.0     H
O      0.47956    0.814     -0.0     O
O      0.47956      1.0    0.814     O
O      0.48709  0.48709  0.89204     O
O      0.48709  0.89204  0.48709     O
O      0.48834  0.48834  0.48834     O
O      0.49275      0.0  0.59917     O
O      0.49275  0.59917      1.0     O
Cu     0.49437  0.40253  0.49437    Cu
Cu     0.49437  0.49437  0.40253    Cu
Cu     0.50563  0.90816     -0.0    Cu
Cu     0.50563      1.0  0.90816    Cu
O      0.50725  0.10642  0.50725     O
O      0.50725  0.50725  0.10642     O
O      0.51166     -0.0      0.0     O
O      0.51291     -0.0  0.40495     O
O      0.51291  0.40495      1.0     O
O      0.52044  0.33444  0.52044     O
O      0.52044  0.52044  0.33444     O
H        0.526    0.526    0.526     H
H       0.5301   0.2304   0.5301     H
H       0.5301   0.5301   0.2304     H
H       0.5452   0.3086      1.0     H
H       0.5452      1.0   0.3086     H
H       0.5487   0.1469    0.893     H
H       0.5487    0.893   0.1469     H
Cu     0.55187     -0.0  0.55187    Cu
Cu     0.55187  0.55187     -0.0    Cu
N      0.55315  0.40787   0.4449     N
N      0.55315   0.4449  0.40787     N
N       0.5551  0.10825  0.96297     N
N       0.5551  0.96297  0.10825     N
O      0.55842  0.17154  0.17154     O
C      0.56569  0.13898  0.56569     C
C      0.56569  0.56569  0.13898     C
C      0.56656   0.1577  0.94234     C
C      0.56656  0.94234   0.1577     C
C      0.57329  0.43431      1.0     C
C      0.57329      1.0  0.43431     C
C      0.57498  0.25792  0.57498     C
C      0.57498  0.57498  0.25792     C
H       0.5752   0.2776   0.2776     H
C      0.58023  0.37286  0.58023     C
C      0.58023  0.58023  0.37286     C
C      0.58964      0.0  0.32958     C
C      0.58964  0.32958      1.0     C
C      0.59114  0.37578  0.43344     C
C      0.59114  0.43344  0.37578     C
N      0.59213  0.03703  0.14528     N
N      0.59213  0.14528  0.03703     N
O      0.59505  0.10796  0.59505     O
O      0.59505  0.59505  0.10796     O
Cu     0.59747  0.09184  0.09184    Cu
H       0.5982   0.3443   0.4513     H
H       0.5982   0.4513   0.3443     H
O      0.59917      0.0  0.49275     O
O      0.59917  0.49275      1.0     O
N       0.6065   0.2245      1.0     N
N       0.6065      1.0   0.2245     N
C      0.60683  0.22106  0.60683     C
C      0.60683  0.60683  0.22106     C
C      0.61129    0.333  0.61129     C
C      0.61129  0.61129    0.333     C
O      0.61146      0.0  0.93352     O
O      0.61146  0.93352      0.0     O
O      0.61312  0.44158  0.61312     O
O      0.61312  0.61312  0.44158     O
C      0.61423  0.39317      1.0     C
C      0.61423      1.0  0.39317     C
N        0.618   0.3935   0.3935     N
C      0.62422  0.05766  0.21536     C
C      0.62422  0.21536  0.05766     C
C      0.62714  0.20737  0.20737     C
C      0.62714  0.30447  0.30447     C
C      0.63242      0.0  0.29464     C
C      0.63242  0.29464     -0.0     C
S      0.65544      0.0     -0.0     S
H       0.6557    0.107   0.2539     H
H       0.6557   0.2539    0.107     H
C      0.66222  0.36758  0.36758     C
O      0.66556    0.186    0.186     O
C        0.667  0.27829  0.27829     C
C      0.67042  0.26006  0.67042     C
C      0.67042  0.67042  0.26006     C
C      0.67733  0.37286  0.67733     C
C      0.67733  0.67733  0.37286     C
O      0.67794  0.06648  0.06648     O
C      0.68294     -0.0  0.42502     C
C      0.68294  0.42502     -0.0     C
H       0.6914   0.2366   0.6914     H
H       0.6914   0.6914   0.2366     H
C      0.69553  0.32267      1.0     C
C      0.69553      1.0  0.32267     C
H       0.7003      0.0   0.4699     H
H       0.7003   0.4699      1.0     H
H       0.7024   0.4248   0.7024     H
H       0.7024   0.7024   0.4248     H
C      0.70536  0.33778  0.70536     C
C      0.70536  0.70536  0.33778     C
O      0.72136     -0.0     -0.0     O
C      0.72171      0.0  0.38871     C
C      0.72171  0.38871     -0.0     C
H       0.7224      0.0   0.2976     H
H       0.7224   0.2976      1.0     H
C      0.73994  0.41036  0.41036     C
C      0.74208  0.31706  0.31706     C
H       0.7461   0.4018   0.8531     H
H       0.7461   0.8531   0.4018     H
H       0.7634   0.4548   0.4548     H
H       0.7696   0.2997   0.2997     H
N       0.7755    0.382   0.7755     N
N       0.7755   0.7755    0.382     N
C      0.77894  0.38577  0.38577     C
C      0.78464  0.40886   0.8423     C
C      0.78464   0.8423  0.40886     C
C      0.79263  0.41977      1.0     C
C      0.79263      1.0  0.41977     C
O        0.814      0.0  0.47956     O
O        0.814  0.47956      0.0     O
O      0.82846      0.0  0.38688     O
O      0.82846  0.38688      1.0     O
C       0.8423  0.40886  0.78464     C
C       0.8423  0.78464  0.40886     C
H       0.8531   0.4018   0.7461     H
H       0.8531   0.7461   0.4018     H
N      0.85472  0.44685  0.89175     N
N      0.85472  0.89175  0.44685     N
C      0.86102  0.42671  0.42671     C
N      0.89175  0.44685  0.85472     N
N      0.89175  0.85472  0.44685     N
O      0.89204  0.48709  0.48709     O
H        0.893   0.1469   0.5487     H
H        0.893   0.5487   0.1469     H
O      0.89358  0.40083  0.40083     O
Cu     0.90816  0.50563     -0.0    Cu
Cu     0.90816      1.0  0.50563    Cu
O      0.93352      0.0  0.61146     O
O      0.93352  0.61146      0.0     O
C      0.94234   0.1577  0.56656     C
C      0.94234  0.56656   0.1577     C
N      0.96297  0.10825   0.5551     N
N      0.96297   0.5551  0.10825     N
O          1.0  0.40495  0.51291     O
O          1.0  0.47956    0.814     O
H          1.0   0.7003   0.4699     H
