data_I
_chemical_name_common  '/home/zhangsd/repos/MofS-CGCNN/ML/data/TSD/clean_cifs/LEGGIO_clean'
_cell_length_a 13.47500
_cell_length_b 13.50900
_cell_length_c 26.94900
_cell_angle_alpha 90.00000
_cell_angle_beta  90.00000
_cell_angle_gamma 95.18000
_space_group_name_H-M_alt      'P 1'


loop_
_space_group_symop_operation_xyz
  'x, y, z' 

loop_
_atom_site_label
_atom_site_fract_x
_atom_site_fract_y
_atom_site_fract_z
_atom_site_type_symbol
N       0.0006   0.7471   0.4758     N
H       0.0143   0.1974   0.0316     H
C       0.0153   0.7643   0.9931     C
H       0.0173   0.8483   0.5314     H
H       0.0212   0.6197   0.0784     H
C       0.0345    0.666   0.0522     C
N       0.0373   0.2978  0.97558     N
C       0.0457   0.7967  0.51396     C
H       0.0553   0.6369   0.4362     H
H       0.0586   0.9068   0.8085     H
C       0.0661   0.6834   0.4626     C
H        0.074   0.8926   0.7221     H
O       0.0799   0.3818  0.62899     O
H       0.0996   0.1467   0.7084     H
C       0.1012   0.3054   0.6504     C
C       0.1042   0.2054   0.7281     C
C       0.1042   0.2982  0.70555     C
O       0.1053   0.9002    0.899     O
H       0.1072   0.4457   0.7205     H
H       0.1096   0.1358   0.7954     H
C       0.1108   0.3823   0.7353     C
C       0.1111   0.1991   0.7799     C
O       0.1127   0.1923  0.88411     O
N        0.113   0.7663  0.00035     N
C         0.12   0.2835   0.8084     C
H       0.1203   0.0592   0.9525     H
C       0.1219   0.9004    0.794     C
C       0.1225   0.3753   0.7862     C
N       0.1257   0.7021  0.03894     N
O       0.1259   0.2289  0.62655     O
H       0.1274   0.6148   0.2366     H
C       0.1314   0.8923   0.7425     C
H       0.1322   0.4339   0.8058     H
Zn     0.13289  0.24262  0.55428    Zn
C       0.1333   0.2728   0.8637     C
N        0.134   0.7661  0.52476     N
H       0.1387   0.0236   0.5966     H
H        0.145   0.6033   0.3232     H
N       0.1473   0.6922  0.49009     N
O       0.1552   0.8443  0.64066     O
O       0.1675   0.3512  0.88742     O
C       0.1695   0.0715   0.9775     C
H       0.1736   0.5241   0.9899     H
C       0.1802   0.0322   0.5681     C
H       0.1802   0.4799    0.555     H
O       0.1814   0.6289  0.14649     O
N       0.1889   0.1142  0.54055     N
Zn     0.18891  0.29313  0.95608    Zn
C       0.1916   0.6125    0.251     C
C       0.1931    0.895   0.8798     C
C       0.2023   0.6053   0.3025     C
N       0.2028   0.1602  0.99288     N
C       0.2051   0.8989   0.8235     C
N        0.214   0.9991  0.00162     N
C       0.2185   0.4931  0.01073     C
Zn     0.22188  0.86237  0.97598    Zn
C        0.223   0.4497  0.53273     C
C       0.2235   0.8837    0.721     C
N        0.227   0.3534   0.5291     N
O       0.2313   0.6096   0.4048     O
C       0.2341   0.8662   0.6664     C
N       0.2369   0.9631  0.55094     N
Zn     0.24235  0.81569  0.57575    Zn
N       0.2443   0.4026  0.00358     N
N       0.2557   0.0974  0.50358     N
Zn     0.25765  0.68431  0.07575    Zn
N       0.2631   0.5369  0.05094     N
C       0.2659   0.6338   0.1664     C
O       0.2687   0.8904   0.9048     O
N        0.273   0.1466   0.0291     N
C       0.2765   0.6163    0.221     C
C        0.277   0.0503  0.03273     C
Zn     0.27812  0.63763  0.47598    Zn
C       0.2815   0.0069  0.51073     C
N        0.286   0.5009  0.50162     N
C       0.2949   0.6011   0.3235     C
N       0.2972   0.3398  0.49288     N
C       0.2977   0.8947   0.8025     C
C       0.3069    0.605   0.3798     C
C       0.3084   0.8875    0.751     C
Zn     0.31109  0.20687  0.45608    Zn
N       0.3111   0.3858  0.04055     N
O       0.3186   0.8711  0.64649     O
H       0.3198   0.0201    0.055     H
C       0.3198   0.4678   0.0681     C
H       0.3264   0.9759   0.4899     H
C       0.3305   0.4285   0.4775     C
O       0.3325   0.1488  0.38742     O
O       0.3448   0.6557  0.14066     O
N       0.3527   0.8078  0.99009     N
H        0.355   0.8967   0.8232     H
H       0.3613   0.4764   0.0966     H
N        0.366   0.7339  0.02476     N
C       0.3667   0.2272   0.3637     C
Zn     0.36711  0.25738  0.05428    Zn
H       0.3678   0.0661   0.3058     H
C       0.3686   0.6077   0.2425     C
H       0.3726   0.8852   0.7366     H
O       0.3741   0.2711  0.12655     O
N       0.3743   0.7979  0.53894     N
C       0.3775   0.1247   0.2862     C
C       0.3781   0.5996    0.294     C
H       0.3797   0.4408   0.4525     H
C         0.38   0.2165   0.3084     C
N        0.387   0.7337  0.50035     N
O       0.3873   0.3077  0.38411     O
C       0.3889   0.3009   0.2799     C
C       0.3892   0.1177   0.2353     C
H       0.3904   0.3642   0.2954     H
H       0.3928   0.0543   0.2205     H
O       0.3947   0.5998    0.399     O
C       0.3958   0.2018  0.20555     C
C       0.3958   0.2946   0.2281     C
C       0.3988   0.1946   0.1504     C
H       0.4004   0.3533   0.2084     H
O       0.4201   0.1182  0.12899     O
H        0.426   0.6074   0.2221     H
C       0.4339   0.8166   0.9626     C
H       0.4414   0.5932   0.3085     H
H       0.4447   0.8631   0.9362     H
C       0.4543   0.7033  0.01396     C
N       0.4627   0.2022  0.47558     N
C       0.4655    0.834   0.5522     C
H       0.4788   0.8803   0.5784     H
H       0.4827   0.6517   0.0314     H
C       0.4847   0.7357   0.4931     C
H       0.4857   0.3026   0.5316     H
N       0.4994   0.7529   0.9758     N
N       0.5006   0.2471   0.0242     N
H       0.5143   0.6974   0.4684     H
C       0.5153   0.2643   0.5069     C
H       0.5173   0.3483   0.9686     H
H       0.5212   0.1197   0.4216     H
C       0.5345    0.166   0.4478     C
N       0.5373   0.7978  0.52442     N
C       0.5457   0.2967  0.98604     C
H       0.5553   0.1369   0.0638     H
H       0.5586   0.4068   0.6915     H
C       0.5661   0.1834   0.0374     C
H        0.574   0.3926   0.7779     H
O       0.5799   0.8818  0.87101     O
H       0.5996   0.6467   0.7916     H
C       0.6012   0.8054   0.8496     C
C       0.6042   0.7054   0.7719     C
C       0.6042   0.7982  0.79445     C
O       0.6053   0.4002    0.601     O
H       0.6072   0.9457   0.7795     H
H       0.6096   0.6358   0.7046     H
C       0.6108   0.8823   0.7647     C
C       0.6111   0.6991   0.7201     C
O       0.6127   0.6923  0.61589     O
N        0.613   0.2663  0.49965     N
C         0.62   0.7835   0.6916     C
H       0.6203   0.5592   0.5475     H
C       0.6219   0.4004    0.706     C
C       0.6225   0.8753   0.7138     C
N       0.6257   0.2021  0.46106     N
O       0.6259   0.7289  0.87345     O
H       0.6274   0.1148   0.2634     H
C       0.6314   0.3923   0.7575     C
H       0.6322   0.9339   0.6942     H
Zn     0.63289  0.74262  0.94572    Zn
C       0.6333   0.7728   0.6363     C
N        0.634   0.2661  0.97524     N
H       0.6387   0.5236   0.9034     H
H        0.645   0.1033   0.1768     H
N       0.6473   0.1922  0.00991     N
O       0.6552   0.3443  0.85934     O
O       0.6675   0.8512  0.61258     O
C       0.6695   0.5715   0.5225     C
H       0.6736   0.0241   0.5101     H
C       0.6802   0.5322   0.9319     C
H       0.6802   0.9799    0.945     H
O       0.6814   0.1289  0.35351     O
N       0.6889   0.6142  0.95945     N
Zn     0.68891  0.79313  0.54392    Zn
C       0.6916   0.1125    0.249     C
C       0.6931    0.395   0.6202     C
C       0.7023   0.1053   0.1975     C
N       0.7028   0.6602  0.50712     N
C       0.7051   0.3989   0.6765     C
N        0.714   0.4991  0.49838     N
C       0.7185   0.9931  0.48927     C
Zn     0.72188  0.36237  0.52402    Zn
C        0.723   0.9497  0.96727     C
C       0.7235   0.3837    0.779     C
N        0.727   0.8534   0.9709     N
O       0.7313   0.1096   0.0952     O
C       0.7341   0.3662   0.8336     C
N       0.7369   0.4631  0.94906     N
Zn     0.74235  0.31569  0.92425    Zn
N       0.7443   0.9026  0.49642     N
N       0.7557   0.5974  0.99642     N
Zn     0.75765  0.18431  0.42425    Zn
N       0.7631   0.0369  0.44906     N
C       0.7659   0.1338   0.3336     C
O       0.7687   0.3904   0.5952     O
N        0.773   0.6466   0.4709     N
C       0.7765   0.1163    0.279     C
C        0.777   0.5503  0.46727     C
Zn     0.77812  0.13763  0.02402    Zn
C       0.7815   0.5069  0.98927     C
N        0.786   0.0009  0.99838     N
C       0.7949   0.1011   0.1765     C
N       0.7972   0.8398  0.00712     N
C       0.7977   0.3947   0.6975     C
C       0.8069    0.105   0.1202     C
C       0.8084   0.3875    0.749     C
Zn     0.81109  0.70687  0.04392    Zn
N       0.8111   0.8858  0.45945     N
O       0.8186   0.3711  0.85351     O
H       0.8198   0.5201    0.445     H
C       0.8198   0.9678   0.4319     C
H       0.8264   0.4759   0.0101     H
C       0.8305   0.9285   0.0225     C
O       0.8325   0.6488  0.11258     O
O       0.8448   0.1557  0.35934     O
N       0.8527   0.3078  0.50991     N
H        0.855   0.3967   0.6768     H
H       0.8613   0.9764   0.4034     H
N        0.866   0.2339  0.47524     N
C       0.8667   0.7272   0.1363     C
Zn     0.86711  0.75738  0.44572    Zn
H       0.8678   0.5661   0.1942     H
C       0.8686   0.1077   0.2575     C
H       0.8726   0.3852   0.7634     H
O       0.8741   0.7711  0.37345     O
N       0.8743   0.2979  0.96106     N
C       0.8775   0.6247   0.2138     C
C       0.8781   0.0996    0.206     C
H       0.8797   0.9408   0.0475     H
C         0.88   0.7165   0.1916     C
N        0.887   0.2337  0.99965     N
O       0.8873   0.8077  0.11589     O
C       0.8889   0.8009   0.2201     C
C       0.8892   0.6177   0.2647     C
H       0.8904   0.8642   0.2046     H
H       0.8928   0.5543   0.2795     H
O       0.8947   0.0998    0.101     O
C       0.8958   0.7018  0.29445     C
C       0.8958   0.7946   0.2719     C
C       0.8988   0.6946   0.3496     C
H       0.9004   0.8533   0.2916     H
O       0.9201   0.6182  0.37101     O
H        0.926   0.1074   0.2779     H
C       0.9339   0.3166   0.5374     C
H       0.9414   0.0932   0.1915     H
H       0.9447   0.3631   0.5638     H
C       0.9543   0.2033  0.48604     C
N       0.9627   0.7022  0.02442     N
C       0.9655    0.334   0.9478     C
H       0.9788   0.3803   0.9216     H
H       0.9827   0.1517   0.4686     H
C       0.9847   0.2357   0.0069     C
H       0.9857   0.8026   0.9684     H
N       0.9994   0.2529   0.5242     N
