data_I
_chemical_name_common  '/home/zhangsd/repos/MofS-CGCNN/ML/data/TSD/clean_cifs/LEGGEK_clean'
_cell_length_a  7.79700
_cell_length_b 10.04700
_cell_length_c 13.57700
_cell_angle_alpha 110.18000
_cell_angle_beta  105.46000
_cell_angle_gamma 93.90000
_space_group_name_H-M_alt      'P 1'


loop_
_space_group_symop_operation_xyz
  'x, y, z' 

loop_
_atom_site_label
_atom_site_fract_x
_atom_site_fract_y
_atom_site_fract_z
_atom_site_type_symbol
Zn         0.0      0.5      0.5    Zn
C       0.0188   0.6244    0.092     C
H       0.0322   0.7092   0.1547     H
H       0.0401   0.2667   0.6256     H
C       0.0818   0.9666   0.0906     C
H        0.085   0.8425   0.6322     H
C       0.1039   0.0361   0.9406     C
H       0.1377   0.9442   0.1528     H
O       0.1407   0.0936   0.7902     O
C       0.1515   0.2882   0.6135     C
C       0.1519   0.4576   0.9697     C
C       0.1715   0.5827    0.062     C
N       0.1793   0.3781    0.565     N
C       0.1864    0.002   0.0317     C
C       0.1949   0.8152   0.6213     C
N       0.2114   0.6815   0.5697     N
C       0.2177   0.0755   0.8779     C
H        0.255   0.4289   0.9491     H
N       0.2978   0.2305   0.6438     N
H        0.313   0.0029   0.0532     H
N       0.3511   0.9096   0.6571     N
N       0.3554   0.3789    0.563     N
C       0.3567   0.6715   0.1276     C
O       0.3642   0.7967   0.1991     O
Zn     0.36918  0.12226  0.74478    Zn
O       0.3852   0.0929    0.913     O
N       0.3893   0.6859   0.5714     N
H       0.4098   0.1422   0.3633     H
C       0.4195   0.2902   0.6103     C
H        0.461   0.7294   0.3803     H
C       0.4665   0.8235   0.6239     C
O       0.4932   0.6198   0.1126     O
Zn         0.5      0.5      0.5    Zn
O       0.5068   0.3802   0.8874     O
C       0.5335   0.1765   0.3761     C
H        0.539   0.2706   0.6197     H
C       0.5805   0.7098   0.3897     C
H       0.5902   0.8578   0.6367     H
N       0.6107   0.3141   0.4286     N
O       0.6148   0.9071    0.087     O
Zn     0.63082  0.87774  0.25522    Zn
O       0.6358   0.2033   0.8009     O
C       0.6433   0.3285   0.8724     C
N       0.6446   0.6211    0.437     N
N       0.6489   0.0904   0.3429     N
H        0.687   0.9971   0.9468     H
N       0.7022   0.7695   0.3562     N
H        0.745   0.5711   0.0509     H
C       0.7823   0.9245   0.1221     C
N       0.7886   0.3185   0.4303     N
C       0.8051   0.1848   0.3787     C
C       0.8136    0.998   0.9683     C
N       0.8207   0.6219    0.435     N
C       0.8285   0.4173    0.938     C
C       0.8481   0.5424   0.0303     C
C       0.8485   0.7118   0.3865     C
O       0.8593   0.9064   0.2098     O
H       0.8623   0.0558   0.8472     H
C       0.8961   0.9639   0.0594     C
H        0.915   0.1575   0.3678     H
C       0.9182   0.0334   0.9094     C
H       0.9599   0.7333   0.3744     H
H       0.9678   0.2908   0.8453     H
C       0.9812   0.3756    0.908     C
