data_I
_chemical_name_common  '/home/zhangsd/repos/MofS-CGCNN/ML/data/TSD/clean_cifs/LELMIA_clean'
_cell_length_a  6.00780
_cell_length_b 16.94010
_cell_length_c 13.00610
_cell_angle_alpha 90.00000
_cell_angle_beta  116.15800
_cell_angle_gamma 90.00000
_space_group_name_H-M_alt      'P 1'


loop_
_space_group_symop_operation_xyz
  'x, y, z' 

loop_
_atom_site_label
_atom_site_fract_x
_atom_site_fract_y
_atom_site_fract_z
_atom_site_type_symbol
H       0.0707   0.6908   0.7193     H
H       0.0707   0.8092   0.2193     H
O        0.119  0.58548  0.56977     O
O        0.119  0.91452  0.06977     O
O       0.1786  0.09262  0.18845     O
O       0.1786  0.40738  0.68845     O
Sr     0.18214  0.50053   0.4057    Sr
Sr     0.18214  0.99947   0.9057    Sr
C       0.2091  0.71831   0.7242     C
C       0.2091  0.78169   0.2242     C
H       0.2153    0.686   0.3248     H
H       0.2153    0.814   0.8248     H
C       0.2925  0.71037   0.2851     C
C       0.2925  0.78963   0.7851     C
C       0.3182  0.62306    0.601     C
C       0.3182  0.87694    0.101     C
C        0.353  0.69389   0.6733     C
C        0.353  0.80611   0.1733     C
C       0.3645  0.10591   0.1715     C
C       0.3645  0.39409   0.6715     C
S        0.407  0.24147  0.29953     S
S        0.407  0.25853  0.79953     S
O       0.4481   0.0621  0.11886     O
O       0.4481   0.4379  0.61886     O
O       0.4844  0.60568  0.57123     O
O       0.4844  0.89432  0.07123     O
C       0.4984  0.68086   0.2796     C
C       0.4984  0.81914   0.7796     C
C       0.5016  0.18086   0.2204     C
C       0.5016  0.31914   0.7204     C
O       0.5156  0.10568  0.92877     O
O       0.5156  0.39432  0.42877     O
O       0.5519   0.5621  0.38114     O
O       0.5519   0.9379  0.88114     O
S        0.593  0.74147  0.20047     S
S        0.593  0.75853  0.70047     S
C       0.6355  0.60591   0.3285     C
C       0.6355  0.89409   0.8285     C
C        0.647  0.19389   0.8267     C
C        0.647  0.30611   0.3267     C
C       0.6818  0.12306    0.899     C
C       0.6818  0.37694    0.399     C
C       0.7075  0.21037   0.2149     C
C       0.7075  0.28963   0.7149     C
H       0.7847    0.186   0.1752     H
H       0.7847    0.314   0.6752     H
C       0.7909  0.21831   0.7758     C
C       0.7909  0.28169   0.2758     C
Sr     0.81786  0.00053   0.0943    Sr
Sr     0.81786  0.49947   0.5943    Sr
O       0.8214  0.59262  0.31155     O
O       0.8214  0.90738  0.81155     O
O        0.881  0.08548  0.93023     O
O        0.881  0.41452  0.43023     O
H       0.9293   0.1908   0.7807     H
H       0.9293   0.3092   0.2807     H
