data_I
_chemical_name_common  '/home/zhangsd/repos/MofS-CGCNN/ML/data/TSD/clean_cifs/LIBQIY_clean'
_cell_length_a 30.42650
_cell_length_b 15.60320
_cell_length_c 21.90060
_cell_angle_alpha 90.00000
_cell_angle_beta  133.01600
_cell_angle_gamma 90.00000
_space_group_name_H-M_alt      'P 1'


loop_
_space_group_symop_operation_xyz
  'x, y, z' 

loop_
_atom_site_label
_atom_site_fract_x
_atom_site_fract_y
_atom_site_fract_z
_atom_site_type_symbol
H       0.0109   0.3608   0.9587     H
H       0.0109   0.6392   0.4587     H
O       0.0211   0.2132   0.6157     O
O       0.0211   0.7868   0.1157     O
C       0.0344   0.2061   0.9284     C
C       0.0344   0.7939   0.4284     C
C       0.0529   0.3518    0.994     C
C       0.0529   0.6482    0.494     C
O         0.06   0.1407   0.9305     O
O         0.06   0.8593   0.4305     O
C       0.0744   0.2777    0.987     C
C       0.0744   0.7223    0.487     C
H       0.0792    0.463    0.058     H
H       0.0792    0.537    0.558     H
C       0.0932   0.4118   0.0526     C
C       0.0932   0.5882   0.5526     C
Sm     0.11041  0.13603  0.67475    Sm
Sm     0.11041  0.86397  0.17475    Sm
O       0.1216   0.1171   0.7951     O
O       0.1216   0.8829   0.2951     O
O        0.134   0.0301    0.618     O
O        0.134   0.9699    0.118     O
N       0.1342    0.263   0.0361     N
N       0.1342    0.737   0.5361     N
C       0.1483   0.0558   0.8457     C
C       0.1483   0.9442   0.3457     C
C       0.1547   0.3976   0.1043     C
C       0.1547   0.6024   0.6043     C
O       0.1568   0.0477   0.9095     O
O       0.1568   0.9523   0.4095     O
N       0.1617   0.0006   0.2582     N
N       0.1617   0.9994   0.7582     N
C       0.1625   0.0384   0.1535     C
C       0.1625   0.9616   0.6535     C
Sm     0.16852  0.12747   0.0143    Sm
Sm     0.16852  0.87253   0.5143    Sm
O       0.1726   0.0947   0.1241     O
O       0.1726   0.9053   0.6241     O
C       0.1731   0.3215    0.094     C
C       0.1731   0.6785    0.594     C
C       0.1749   0.0112   0.3297     C
C       0.1749   0.9888   0.8297     C
H       0.1831   0.4384   0.1453     H
H       0.1831   0.5616   0.6453     H
C       0.1848   0.0539   0.2383     C
C       0.1848   0.9461   0.7383     C
C       0.2126   0.0755    0.384     C
C       0.2126   0.9245    0.884     C
H       0.2204   0.0839   0.4336     H
H       0.2204   0.9161   0.9336     H
O       0.2224   0.1534   0.7951     O
O       0.2224   0.8466   0.2951     O
C       0.2255   0.1166   0.2921     C
C       0.2255   0.8834   0.7921     C
H       0.2334   0.3282   0.5956     H
H       0.2334   0.6718   0.0956     H
C        0.238   0.2976   0.1465     C
C        0.238   0.7024   0.6465     C
C       0.2393   0.1283   0.3663     C
C       0.2393   0.8717   0.8663     C
H       0.2438    0.151   0.2787     H
H       0.2438    0.849   0.7787     H
O       0.2476    0.228   0.1287     O
O       0.2476    0.772   0.6287     O
O       0.2524    0.272   0.8713     O
O       0.2524    0.728   0.3713     O
H       0.2562    0.349   0.7213     H
H       0.2562    0.651   0.2213     H
C       0.2607   0.3717   0.6337     C
C       0.2607   0.6283   0.1337     C
C        0.262   0.2024   0.8535     C
C        0.262   0.7976   0.3535     C
H       0.2666   0.1718   0.4044     H
H       0.2666   0.8282   0.9044     H
C       0.2745   0.3834   0.7079     C
C       0.2745   0.6166   0.2079     C
O       0.2776   0.3466   0.2049     O
O       0.2776   0.6534   0.7049     O
H       0.2796   0.4161   0.5664     H
H       0.2796   0.5839   0.0664     H
C       0.2874   0.4245    0.616     C
C       0.2874   0.5755    0.116     C
C       0.3152   0.4461   0.7617     C
C       0.3152   0.5539   0.2617     C
H       0.3169   0.0616   0.8547     H
H       0.3169   0.9384   0.3547     H
C       0.3251   0.4888   0.6703     C
C       0.3251   0.5112   0.1703     C
C       0.3269   0.1785    0.906     C
C       0.3269   0.8215    0.406     C
O       0.3274   0.4053   0.8759     O
O       0.3274   0.5947   0.3759     O
Sm     0.33148  0.37253   0.9857    Sm
Sm     0.33148  0.62747   0.4857    Sm
C       0.3375   0.4616   0.8465     C
C       0.3375   0.5384   0.3465     C
N       0.3383   0.4994   0.7418     N
N       0.3383   0.5006   0.2418     N
O       0.3432   0.4523   0.0905     O
O       0.3432   0.5477   0.5905     O
C       0.3453   0.1024   0.8957     C
C       0.3453   0.8976   0.3957     C
C       0.3517   0.4442   0.1543     C
C       0.3517   0.5558   0.6543     C
N       0.3658    0.237   0.9639     N
N       0.3658    0.763   0.4639     N
O        0.366   0.4699    0.382     O
O        0.366   0.5301    0.882     O
O       0.3784   0.3829   0.2049     O
O       0.3784   0.6171   0.7049     O
Sm     0.38959  0.36397  0.32525    Sm
Sm     0.38959  0.63603  0.82525    Sm
C       0.4068   0.0882   0.9474     C
C       0.4068   0.9118   0.4474     C
H       0.4208    0.037    0.942     H
H       0.4208    0.963    0.442     H
C       0.4256   0.2223    0.013     C
C       0.4256   0.7777    0.513     C
O         0.44   0.3593   0.0695     O
O         0.44   0.6407   0.5695     O
C       0.4471   0.1482    0.006     C
C       0.4471   0.8518    0.506     C
C       0.4656   0.2939   0.0716     C
C       0.4656   0.7061   0.5716     C
O       0.4789   0.2868   0.3843     O
O       0.4789   0.7132   0.8843     O
H       0.4891   0.1392   0.0413     H
H       0.4891   0.8608   0.5413     H
H       0.5109   0.1392   0.4587     H
H       0.5109   0.8608   0.9587     H
O       0.5211   0.2868   0.1157     O
O       0.5211   0.7132   0.6157     O
C       0.5344   0.2939   0.4284     C
C       0.5344   0.7061   0.9284     C
C       0.5529   0.1482    0.494     C
C       0.5529   0.8518    0.994     C
O         0.56   0.3593   0.4305     O
O         0.56   0.6407   0.9305     O
C       0.5744   0.2223    0.487     C
C       0.5744   0.7777    0.987     C
H       0.5792    0.037    0.558     H
H       0.5792    0.963    0.058     H
C       0.5932   0.0882   0.5526     C
C       0.5932   0.9118   0.0526     C
Sm     0.61041  0.36397  0.17475    Sm
Sm     0.61041  0.63603  0.67475    Sm
O       0.6216   0.3829   0.2951     O
O       0.6216   0.6171   0.7951     O
O        0.634   0.4699    0.118     O
O        0.634   0.5301    0.618     O
N       0.6342    0.237   0.5361     N
N       0.6342    0.763   0.0361     N
C       0.6483   0.4442   0.3457     C
C       0.6483   0.5558   0.8457     C
C       0.6547   0.1024   0.6043     C
C       0.6547   0.8976   0.1043     C
O       0.6568   0.4523   0.4095     O
O       0.6568   0.5477   0.9095     O
N       0.6617   0.4994   0.7582     N
N       0.6617   0.5006   0.2582     N
C       0.6625   0.4616   0.6535     C
C       0.6625   0.5384   0.1535     C
Sm     0.66852  0.37253   0.5143    Sm
Sm     0.66852  0.62747   0.0143    Sm
O       0.6726   0.4053   0.6241     O
O       0.6726   0.5947   0.1241     O
C       0.6731   0.1785    0.594     C
C       0.6731   0.8215    0.094     C
C       0.6749   0.4888   0.8297     C
C       0.6749   0.5112   0.3297     C
H       0.6831   0.0616   0.6453     H
H       0.6831   0.9384   0.1453     H
C       0.6848   0.4461   0.7383     C
C       0.6848   0.5539   0.2383     C
C       0.7126   0.4245    0.884     C
C       0.7126   0.5755    0.384     C
H       0.7204   0.4161   0.9336     H
H       0.7204   0.5839   0.4336     H
O       0.7224   0.3466   0.2951     O
O       0.7224   0.6534   0.7951     O
C       0.7255   0.3834   0.7921     C
C       0.7255   0.6166   0.2921     C
H       0.7334   0.1718   0.0956     H
H       0.7334   0.8282   0.5956     H
C        0.738   0.2024   0.6465     C
C        0.738   0.7976   0.1465     C
C       0.7393   0.3717   0.8663     C
C       0.7393   0.6283   0.3663     C
H       0.7438    0.349   0.7787     H
H       0.7438    0.651   0.2787     H
O       0.7476    0.272   0.6287     O
O       0.7476    0.728   0.1287     O
O       0.7524    0.228   0.3713     O
O       0.7524    0.772   0.8713     O
H       0.7562    0.151   0.2213     H
H       0.7562    0.849   0.7213     H
C       0.7607   0.1283   0.1337     C
C       0.7607   0.8717   0.6337     C
C        0.762   0.2976   0.3535     C
C        0.762   0.7024   0.8535     C
H       0.7666   0.3282   0.9044     H
H       0.7666   0.6718   0.4044     H
C       0.7745   0.1166   0.2079     C
C       0.7745   0.8834   0.7079     C
O       0.7776   0.1534   0.7049     O
O       0.7776   0.8466   0.2049     O
H       0.7796   0.0839   0.0664     H
H       0.7796   0.9161   0.5664     H
C       0.7874   0.0755    0.116     C
C       0.7874   0.9245    0.616     C
C       0.8152   0.0539   0.2617     C
C       0.8152   0.9461   0.7617     C
H       0.8169   0.4384   0.3547     H
H       0.8169   0.5616   0.8547     H
C       0.8251   0.0112   0.1703     C
C       0.8251   0.9888   0.6703     C
C       0.8269   0.3215    0.406     C
C       0.8269   0.6785    0.906     C
O       0.8274   0.0947   0.3759     O
O       0.8274   0.9053   0.8759     O
Sm     0.83148  0.12747   0.4857    Sm
Sm     0.83148  0.87253   0.9857    Sm
C       0.8375   0.0384   0.3465     C
C       0.8375   0.9616   0.8465     C
N       0.8383   0.0006   0.2418     N
N       0.8383   0.9994   0.7418     N
O       0.8432   0.0477   0.5905     O
O       0.8432   0.9523   0.0905     O
C       0.8453   0.3976   0.3957     C
C       0.8453   0.6024   0.8957     C
C       0.8517   0.0558   0.6543     C
C       0.8517   0.9442   0.1543     C
N       0.8658    0.263   0.4639     N
N       0.8658    0.737   0.9639     N
O        0.866   0.0301    0.882     O
O        0.866   0.9699    0.382     O
O       0.8784   0.1171   0.7049     O
O       0.8784   0.8829   0.2049     O
Sm     0.88959  0.13603  0.82525    Sm
Sm     0.88959  0.86397  0.32525    Sm
C       0.9068   0.4118   0.4474     C
C       0.9068   0.5882   0.9474     C
H       0.9208    0.463    0.442     H
H       0.9208    0.537    0.942     H
C       0.9256   0.2777    0.513     C
C       0.9256   0.7223    0.013     C
O         0.94   0.1407   0.5695     O
O         0.94   0.8593   0.0695     O
C       0.9471   0.3518    0.506     C
C       0.9471   0.6482    0.006     C
C       0.9656   0.2061   0.5716     C
C       0.9656   0.7939   0.0716     C
O       0.9789   0.2132   0.8843     O
O       0.9789   0.7868   0.3843     O
H       0.9891   0.3608   0.5413     H
H       0.9891   0.6392   0.0413     H
