data_I
_chemical_name_common  '/home/zhangsd/repos/MofS-CGCNN/ML/data/TSD/clean_cifs/LIHRIE_clean'
_cell_length_a  6.81190
_cell_length_b  7.31830
_cell_length_c 13.78460
_cell_angle_alpha 90.00000
_cell_angle_beta  90.00000
_cell_angle_gamma 90.00000
_space_group_name_H-M_alt      'P 1'


loop_
_space_group_symop_operation_xyz
  'x, y, z' 

loop_
_atom_site_label
_atom_site_fract_x
_atom_site_fract_y
_atom_site_fract_z
_atom_site_type_symbol
Zn         0.0      0.0      0.0    Zn
Zn         0.0      0.5      0.5    Zn
H       0.0386   0.1379   0.7668     H
H       0.0386   0.6379   0.7332     H
C       0.0942   0.3728  0.28702     C
C       0.0942   0.8728  0.21298     C
N       0.1487   0.4195   0.3754     N
N       0.1487   0.9195   0.1246     N
O         0.25   0.1489  0.97354     O
H         0.25    0.209    0.931     H
Zn        0.25  0.31737  0.08624    Zn
N         0.25    0.342  0.22866     N
O         0.25   0.6489  0.52646     O
H         0.25    0.709    0.569     H
Zn        0.25  0.81737  0.41376    Zn
N         0.25    0.842  0.27134     N
N       0.3513   0.4195   0.3754     N
N       0.3513   0.9195   0.1246     N
C       0.4058   0.3728  0.28702     C
C       0.4058   0.8728  0.21298     C
H       0.4614   0.1379   0.7668     H
H       0.4614   0.6379   0.7332     H
Zn         0.5      0.0      0.0    Zn
Zn         0.5      0.5      0.5    Zn
H       0.5386   0.3621   0.2668     H
H       0.5386   0.8621   0.2332     H
C       0.5942   0.1272  0.78702     C
C       0.5942   0.6272  0.71298     C
N       0.6487   0.0805   0.8754     N
N       0.6487   0.5805   0.6246     N
N         0.75    0.158  0.72866     N
Zn        0.75  0.18263  0.58624    Zn
H         0.75    0.291    0.431     H
O         0.75   0.3511  0.47354     O
N         0.75    0.658  0.77134     N
Zn        0.75  0.68263  0.91376    Zn
H         0.75    0.791    0.069     H
O         0.75   0.8511  0.02646     O
N       0.8513   0.0805   0.8754     N
N       0.8513   0.5805   0.6246     N
C       0.9058   0.1272  0.78702     C
C       0.9058   0.6272  0.71298     C
H       0.9614   0.3621   0.2668     H
H       0.9614   0.8621   0.2332     H
