data_I
_chemical_name_common  '/home/zhangsd/repos/MofS-CGCNN/ML/data/TSD/clean_cifs/LIJNOJ_clean'
_cell_length_a 17.58110
_cell_length_b 14.09780
_cell_length_c 18.78710
_cell_angle_alpha 90.00000
_cell_angle_beta  97.72300
_cell_angle_gamma 90.00000
_space_group_name_H-M_alt      'P 1'


loop_
_space_group_symop_operation_xyz
  'x, y, z' 

loop_
_atom_site_label
_atom_site_fract_x
_atom_site_fract_y
_atom_site_fract_z
_atom_site_type_symbol
C      0.00395  0.67681  0.93185     C
C      0.00395  0.82319  0.43185     C
C      0.00782  0.70423  0.34112     C
C      0.00782  0.79577  0.84112     C
C      0.02133  0.63041  0.22243     C
C      0.02133  0.86959  0.72243     C
H       0.0277    0.155   0.2959     H
H       0.0277    0.345   0.7959     H
H       0.0307   0.6321   0.9638     H
H       0.0307   0.8679   0.4638     H
C      0.03217  0.56676  0.09905     C
C      0.03217  0.93324  0.59905     C
H       0.0339   0.5437   0.7113     H
H       0.0339   0.9563   0.2113     H
O      0.03598  0.09341  0.42025     O
O      0.03598  0.40659  0.92025     O
C      0.04558  0.73182  0.89032     C
C      0.04558  0.76818  0.39032     C
C      0.05095  0.64671   0.2939     C
C      0.05095  0.85329   0.7939     C
C       0.0626  0.57856  0.17746     C
C       0.0626  0.92144  0.67746     C
C       0.0719  0.19815  0.16189     C
C       0.0719  0.30185  0.66189     C
N      0.07258  0.18314   0.5705     N
N      0.07258  0.31686   0.0705     N
O      0.07675  0.53326  0.05861     O
O      0.07675  0.96674  0.55861     O
C      0.08354  0.56733  0.72859     C
C      0.08354  0.93267  0.22859     C
H       0.0878   0.5141     0.83     H
H       0.0878   0.9859     0.33     H
H       0.0989   0.2499   0.3896     H
H       0.0989   0.2501   0.8896     H
H       0.0999   0.7262   0.8952     H
H       0.0999   0.7738   0.3952     H
H       0.1004   0.1555   0.1944     H
H       0.1004   0.3445   0.6944     H
H       0.1012   0.6319   0.6356     H
H       0.1012   0.8681   0.1356     H
C      0.10892  0.24556  0.61732     C
C      0.10892  0.25444  0.11732     C
C      0.11557  0.54982   0.7992     C
C      0.11557  0.95018   0.2992     C
C      0.12275  0.60913  0.32057     C
C      0.12275  0.89087  0.82057     C
C      0.12388  0.61909  0.68345     C
C      0.12388  0.88091  0.18345     C
Mn     0.13245  0.07668  0.50518    Mn
Mn     0.13245  0.42332  0.00518    Mn
C      0.13384  0.54073  0.20491     C
C      0.13384  0.95927  0.70491     C
H       0.1439   0.6204   0.3691     H
H       0.1439   0.8796   0.8691     H
H       0.1522   0.7162   0.1086     H
H       0.1522   0.7838   0.6086     H
C      0.15343  0.24978  0.89536     C
C      0.15343  0.25022  0.39536     C
H       0.1598   0.1537   0.8158     H
H       0.1598   0.3463   0.3158     H
H       0.1624   0.5049   0.1748     H
H       0.1624   0.9951   0.6748     H
C      0.16282  0.55584  0.27667     C
C      0.16282  0.94416  0.77667     C
H       0.1631   0.2488   0.1199     H
H       0.1631   0.2512   0.6199     H
O      0.18087  0.52675  0.94221     O
O      0.18087  0.97325  0.44221     O
C      0.18821  0.58453  0.82473     C
C      0.18821  0.91547  0.32473     C
C      0.18935  0.19151  0.85107     C
C      0.18935  0.30849  0.35107     C
N      0.19123  0.19374  0.44635     N
N      0.19123  0.30626  0.94635     N
C       0.1977  0.65274  0.70764     C
C       0.1977  0.84726  0.20764     C
C       0.2059  0.72655  0.11127     C
C       0.2059  0.77345  0.61127     C
H       0.2109    0.529   0.2956     H
H       0.2109    0.971   0.7956     H
C      0.22216  0.56765  0.90228     C
C      0.22216  0.93235  0.40228     C
H       0.2225   0.6292   0.0367     H
H       0.2225   0.8708   0.5367     H
O      0.22508  0.08999  0.59348     O
O      0.22508  0.41001  0.09348     O
C      0.22875   0.6352  0.77884     C
C      0.22875   0.8648  0.27884     C
H       0.2368   0.1512   0.7191     H
H       0.2368   0.3488   0.2191     H
C      0.24174  0.70633  0.65887     C
C      0.24174  0.79367  0.15887     C
C      0.24831  0.67523  0.06814     C
C      0.24831  0.82477  0.56814     C
H       0.2515   0.0812   0.2154     H
H       0.2515   0.4188   0.7154     H
C      0.26823  0.19814  0.45403     C
C      0.26823  0.30186  0.95403     C
C      0.26989  0.18851  0.85853     C
C      0.26989  0.31149  0.35853     C
H       0.2785   0.6584   0.7962     H
H       0.2785   0.8416   0.2962     H
C       0.2839   0.1217  0.73757     C
C       0.2839   0.3783  0.23757     C
O      0.28924  0.59754  0.92076     O
O      0.28924  0.90246  0.42076     O
C        0.293  0.06211   0.6122     C
C        0.293  0.43789   0.1122     C
H       0.2966   0.1596   0.4897     H
H       0.2966   0.3404   0.9897     H
C      0.30291  0.10052  0.23036     C
C      0.30291  0.39948  0.73036     C
C      0.30805  0.24438  0.91292     C
C      0.30805  0.25562  0.41292     C
H       0.3099   0.0462   0.3317     H
H       0.3099   0.4538   0.8317     H
C      0.31211   0.1313  0.81039     C
C      0.31211   0.3687  0.31039     C
H       0.3182   0.1649   0.1363     H
H       0.3182   0.3351   0.6363     H
C      0.32002  0.69276  0.65802     C
C      0.32002  0.80724  0.15802     C
C      0.32384  0.06943  0.69165     C
C      0.32384  0.43057  0.19165     C
N      0.32434  0.68674  0.06803     N
N      0.32434  0.81326  0.56803     N
O      0.33678  0.02969  0.57088     O
O      0.33678  0.47031  0.07088     O
C      0.33791  0.07882  0.29933     C
C      0.33791  0.42118  0.79933     C
C      0.34262  0.15024  0.18323     C
C      0.34262  0.34976  0.68323     C
H        0.347   0.6466   0.6885     H
H        0.347   0.8534   0.1885     H
C       0.3585  0.74671  0.61276     C
C       0.3585  0.75329  0.11276     C
H       0.3625   0.2428   0.9218     H
H       0.3625   0.2572   0.4218     H
C      0.38121  0.08606  0.83667     C
C      0.38121  0.41394  0.33667     C
Mn     0.38458  0.57083  0.00538    Mn
Mn     0.38458  0.92917  0.50538    Mn
C      0.39228  0.02465  0.71883     C
C      0.39228  0.47535  0.21883     C
H       0.4013   0.0919    0.886     H
H       0.4013   0.4081    0.386     H
H       0.4056   0.6055   0.8435     H
H       0.4056   0.8945   0.3435     H
H       0.4117   0.1787   0.0603     H
H       0.4117   0.3213   0.5603     H
H       0.4119   0.7362   0.6133     H
H       0.4119   0.7638   0.1133     H
O      0.41212  0.04595  0.43935     O
O      0.41212  0.45405  0.93935     O
C      0.41376  0.10484  0.32099     C
C      0.41376  0.39516  0.82099     C
C      0.41855  0.17881  0.20465     C
C      0.41855  0.32119  0.70465     C
H       0.4196   0.5115   0.1879     H
H       0.4196   0.9885   0.6879     H
C      0.42051  0.03296  0.79146     C
C      0.42051  0.46704  0.29146     C
C      0.44314  0.65001  0.86337     C
C      0.44314  0.84999  0.36337     C
C      0.44909  0.22242  0.08177     C
C      0.44909  0.27758  0.58177     C
C      0.45275  0.07962  0.39576     C
C      0.45275  0.42038  0.89576     C
C      0.45332  0.15457  0.27356     C
C      0.45332  0.34543  0.77356     C
N      0.45411  0.66195  0.93516     N
N      0.45411  0.83805  0.43516     N
C      0.46143   0.2335  0.15592     C
C      0.46143   0.2665  0.65592     C
H        0.467    0.002   0.8101     H
H        0.467    0.498   0.3101     H
H        0.474   0.6871    0.767     H
H        0.474   0.8129    0.267     H
O      0.47628   0.5963  0.09164     O
O      0.47628   0.9037  0.59164     O
H       0.4819   0.2328   0.4888     H
H       0.4819   0.2672   0.9888     H
C      0.48351  0.69906   0.8172     C
C      0.48351  0.80094   0.3172     C
C      0.49177  0.22435  0.53935     C
C      0.49177  0.27565  0.03935     C
H       0.4949   0.6725   0.2117     H
H       0.4949   0.8275   0.7117     H
H       0.5051   0.1725   0.2883     H
H       0.5051   0.3275   0.7883     H
C      0.50823  0.72435  0.96065     C
C      0.50823  0.77565  0.46065     C
C      0.51649  0.19906   0.6828     C
C      0.51649  0.30094   0.1828     C
H       0.5181   0.7328   0.0112     H
H       0.5181   0.7672   0.5112     H
O      0.52372   0.0963  0.40836     O
O      0.52372   0.4037  0.90836     O
H        0.526   0.1871    0.733     H
H        0.526   0.3129    0.233     H
H        0.533    0.502   0.6899     H
H        0.533    0.998   0.1899     H
C      0.53857   0.7335  0.34408     C
C      0.53857   0.7665  0.84408     C
N      0.54589  0.16195  0.56484     N
N      0.54589  0.33805  0.06484     N
C      0.54668  0.65457  0.22644     C
C      0.54668  0.84543  0.72644     C
C      0.54725  0.57962  0.10424     C
C      0.54725  0.92038  0.60424     C
C      0.55091  0.72242  0.41823     C
C      0.55091  0.77758  0.91823     C
C      0.55686  0.15001  0.63663     C
C      0.55686  0.34999  0.13663     C
C      0.57949  0.53296  0.70854     C
C      0.57949  0.96704  0.20854     C
H       0.5804   0.0115   0.3121     H
H       0.5804   0.4885   0.8121     H
C      0.58145  0.67881  0.29535     C
C      0.58145  0.82119  0.79535     C
C      0.58624  0.60484  0.17901     C
C      0.58624  0.89516  0.67901     C
O      0.58788  0.54595  0.06065     O
O      0.58788  0.95405  0.56065     O
H       0.5881   0.2362   0.8867     H
H       0.5881   0.2638   0.3867     H
H       0.5883   0.6787   0.4397     H
H       0.5883   0.8213   0.9397     H
H       0.5944   0.1055   0.6565     H
H       0.5944   0.3945   0.1565     H
H       0.5987   0.5919    0.614     H
H       0.5987   0.9081    0.114     H
C      0.60772  0.52465  0.78117     C
C      0.60772  0.97535  0.28117     C
Mn     0.61542  0.07083  0.49462    Mn
Mn     0.61542  0.42917  0.99462    Mn
C      0.61879  0.58606  0.66333     C
C      0.61879  0.91394  0.16333     C
H       0.6375   0.7428   0.5782     H
H       0.6375   0.7572   0.0782     H
C       0.6415  0.24671  0.88724     C
C       0.6415  0.25329  0.38724     C
H        0.653   0.1466   0.8115     H
H        0.653   0.3534   0.3115     H
C      0.65738  0.65024  0.31677     C
C      0.65738  0.84976  0.81677     C
C      0.66209  0.57882  0.20067     C
C      0.66209  0.92118  0.70067     C
O      0.66322  0.52969  0.92912     O
O      0.66322  0.97031  0.42912     O
N      0.67566  0.18674  0.43197     N
N      0.67566  0.31326  0.93197     N
C      0.67616  0.56943  0.80835     C
C      0.67616  0.93057  0.30835     C
C      0.67998  0.19276  0.84198     C
C      0.67998  0.30724  0.34198     C
H       0.6818   0.6649   0.3637     H
H       0.6818   0.8351   0.8637     H
C      0.68789   0.6313  0.68961     C
C      0.68789   0.8687  0.18961     C
H       0.6901   0.5462   0.1683     H
H       0.6901   0.9538   0.6683     H
C      0.69195  0.74438  0.58708     C
C      0.69195  0.75562  0.08708     C
C      0.69709  0.60052  0.26964     C
C      0.69709  0.89948  0.76964     C
H       0.7034   0.6596   0.0103     H
H       0.7034   0.8404   0.5103     H
C        0.707  0.56211   0.8878     C
C        0.707  0.93789   0.3878     C
O      0.71076  0.09754  0.57924     O
O      0.71076  0.40246  0.07924     O
C       0.7161   0.6217  0.76243     C
C       0.7161   0.8783  0.26243     C
H       0.7215   0.1584   0.7038     H
H       0.7215   0.3416   0.2038     H
C      0.73011  0.68851  0.64147     C
C      0.73011  0.81149  0.14147     C
C      0.73177  0.69814  0.04597     C
C      0.73177  0.80186  0.54597     C
H       0.7485   0.5812   0.2846     H
H       0.7485   0.9188   0.7846     H
C      0.75169  0.17523  0.43186     C
C      0.75169  0.32477  0.93186     C
C      0.75826  0.20633  0.84113     C
C      0.75826  0.29367  0.34113     C
H       0.7632   0.6512   0.7809     H
H       0.7632   0.8488   0.2809     H
C      0.77125   0.1352  0.72116     C
C      0.77125   0.3648  0.22116     C
O      0.77492  0.58999  0.90652     O
O      0.77492  0.91001  0.40652     O
H       0.7775   0.1292   0.4633     H
H       0.7775   0.3708   0.9633     H
C      0.77784  0.06765  0.59772     C
C      0.77784  0.43235  0.09772     C
H       0.7891    0.029   0.2044     H
H       0.7891    0.471   0.7044     H
C       0.7941  0.22655  0.38873     C
C       0.7941  0.27345  0.88873     C
C       0.8023  0.15274  0.79236     C
C       0.8023  0.34726  0.29236     C
N      0.80877  0.69374  0.05365     N
N      0.80877  0.80626  0.55365     N
C      0.81065  0.69151  0.64893     C
C      0.81065  0.80849  0.14893     C
C      0.81179  0.08453  0.67527     C
C      0.81179  0.41547  0.17527     C
O      0.81913  0.02675  0.55779     O
O      0.81913  0.47325  0.05779     O
H       0.8369   0.7488   0.3801     H
H       0.8369   0.7512   0.8801     H
C      0.83718  0.05584  0.22333     C
C      0.83718  0.44416  0.72333     C
H       0.8376   0.0049   0.3252     H
H       0.8376   0.4951   0.8252     H
H       0.8402   0.6537   0.6842     H
H       0.8402   0.8463   0.1842     H
C      0.84657  0.74978  0.60464     C
C      0.84657  0.75022  0.10464     C
H       0.8478   0.2162   0.3914     H
H       0.8478   0.2838   0.8914     H
H       0.8561   0.1204   0.1309     H
H       0.8561   0.3796   0.6309     H
C      0.86616  0.04073  0.29509     C
C      0.86616  0.45927  0.79509     C
Mn     0.86755  0.57668  0.99482    Mn
Mn     0.86755  0.92332  0.49482    Mn
C      0.87612  0.11909  0.81655     C
C      0.87612  0.38091  0.31655     C
C      0.87725  0.10913  0.17943     C
C      0.87725  0.39087  0.67943     C
C      0.88443  0.04982   0.7008     C
C      0.88443  0.45018   0.2008     C
C      0.89108  0.74556  0.88268     C
C      0.89108  0.75444  0.38268     C
H       0.8988   0.1319   0.8644     H
H       0.8988   0.3681   0.3644     H
H       0.8996   0.6555   0.3056     H
H       0.8996   0.8445   0.8056     H
H       0.9001   0.2262   0.6048     H
H       0.9001   0.2738   0.1048     H
H       0.9011   0.7499   0.1104     H
H       0.9011   0.7501   0.6104     H
H       0.9122   0.0141     0.67     H
H       0.9122   0.4859     0.17     H
C      0.91646  0.06733  0.77141     C
C      0.91646  0.43267  0.27141     C
O      0.92325  0.03326  0.44139     O
O      0.92325  0.46674  0.94139     O
N      0.92742  0.68314   0.9295     N
N      0.92742  0.81686   0.4295     N
C       0.9281  0.69815  0.33811     C
C       0.9281  0.80185  0.83811     C
C       0.9374  0.07856  0.32254     C
C       0.9374  0.42144  0.82254     C
C      0.94905  0.14671   0.2061     C
C      0.94905  0.35329   0.7061     C
C      0.95442  0.23182  0.60968     C
C      0.95442  0.26818  0.10968     C
O      0.96402  0.59341  0.07975     O
O      0.96402  0.90659  0.57975     O
H       0.9661   0.0437   0.7887     H
H       0.9661   0.4563   0.2887     H
C      0.96783  0.06676  0.40095     C
C      0.96783  0.43324  0.90095     C
H       0.9693   0.1321   0.5362     H
H       0.9693   0.3679   0.0362     H
H       0.9723    0.655   0.2041     H
H       0.9723    0.845   0.7041     H
C      0.97867  0.13041  0.27757     C
C      0.97867  0.36959  0.77757     C
C      0.99218  0.20423  0.15888     C
C      0.99218  0.29577  0.65888     C
C      0.99605  0.17681  0.56815     C
C      0.99605  0.32319  0.06815     C
