data_I
_chemical_name_common  '/home/zhangsd/repos/MofS-CGCNN/ML/data/TSD/clean_cifs/LIKDOA_clean'
_cell_length_a 33.61670
_cell_length_b 33.61670
_cell_length_c 33.61670
_cell_angle_alpha 90.00000
_cell_angle_beta  90.00000
_cell_angle_gamma 90.00000
_space_group_name_H-M_alt      'P 1'


loop_
_space_group_symop_operation_xyz
  'x, y, z' 

loop_
_atom_site_label
_atom_site_fract_x
_atom_site_fract_y
_atom_site_fract_z
_atom_site_type_symbol
Cu         0.0  0.22384  0.27616    Cu
Cu         0.0  0.22384  0.72384    Cu
Cu         0.0  0.27616  0.22384    Cu
Cu         0.0  0.27616  0.77616    Cu
Cu         0.0  0.72384  0.22384    Cu
Cu         0.0  0.72384  0.77616    Cu
Cu         0.0  0.77616  0.27616    Cu
Cu         0.0  0.77616  0.72384    Cu
O       0.0394   0.1999  0.24466     O
O       0.0394   0.1999  0.75534     O
O       0.0394  0.24466   0.1999     O
O       0.0394  0.24466   0.8001     O
O       0.0394  0.25534   0.3001     O
O       0.0394  0.25534   0.6999     O
O       0.0394   0.3001  0.25534     O
O       0.0394   0.3001  0.74466     O
O       0.0394   0.6999  0.25534     O
O       0.0394   0.6999  0.74466     O
O       0.0394  0.74466   0.3001     O
O       0.0394  0.74466   0.6999     O
O       0.0394  0.75534   0.1999     O
O       0.0394  0.75534   0.8001     O
O       0.0394   0.8001  0.24466     O
O       0.0394   0.8001  0.75534     O
C       0.0576   0.2135   0.2135     C
C       0.0576   0.2135   0.7865     C
C       0.0576   0.2865   0.2865     C
C       0.0576   0.2865   0.7135     C
C       0.0576   0.7135   0.2865     C
C       0.0576   0.7135   0.7135     C
C       0.0576   0.7865   0.2135     C
C       0.0576   0.7865   0.7865     C
C        0.092  0.19354  0.19354     C
C        0.092  0.19354  0.80646     C
C        0.092  0.30646  0.30646     C
C        0.092  0.30646  0.69354     C
C        0.092  0.69354  0.30646     C
C        0.092  0.69354  0.69354     C
C        0.092  0.80646  0.19354     C
C        0.092  0.80646  0.80646     C
C       0.1073  0.15737   0.2098     C
C       0.1073  0.15737   0.7902     C
C       0.1073   0.2098  0.15737     C
C       0.1073   0.2098  0.84263     C
C       0.1073   0.2902  0.34263     C
C       0.1073   0.2902  0.65737     C
C       0.1073  0.34263   0.2902     C
C       0.1073  0.34263   0.7098     C
C       0.1073  0.65737   0.2902     C
C       0.1073  0.65737   0.7098     C
C       0.1073   0.7098  0.34263     C
C       0.1073   0.7098  0.65737     C
C       0.1073   0.7902  0.15737     C
C       0.1073   0.7902  0.84263     C
C       0.1073  0.84263   0.2098     C
C       0.1073  0.84263   0.7902     C
C       0.1412   0.1412   0.1922     C
C       0.1412   0.1412   0.8078     C
C       0.1412   0.1922   0.1412     C
C       0.1412   0.1922   0.8588     C
C       0.1412   0.3078   0.3588     C
C       0.1412   0.3078   0.6412     C
C       0.1412   0.3588   0.3078     C
C       0.1412   0.3588   0.6922     C
C       0.1412   0.6412   0.3078     C
C       0.1412   0.6412   0.6922     C
C       0.1412   0.6922   0.3588     C
C       0.1412   0.6922   0.6412     C
C       0.1412   0.8078   0.1412     C
C       0.1412   0.8078   0.8588     C
C       0.1412   0.8588   0.1922     C
C       0.1412   0.8588   0.8078     C
C       0.1566   0.1566   0.1566     C
C       0.1566   0.1566   0.8434     C
C       0.1566   0.3434   0.3434     C
C       0.1566   0.3434   0.6566     C
C       0.1566   0.6566   0.3434     C
C       0.1566   0.6566   0.6566     C
C       0.1566   0.8434   0.1566     C
C       0.1566   0.8434   0.8434     C
C      0.15737   0.1073   0.2098     C
C      0.15737   0.1073   0.7902     C
C      0.15737   0.2098   0.1073     C
C      0.15737   0.2098   0.8927     C
C      0.15737   0.2902   0.3927     C
C      0.15737   0.2902   0.6073     C
C      0.15737   0.3927   0.2902     C
C      0.15737   0.3927   0.7098     C
C      0.15737   0.6073   0.2902     C
C      0.15737   0.6073   0.7098     C
C      0.15737   0.7098   0.3927     C
C      0.15737   0.7098   0.6073     C
C      0.15737   0.7902   0.1073     C
C      0.15737   0.7902   0.8927     C
C      0.15737   0.8927   0.2098     C
C      0.15737   0.8927   0.7902     C
C       0.1922   0.1412   0.1412     C
C       0.1922   0.1412   0.8588     C
C       0.1922   0.3588   0.3588     C
C       0.1922   0.3588   0.6412     C
C       0.1922   0.6412   0.3588     C
C       0.1922   0.6412   0.6412     C
C       0.1922   0.8588   0.1412     C
C       0.1922   0.8588   0.8588     C
C      0.19354    0.092  0.19354     C
C      0.19354    0.092  0.80646     C
C      0.19354  0.19354    0.092     C
C      0.19354  0.19354    0.908     C
C      0.19354  0.30646    0.408     C
C      0.19354  0.30646    0.592     C
C      0.19354    0.408  0.30646     C
C      0.19354    0.408  0.69354     C
C      0.19354    0.592  0.30646     C
C      0.19354    0.592  0.69354     C
C      0.19354  0.69354    0.408     C
C      0.19354  0.69354    0.592     C
C      0.19354  0.80646    0.092     C
C      0.19354  0.80646    0.908     C
C      0.19354    0.908  0.19354     C
C      0.19354    0.908  0.80646     C
O       0.1999   0.0394  0.24466     O
O       0.1999   0.0394  0.75534     O
O       0.1999  0.24466   0.0394     O
O       0.1999  0.24466   0.9606     O
O       0.1999  0.25534   0.4606     O
O       0.1999  0.25534   0.5394     O
O       0.1999   0.4606  0.25534     O
O       0.1999   0.4606  0.74466     O
O       0.1999   0.5394  0.25534     O
O       0.1999   0.5394  0.74466     O
O       0.1999  0.74466   0.4606     O
O       0.1999  0.74466   0.5394     O
O       0.1999  0.75534   0.0394     O
O       0.1999  0.75534   0.9606     O
O       0.1999   0.9606  0.24466     O
O       0.1999   0.9606  0.75534     O
C       0.2098   0.1073  0.15737     C
C       0.2098   0.1073  0.84263     C
C       0.2098  0.15737   0.1073     C
C       0.2098  0.15737   0.8927     C
C       0.2098  0.34263   0.3927     C
C       0.2098  0.34263   0.6073     C
C       0.2098   0.3927  0.34263     C
C       0.2098   0.3927  0.65737     C
C       0.2098   0.6073  0.34263     C
C       0.2098   0.6073  0.65737     C
C       0.2098  0.65737   0.3927     C
C       0.2098  0.65737   0.6073     C
C       0.2098  0.84263   0.1073     C
C       0.2098  0.84263   0.8927     C
C       0.2098   0.8927  0.15737     C
C       0.2098   0.8927  0.84263     C
C       0.2135   0.0576   0.2135     C
C       0.2135   0.0576   0.7865     C
C       0.2135   0.2135   0.0576     C
C       0.2135   0.2135   0.9424     C
C       0.2135   0.2865   0.4424     C
C       0.2135   0.2865   0.5576     C
C       0.2135   0.4424   0.2865     C
C       0.2135   0.4424   0.7135     C
C       0.2135   0.5576   0.2865     C
C       0.2135   0.5576   0.7135     C
C       0.2135   0.7135   0.4424     C
C       0.2135   0.7135   0.5576     C
C       0.2135   0.7865   0.0576     C
C       0.2135   0.7865   0.9424     C
C       0.2135   0.9424   0.2135     C
C       0.2135   0.9424   0.7865     C
Cu     0.22384      0.0  0.27616    Cu
Cu     0.22384      0.0  0.72384    Cu
Cu     0.22384  0.22384      0.5    Cu
Cu     0.22384  0.27616      0.0    Cu
Cu     0.22384      0.5  0.22384    Cu
Cu     0.22384      0.5  0.77616    Cu
Cu     0.22384  0.72384      0.0    Cu
Cu     0.22384  0.77616      0.5    Cu
O      0.24466   0.0394   0.1999     O
O      0.24466   0.0394   0.8001     O
O      0.24466   0.1999   0.0394     O
O      0.24466   0.1999   0.9606     O
O      0.24466   0.3001   0.4606     O
O      0.24466   0.3001   0.5394     O
O      0.24466   0.4606   0.3001     O
O      0.24466   0.4606   0.6999     O
O      0.24466   0.5394   0.3001     O
O      0.24466   0.5394   0.6999     O
O      0.24466   0.6999   0.4606     O
O      0.24466   0.6999   0.5394     O
O      0.24466   0.8001   0.0394     O
O      0.24466   0.8001   0.9606     O
O      0.24466   0.9606   0.1999     O
O      0.24466   0.9606   0.8001     O
O      0.25534   0.0394   0.3001     O
O      0.25534   0.0394   0.6999     O
O      0.25534   0.1999   0.4606     O
O      0.25534   0.1999   0.5394     O
O      0.25534   0.3001   0.0394     O
O      0.25534   0.3001   0.9606     O
O      0.25534   0.4606   0.1999     O
O      0.25534   0.4606   0.8001     O
O      0.25534   0.5394   0.1999     O
O      0.25534   0.5394   0.8001     O
O      0.25534   0.6999   0.0394     O
O      0.25534   0.6999   0.9606     O
O      0.25534   0.8001   0.4606     O
O      0.25534   0.8001   0.5394     O
O      0.25534   0.9606   0.3001     O
O      0.25534   0.9606   0.6999     O
Cu     0.27616      0.0  0.22384    Cu
Cu     0.27616      0.0  0.77616    Cu
Cu     0.27616  0.22384      0.0    Cu
Cu     0.27616  0.27616      0.5    Cu
Cu     0.27616      0.5  0.27616    Cu
Cu     0.27616      0.5  0.72384    Cu
Cu     0.27616  0.72384      0.5    Cu
Cu     0.27616  0.77616      0.0    Cu
C       0.2865   0.0576   0.2865     C
C       0.2865   0.0576   0.7135     C
C       0.2865   0.2135   0.4424     C
C       0.2865   0.2135   0.5576     C
C       0.2865   0.2865   0.0576     C
C       0.2865   0.2865   0.9424     C
C       0.2865   0.4424   0.2135     C
C       0.2865   0.4424   0.7865     C
C       0.2865   0.5576   0.2135     C
C       0.2865   0.5576   0.7865     C
C       0.2865   0.7135   0.0576     C
C       0.2865   0.7135   0.9424     C
C       0.2865   0.7865   0.4424     C
C       0.2865   0.7865   0.5576     C
C       0.2865   0.9424   0.2865     C
C       0.2865   0.9424   0.7135     C
C       0.2902   0.1073  0.34263     C
C       0.2902   0.1073  0.65737     C
C       0.2902  0.15737   0.3927     C
C       0.2902  0.15737   0.6073     C
C       0.2902  0.34263   0.1073     C
C       0.2902  0.34263   0.8927     C
C       0.2902   0.3927  0.15737     C
C       0.2902   0.3927  0.84263     C
C       0.2902   0.6073  0.15737     C
C       0.2902   0.6073  0.84263     C
C       0.2902  0.65737   0.1073     C
C       0.2902  0.65737   0.8927     C
C       0.2902  0.84263   0.3927     C
C       0.2902  0.84263   0.6073     C
C       0.2902   0.8927  0.34263     C
C       0.2902   0.8927  0.65737     C
O       0.3001   0.0394  0.25534     O
O       0.3001   0.0394  0.74466     O
O       0.3001  0.24466   0.4606     O
O       0.3001  0.24466   0.5394     O
O       0.3001  0.25534   0.0394     O
O       0.3001  0.25534   0.9606     O
O       0.3001   0.4606  0.24466     O
O       0.3001   0.4606  0.75534     O
O       0.3001   0.5394  0.24466     O
O       0.3001   0.5394  0.75534     O
O       0.3001  0.74466   0.0394     O
O       0.3001  0.74466   0.9606     O
O       0.3001  0.75534   0.4606     O
O       0.3001  0.75534   0.5394     O
O       0.3001   0.9606  0.25534     O
O       0.3001   0.9606  0.74466     O
C      0.30646    0.092  0.30646     C
C      0.30646    0.092  0.69354     C
C      0.30646  0.19354    0.408     C
C      0.30646  0.19354    0.592     C
C      0.30646  0.30646    0.092     C
C      0.30646  0.30646    0.908     C
C      0.30646    0.408  0.19354     C
C      0.30646    0.408  0.80646     C
C      0.30646    0.592  0.19354     C
C      0.30646    0.592  0.80646     C
C      0.30646  0.69354    0.092     C
C      0.30646  0.69354    0.908     C
C      0.30646  0.80646    0.408     C
C      0.30646  0.80646    0.592     C
C      0.30646    0.908  0.30646     C
C      0.30646    0.908  0.69354     C
C       0.3078   0.1412   0.3588     C
C       0.3078   0.1412   0.6412     C
C       0.3078   0.3588   0.1412     C
C       0.3078   0.3588   0.8588     C
C       0.3078   0.6412   0.1412     C
C       0.3078   0.6412   0.8588     C
C       0.3078   0.8588   0.3588     C
C       0.3078   0.8588   0.6412     C
C      0.34263   0.1073   0.2902     C
C      0.34263   0.1073   0.7098     C
C      0.34263   0.2098   0.3927     C
C      0.34263   0.2098   0.6073     C
C      0.34263   0.2902   0.1073     C
C      0.34263   0.2902   0.8927     C
C      0.34263   0.3927   0.2098     C
C      0.34263   0.3927   0.7902     C
C      0.34263   0.6073   0.2098     C
C      0.34263   0.6073   0.7902     C
C      0.34263   0.7098   0.1073     C
C      0.34263   0.7098   0.8927     C
C      0.34263   0.7902   0.3927     C
C      0.34263   0.7902   0.6073     C
C      0.34263   0.8927   0.2902     C
C      0.34263   0.8927   0.7098     C
C       0.3434   0.1566   0.3434     C
C       0.3434   0.1566   0.6566     C
C       0.3434   0.3434   0.1566     C
C       0.3434   0.3434   0.8434     C
C       0.3434   0.6566   0.1566     C
C       0.3434   0.6566   0.8434     C
C       0.3434   0.8434   0.3434     C
C       0.3434   0.8434   0.6566     C
C       0.3588   0.1412   0.3078     C
C       0.3588   0.1412   0.6922     C
C       0.3588   0.1922   0.3588     C
C       0.3588   0.1922   0.6412     C
C       0.3588   0.3078   0.1412     C
C       0.3588   0.3078   0.8588     C
C       0.3588   0.3588   0.1922     C
C       0.3588   0.3588   0.8078     C
C       0.3588   0.6412   0.1922     C
C       0.3588   0.6412   0.8078     C
C       0.3588   0.6922   0.1412     C
C       0.3588   0.6922   0.8588     C
C       0.3588   0.8078   0.3588     C
C       0.3588   0.8078   0.6412     C
C       0.3588   0.8588   0.3078     C
C       0.3588   0.8588   0.6922     C
C       0.3927  0.15737   0.2902     C
C       0.3927  0.15737   0.7098     C
C       0.3927   0.2098  0.34263     C
C       0.3927   0.2098  0.65737     C
C       0.3927   0.2902  0.15737     C
C       0.3927   0.2902  0.84263     C
C       0.3927  0.34263   0.2098     C
C       0.3927  0.34263   0.7902     C
C       0.3927  0.65737   0.2098     C
C       0.3927  0.65737   0.7902     C
C       0.3927   0.7098  0.15737     C
C       0.3927   0.7098  0.84263     C
C       0.3927   0.7902  0.34263     C
C       0.3927   0.7902  0.65737     C
C       0.3927  0.84263   0.2902     C
C       0.3927  0.84263   0.7098     C
C        0.408  0.19354  0.30646     C
C        0.408  0.19354  0.69354     C
C        0.408  0.30646  0.19354     C
C        0.408  0.30646  0.80646     C
C        0.408  0.69354  0.19354     C
C        0.408  0.69354  0.80646     C
C        0.408  0.80646  0.30646     C
C        0.408  0.80646  0.69354     C
C       0.4424   0.2135   0.2865     C
C       0.4424   0.2135   0.7135     C
C       0.4424   0.2865   0.2135     C
C       0.4424   0.2865   0.7865     C
C       0.4424   0.7135   0.2135     C
C       0.4424   0.7135   0.7865     C
C       0.4424   0.7865   0.2865     C
C       0.4424   0.7865   0.7135     C
O       0.4606   0.1999  0.25534     O
O       0.4606   0.1999  0.74466     O
O       0.4606  0.24466   0.3001     O
O       0.4606  0.24466   0.6999     O
O       0.4606  0.25534   0.1999     O
O       0.4606  0.25534   0.8001     O
O       0.4606   0.3001  0.24466     O
O       0.4606   0.3001  0.75534     O
O       0.4606   0.6999  0.24466     O
O       0.4606   0.6999  0.75534     O
O       0.4606  0.74466   0.1999     O
O       0.4606  0.74466   0.8001     O
O       0.4606  0.75534   0.3001     O
O       0.4606  0.75534   0.6999     O
O       0.4606   0.8001  0.25534     O
O       0.4606   0.8001  0.74466     O
Cu         0.5  0.22384  0.22384    Cu
Cu         0.5  0.22384  0.77616    Cu
Cu         0.5  0.27616  0.27616    Cu
Cu         0.5  0.27616  0.72384    Cu
Cu         0.5  0.72384  0.27616    Cu
Cu         0.5  0.72384  0.72384    Cu
Cu         0.5  0.77616  0.22384    Cu
Cu         0.5  0.77616  0.77616    Cu
O       0.5394   0.1999  0.25534     O
O       0.5394   0.1999  0.74466     O
O       0.5394  0.24466   0.3001     O
O       0.5394  0.24466   0.6999     O
O       0.5394  0.25534   0.1999     O
O       0.5394  0.25534   0.8001     O
O       0.5394   0.3001  0.24466     O
O       0.5394   0.3001  0.75534     O
O       0.5394   0.6999  0.24466     O
O       0.5394   0.6999  0.75534     O
O       0.5394  0.74466   0.1999     O
O       0.5394  0.74466   0.8001     O
O       0.5394  0.75534   0.3001     O
O       0.5394  0.75534   0.6999     O
O       0.5394   0.8001  0.25534     O
O       0.5394   0.8001  0.74466     O
C       0.5576   0.2135   0.2865     C
C       0.5576   0.2135   0.7135     C
C       0.5576   0.2865   0.2135     C
C       0.5576   0.2865   0.7865     C
C       0.5576   0.7135   0.2135     C
C       0.5576   0.7135   0.7865     C
C       0.5576   0.7865   0.2865     C
C       0.5576   0.7865   0.7135     C
C        0.592  0.19354  0.30646     C
C        0.592  0.19354  0.69354     C
C        0.592  0.30646  0.19354     C
C        0.592  0.30646  0.80646     C
C        0.592  0.69354  0.19354     C
C        0.592  0.69354  0.80646     C
C        0.592  0.80646  0.30646     C
C        0.592  0.80646  0.69354     C
C       0.6073  0.15737   0.2902     C
C       0.6073  0.15737   0.7098     C
C       0.6073   0.2098  0.34263     C
C       0.6073   0.2098  0.65737     C
C       0.6073   0.2902  0.15737     C
C       0.6073   0.2902  0.84263     C
C       0.6073  0.34263   0.2098     C
C       0.6073  0.34263   0.7902     C
C       0.6073  0.65737   0.2098     C
C       0.6073  0.65737   0.7902     C
C       0.6073   0.7098  0.15737     C
C       0.6073   0.7098  0.84263     C
C       0.6073   0.7902  0.34263     C
C       0.6073   0.7902  0.65737     C
C       0.6073  0.84263   0.2902     C
C       0.6073  0.84263   0.7098     C
C       0.6412   0.1412   0.3078     C
C       0.6412   0.1412   0.6922     C
C       0.6412   0.1922   0.3588     C
C       0.6412   0.1922   0.6412     C
C       0.6412   0.3078   0.1412     C
C       0.6412   0.3078   0.8588     C
C       0.6412   0.3588   0.1922     C
C       0.6412   0.3588   0.8078     C
C       0.6412   0.6412   0.1922     C
C       0.6412   0.6412   0.8078     C
C       0.6412   0.6922   0.1412     C
C       0.6412   0.6922   0.8588     C
C       0.6412   0.8078   0.3588     C
C       0.6412   0.8078   0.6412     C
C       0.6412   0.8588   0.3078     C
C       0.6412   0.8588   0.6922     C
C       0.6566   0.1566   0.3434     C
C       0.6566   0.1566   0.6566     C
C       0.6566   0.3434   0.1566     C
C       0.6566   0.3434   0.8434     C
C       0.6566   0.6566   0.1566     C
C       0.6566   0.6566   0.8434     C
C       0.6566   0.8434   0.3434     C
C       0.6566   0.8434   0.6566     C
C      0.65737   0.1073   0.2902     C
C      0.65737   0.1073   0.7098     C
C      0.65737   0.2098   0.3927     C
C      0.65737   0.2098   0.6073     C
C      0.65737   0.2902   0.1073     C
C      0.65737   0.2902   0.8927     C
C      0.65737   0.3927   0.2098     C
C      0.65737   0.3927   0.7902     C
C      0.65737   0.6073   0.2098     C
C      0.65737   0.6073   0.7902     C
C      0.65737   0.7098   0.1073     C
C      0.65737   0.7098   0.8927     C
C      0.65737   0.7902   0.3927     C
C      0.65737   0.7902   0.6073     C
C      0.65737   0.8927   0.2902     C
C      0.65737   0.8927   0.7098     C
C       0.6922   0.1412   0.3588     C
C       0.6922   0.1412   0.6412     C
C       0.6922   0.3588   0.1412     C
C       0.6922   0.3588   0.8588     C
C       0.6922   0.6412   0.1412     C
C       0.6922   0.6412   0.8588     C
C       0.6922   0.8588   0.3588     C
C       0.6922   0.8588   0.6412     C
C      0.69354    0.092  0.30646     C
C      0.69354    0.092  0.69354     C
C      0.69354  0.19354    0.408     C
C      0.69354  0.19354    0.592     C
C      0.69354  0.30646    0.092     C
C      0.69354  0.30646    0.908     C
C      0.69354    0.408  0.19354     C
C      0.69354    0.408  0.80646     C
C      0.69354    0.592  0.19354     C
C      0.69354    0.592  0.80646     C
C      0.69354  0.69354    0.092     C
C      0.69354  0.69354    0.908     C
C      0.69354  0.80646    0.408     C
C      0.69354  0.80646    0.592     C
C      0.69354    0.908  0.30646     C
C      0.69354    0.908  0.69354     C
O       0.6999   0.0394  0.25534     O
O       0.6999   0.0394  0.74466     O
O       0.6999  0.24466   0.4606     O
O       0.6999  0.24466   0.5394     O
O       0.6999  0.25534   0.0394     O
O       0.6999  0.25534   0.9606     O
O       0.6999   0.4606  0.24466     O
O       0.6999   0.4606  0.75534     O
O       0.6999   0.5394  0.24466     O
O       0.6999   0.5394  0.75534     O
O       0.6999  0.74466   0.0394     O
O       0.6999  0.74466   0.9606     O
O       0.6999  0.75534   0.4606     O
O       0.6999  0.75534   0.5394     O
O       0.6999   0.9606  0.25534     O
O       0.6999   0.9606  0.74466     O
C       0.7098   0.1073  0.34263     C
C       0.7098   0.1073  0.65737     C
C       0.7098  0.15737   0.3927     C
C       0.7098  0.15737   0.6073     C
C       0.7098  0.34263   0.1073     C
C       0.7098  0.34263   0.8927     C
C       0.7098   0.3927  0.15737     C
C       0.7098   0.3927  0.84263     C
C       0.7098   0.6073  0.15737     C
C       0.7098   0.6073  0.84263     C
C       0.7098  0.65737   0.1073     C
C       0.7098  0.65737   0.8927     C
C       0.7098  0.84263   0.3927     C
C       0.7098  0.84263   0.6073     C
C       0.7098   0.8927  0.34263     C
C       0.7098   0.8927  0.65737     C
C       0.7135   0.0576   0.2865     C
C       0.7135   0.0576   0.7135     C
C       0.7135   0.2135   0.4424     C
C       0.7135   0.2135   0.5576     C
C       0.7135   0.2865   0.0576     C
C       0.7135   0.2865   0.9424     C
C       0.7135   0.4424   0.2135     C
C       0.7135   0.4424   0.7865     C
C       0.7135   0.5576   0.2135     C
C       0.7135   0.5576   0.7865     C
C       0.7135   0.7135   0.0576     C
C       0.7135   0.7135   0.9424     C
C       0.7135   0.7865   0.4424     C
C       0.7135   0.7865   0.5576     C
C       0.7135   0.9424   0.2865     C
C       0.7135   0.9424   0.7135     C
Cu     0.72384      0.0  0.22384    Cu
Cu     0.72384      0.0  0.77616    Cu
Cu     0.72384  0.22384      0.0    Cu
Cu     0.72384  0.27616      0.5    Cu
Cu     0.72384      0.5  0.27616    Cu
Cu     0.72384      0.5  0.72384    Cu
Cu     0.72384  0.72384      0.5    Cu
Cu     0.72384  0.77616      0.0    Cu
O      0.74466   0.0394   0.3001     O
O      0.74466   0.0394   0.6999     O
O      0.74466   0.1999   0.4606     O
O      0.74466   0.1999   0.5394     O
O      0.74466   0.3001   0.0394     O
O      0.74466   0.3001   0.9606     O
O      0.74466   0.4606   0.1999     O
O      0.74466   0.4606   0.8001     O
O      0.74466   0.5394   0.1999     O
O      0.74466   0.5394   0.8001     O
O      0.74466   0.6999   0.0394     O
O      0.74466   0.6999   0.9606     O
O      0.74466   0.8001   0.4606     O
O      0.74466   0.8001   0.5394     O
O      0.74466   0.9606   0.3001     O
O      0.74466   0.9606   0.6999     O
O      0.75534   0.0394   0.1999     O
O      0.75534   0.0394   0.8001     O
O      0.75534   0.1999   0.0394     O
O      0.75534   0.1999   0.9606     O
O      0.75534   0.3001   0.4606     O
O      0.75534   0.3001   0.5394     O
O      0.75534   0.4606   0.3001     O
O      0.75534   0.4606   0.6999     O
O      0.75534   0.5394   0.3001     O
O      0.75534   0.5394   0.6999     O
O      0.75534   0.6999   0.4606     O
O      0.75534   0.6999   0.5394     O
O      0.75534   0.8001   0.0394     O
O      0.75534   0.8001   0.9606     O
O      0.75534   0.9606   0.1999     O
O      0.75534   0.9606   0.8001     O
Cu     0.77616      0.0  0.27616    Cu
Cu     0.77616      0.0  0.72384    Cu
Cu     0.77616  0.22384      0.5    Cu
Cu     0.77616  0.27616      0.0    Cu
Cu     0.77616      0.5  0.22384    Cu
Cu     0.77616      0.5  0.77616    Cu
Cu     0.77616  0.72384      0.0    Cu
Cu     0.77616  0.77616      0.5    Cu
C       0.7865   0.0576   0.2135     C
C       0.7865   0.0576   0.7865     C
C       0.7865   0.2135   0.0576     C
C       0.7865   0.2135   0.9424     C
C       0.7865   0.2865   0.4424     C
C       0.7865   0.2865   0.5576     C
C       0.7865   0.4424   0.2865     C
C       0.7865   0.4424   0.7135     C
C       0.7865   0.5576   0.2865     C
C       0.7865   0.5576   0.7135     C
C       0.7865   0.7135   0.4424     C
C       0.7865   0.7135   0.5576     C
C       0.7865   0.7865   0.0576     C
C       0.7865   0.7865   0.9424     C
C       0.7865   0.9424   0.2135     C
C       0.7865   0.9424   0.7865     C
C       0.7902   0.1073  0.15737     C
C       0.7902   0.1073  0.84263     C
C       0.7902  0.15737   0.1073     C
C       0.7902  0.15737   0.8927     C
C       0.7902  0.34263   0.3927     C
C       0.7902  0.34263   0.6073     C
C       0.7902   0.3927  0.34263     C
C       0.7902   0.3927  0.65737     C
C       0.7902   0.6073  0.34263     C
C       0.7902   0.6073  0.65737     C
C       0.7902  0.65737   0.3927     C
C       0.7902  0.65737   0.6073     C
C       0.7902  0.84263   0.1073     C
C       0.7902  0.84263   0.8927     C
C       0.7902   0.8927  0.15737     C
C       0.7902   0.8927  0.84263     C
O       0.8001   0.0394  0.24466     O
O       0.8001   0.0394  0.75534     O
O       0.8001  0.24466   0.0394     O
O       0.8001  0.24466   0.9606     O
O       0.8001  0.25534   0.4606     O
O       0.8001  0.25534   0.5394     O
O       0.8001   0.4606  0.25534     O
O       0.8001   0.4606  0.74466     O
O       0.8001   0.5394  0.25534     O
O       0.8001   0.5394  0.74466     O
O       0.8001  0.74466   0.4606     O
O       0.8001  0.74466   0.5394     O
O       0.8001  0.75534   0.0394     O
O       0.8001  0.75534   0.9606     O
O       0.8001   0.9606  0.24466     O
O       0.8001   0.9606  0.75534     O
C      0.80646    0.092  0.19354     C
C      0.80646    0.092  0.80646     C
C      0.80646  0.19354    0.092     C
C      0.80646  0.19354    0.908     C
C      0.80646  0.30646    0.408     C
C      0.80646  0.30646    0.592     C
C      0.80646    0.408  0.30646     C
C      0.80646    0.408  0.69354     C
C      0.80646    0.592  0.30646     C
C      0.80646    0.592  0.69354     C
C      0.80646  0.69354    0.408     C
C      0.80646  0.69354    0.592     C
C      0.80646  0.80646    0.092     C
C      0.80646  0.80646    0.908     C
C      0.80646    0.908  0.19354     C
C      0.80646    0.908  0.80646     C
C       0.8078   0.1412   0.1412     C
C       0.8078   0.1412   0.8588     C
C       0.8078   0.3588   0.3588     C
C       0.8078   0.3588   0.6412     C
C       0.8078   0.6412   0.3588     C
C       0.8078   0.6412   0.6412     C
C       0.8078   0.8588   0.1412     C
C       0.8078   0.8588   0.8588     C
C      0.84263   0.1073   0.2098     C
C      0.84263   0.1073   0.7902     C
C      0.84263   0.2098   0.1073     C
C      0.84263   0.2098   0.8927     C
C      0.84263   0.2902   0.3927     C
C      0.84263   0.2902   0.6073     C
C      0.84263   0.3927   0.2902     C
C      0.84263   0.3927   0.7098     C
C      0.84263   0.6073   0.2902     C
C      0.84263   0.6073   0.7098     C
C      0.84263   0.7098   0.3927     C
C      0.84263   0.7098   0.6073     C
C      0.84263   0.7902   0.1073     C
C      0.84263   0.7902   0.8927     C
C      0.84263   0.8927   0.2098     C
C      0.84263   0.8927   0.7902     C
C       0.8434   0.1566   0.1566     C
C       0.8434   0.1566   0.8434     C
C       0.8434   0.3434   0.3434     C
C       0.8434   0.3434   0.6566     C
C       0.8434   0.6566   0.3434     C
C       0.8434   0.6566   0.6566     C
C       0.8434   0.8434   0.1566     C
C       0.8434   0.8434   0.8434     C
C       0.8588   0.1412   0.1922     C
C       0.8588   0.1412   0.8078     C
C       0.8588   0.1922   0.1412     C
C       0.8588   0.1922   0.8588     C
C       0.8588   0.3078   0.3588     C
C       0.8588   0.3078   0.6412     C
C       0.8588   0.3588   0.3078     C
C       0.8588   0.3588   0.6922     C
C       0.8588   0.6412   0.3078     C
C       0.8588   0.6412   0.6922     C
C       0.8588   0.6922   0.3588     C
C       0.8588   0.6922   0.6412     C
C       0.8588   0.8078   0.1412     C
C       0.8588   0.8078   0.8588     C
C       0.8588   0.8588   0.1922     C
C       0.8588   0.8588   0.8078     C
C       0.8927  0.15737   0.2098     C
C       0.8927  0.15737   0.7902     C
C       0.8927   0.2098  0.15737     C
C       0.8927   0.2098  0.84263     C
C       0.8927   0.2902  0.34263     C
C       0.8927   0.2902  0.65737     C
C       0.8927  0.34263   0.2902     C
C       0.8927  0.34263   0.7098     C
C       0.8927  0.65737   0.2902     C
C       0.8927  0.65737   0.7098     C
C       0.8927   0.7098  0.34263     C
C       0.8927   0.7098  0.65737     C
C       0.8927   0.7902  0.15737     C
C       0.8927   0.7902  0.84263     C
C       0.8927  0.84263   0.2098     C
C       0.8927  0.84263   0.7902     C
C        0.908  0.19354  0.19354     C
C        0.908  0.19354  0.80646     C
C        0.908  0.30646  0.30646     C
C        0.908  0.30646  0.69354     C
C        0.908  0.69354  0.30646     C
C        0.908  0.69354  0.69354     C
C        0.908  0.80646  0.19354     C
C        0.908  0.80646  0.80646     C
C       0.9424   0.2135   0.2135     C
C       0.9424   0.2135   0.7865     C
C       0.9424   0.2865   0.2865     C
C       0.9424   0.2865   0.7135     C
C       0.9424   0.7135   0.2865     C
C       0.9424   0.7135   0.7135     C
C       0.9424   0.7865   0.2135     C
C       0.9424   0.7865   0.7865     C
O       0.9606   0.1999  0.24466     O
O       0.9606   0.1999  0.75534     O
O       0.9606  0.24466   0.1999     O
O       0.9606  0.24466   0.8001     O
O       0.9606  0.25534   0.3001     O
O       0.9606  0.25534   0.6999     O
O       0.9606   0.3001  0.25534     O
O       0.9606   0.3001  0.74466     O
O       0.9606   0.6999  0.25534     O
O       0.9606   0.6999  0.74466     O
O       0.9606  0.74466   0.3001     O
O       0.9606  0.74466   0.6999     O
O       0.9606  0.75534   0.1999     O
O       0.9606  0.75534   0.8001     O
O       0.9606   0.8001  0.24466     O
O       0.9606   0.8001  0.75534     O
