data_I
_chemical_name_common  '/home/zhangsd/repos/MofS-CGCNN/ML/data/TSD/clean_cifs/LIPQOR_clean'
_cell_length_a 24.77700
_cell_length_b 24.77700
_cell_length_c 26.48900
_cell_angle_alpha 90.00000
_cell_angle_beta  90.00000
_cell_angle_gamma 120.00000
_space_group_name_H-M_alt      'P 1'


loop_
_space_group_symop_operation_xyz
  'x, y, z' 

loop_
_atom_site_label
_atom_site_fract_x
_atom_site_fract_y
_atom_site_fract_z
_atom_site_type_symbol
Cu         0.0      0.5      0.0    Cu
C       0.0126    0.492   0.1106     C
C       0.0134   0.5227    0.776     C
N      0.01437  0.16453  0.29253     N
H      0.01443  0.22507  0.74817     H
Cu     0.02006  0.81943  0.36095    Cu
C       0.0217   0.5517   0.7286     C
H       0.0219   0.5478   0.8882     H
H       0.0232   0.4275   0.3236     H
C       0.0281   0.4461   0.2922     C
Cl     0.02836  0.61478  0.98257    Cl
H      0.03247  0.25273  0.27943     H
N       0.0328   0.5266  0.07058     N
N      0.03973  0.18697  0.69527     N
H      0.04247  0.10543  0.31973     H
C       0.0425   0.4978   0.2003     C
C      0.04303  0.21237  0.74047     C
H       0.0447   0.5176   0.7905     H
C      0.04697  0.22713  0.29193     C
H      0.04793  0.84117  0.79077     H
C      0.04873  0.87597  0.72117     C
N       0.0496   0.5228   0.1506     N
H      0.05127  0.20503  0.54023     H
Cl     0.05189  0.74691   0.3159    Cl
C      0.05277  0.14653  0.31423     C
N      0.05317  0.24983  0.60193     N
H      0.05687  0.85093  0.48393     H
H       0.0596   0.5688   0.7119     H
H      0.06297  0.95753  0.31973     H
H      0.07073  0.91947  0.65467     H
H      0.07097  0.31013  0.65693     H
C      0.07243  0.87127  0.76707     C
C      0.07247  0.24333  0.55653     C
Cl     0.08025  0.36169  0.35076    Cl
H      0.08053  0.15127  0.65467     H
H       0.0806   0.4464   0.9461     H
C      0.08103  0.16817  0.68617     C
N       0.0835     0.47   0.2686     N
N      0.08387  0.83503  0.41693     N
N       0.0845   0.5828   0.0836     N
C      0.08467  0.30523  0.62553     C
N       0.0868   0.5217  0.97802     N
C      0.08693  0.22057  0.77597     C
C      0.08713  0.91897  0.68617     C
C      0.08767  0.84893  0.46533     C
H      0.08813  0.23957  0.80647     H
N      0.08937  0.89453  0.32602     N
C         0.09   0.4958   0.2232     C
H      0.09377  0.51523  0.47313     H
C      0.09377  0.94723  0.31423     C
H      0.09417  0.73763  0.00973     H
C       0.0946    0.579    0.132     C
H      0.09787  0.82413  0.04523     H
N      0.10157  0.24653  0.31135     N
H      0.10543  0.06297  0.68027     H
N      0.10547  0.19483  0.32602     N
C       0.1062   0.4865   0.9586     C
H      0.10827  0.45603  0.41483     H
C      0.11277  0.53303  0.44263     C
C      0.11277  0.75133  0.04113     C
H      0.11307  0.69913  0.38723     H
C      0.11497  0.80333  0.06193     C
H      0.11887  0.80743  0.22153     H
C      0.12097  0.49733  0.40713     C
C      0.12197  0.29083  0.53363     C
H       0.1227   0.6811   0.9185     H
C      0.12403  0.17277  0.72117     C
H      0.12657  0.61873  0.45743     H
H       0.1274   0.6098   0.1506     H
H       0.1283   0.5129   0.2069     H
C      0.12873  0.20117  0.76707     C
C      0.13217  0.59423  0.43373     C
Cu     0.13271  0.64661  0.02762    Cu
C      0.13363  0.91307  0.77597     C
C      0.13667  0.35503  0.60473     C
N      0.13667  0.71983  0.06473     N
N       0.1385   0.5773  0.99269     N
H      0.13957  0.28863  0.12383     H
N      0.13987  0.28373  0.48393     N
N      0.14007  0.83953  0.40391     N
H      0.14077  0.35523  0.44513     H
N      0.14387  0.86013  0.48393     N
C      0.14397  0.82403  0.10933     C
N      0.14497  0.89843  0.31135     N
C      0.14607  0.32073  0.44393     C
N      0.14637  0.51943  0.36193     N
C      0.14653  0.09377  0.68577     C
N      0.14723  0.96027  0.69527     N
H      0.14907  0.20593  0.48393     H
H      0.14907  0.86043  0.12383     H
N      0.15017  0.98563  0.29253     N
C      0.15107  0.23873  0.46533     C
H      0.15127  0.07073  0.34533     H
H      0.15143  0.91187  0.80647     H
Cu     0.15277  0.46604  0.30571    Cu
C      0.15317  0.71363  0.37473     C
H      0.15377  0.94873  0.54023     H
C      0.15737  0.34673  0.55733     C
H      0.15747  0.39293  0.62143     H
C      0.15867  0.81273  0.22273     C
H      0.15883  0.20677  0.79077     H
N      0.16047  0.30053  0.40391     N
C      0.16057  0.61793  0.38783     C
C      0.16247  0.73913  0.11013     C
C        0.164   0.7097   0.9262     C
C      0.16447  0.78863  0.13303     C
N      0.16453  0.15017  0.70747     N
N      0.16497  0.24883  0.41693     N
C      0.16517  0.57953  0.35283     C
Cu     0.16667  0.33333  0.33333    Cu
Cu     0.16667  0.83333  0.33333    Cu
C      0.16817  0.08713  0.31383     C
N      0.16837  0.41783  0.24973     N
N       0.1688   0.5165   0.9592     N
C      0.16887  0.87803  0.53363     C
C      0.16933  0.95697  0.74047     C
C      0.17087  0.92753  0.55653     C
C      0.17277  0.04873  0.27883     C
N      0.17287  0.36613  0.26275     N
H       0.1745   0.4599   0.8759     H
C      0.17467  0.85393  0.44393     C
H      0.17587  0.27373  0.04523     H
C      0.17597  0.31993  0.10933     C
H      0.17957  0.71793  0.12643     H
C      0.18017  0.95303  0.29193     C
Cu     0.18057  0.20062  0.36095    Cu
H       0.1819   0.7548   0.8602     H
H      0.18207  0.59593  0.32133     H
C      0.18227  0.42793  0.20133     C
N      0.18317  0.68103  0.37413     N
H      0.18427  0.46073  0.18273     H
H      0.18427  0.80623  0.54283     H
N       0.1861   0.7064   0.9714     N
C       0.1868   0.5729   0.9809     C
N      0.18697  0.14723  0.30473     N
C      0.18727  0.34593  0.22273     C
N      0.18837  0.76823  0.35531     N
C      0.18937  0.84263  0.55733     C
N      0.18947  0.80653  0.18273     N
H      0.19257  0.31143  0.22153     H
N      0.19327  0.82713  0.26275     N
N      0.19347  0.38293  0.18273     N
H      0.19377  0.37803  0.54283     H
N      0.19483  0.08937  0.67398     N
C      0.19667  0.31163  0.06193     C
N      0.19667  0.94683  0.60193     N
C       0.1997   0.7536   0.8907     C
Cu     0.20062  0.02006  0.63905    Cu
C      0.20117  0.07243  0.23293     C
C       0.2046   0.4655   0.8996     C
H      0.20503  0.15377  0.45977     H
H      0.20593  0.05687  0.51607     H
H      0.20677  0.04793  0.20923     H
C       0.2093   0.4939   0.9455     C
H      0.21063  0.98557  0.74817     H
C      0.21137  0.37583  0.13303     C
C      0.21237  0.16933  0.25953     C
H      0.21447  0.85923  0.44513     H
C      0.21837  0.86333  0.60473     C
H      0.22027  0.96753  0.27943     H
C      0.22057  0.13363  0.22403     C
C      0.22057  0.91533  0.62553     C
H      0.22507  0.21063  0.25183     H
C      0.22713  0.18017  0.70807     C
N      0.22787  0.47183  0.34064     N
H       0.2279   0.6037   0.9864     H
N      0.23177  0.42013  0.35531     N
H      0.23547  0.84253  0.62143     H
C      0.23873  0.08767  0.53467     C
H      0.23917  0.92903  0.65693     H
H      0.23957  0.15143  0.19353     H
C      0.23957  0.71943  0.35243     C
C      0.24333  0.17087  0.44347     C
N      0.24397  0.77213  0.34064     N
H       0.2452   0.4271   0.8602     H
C      0.24567  0.81773  0.20133     C
C       0.2462   0.7477   0.9805     C
C       0.2464   0.4461   0.8907     C
N      0.24653  0.14497  0.68865     N
C      0.24867  0.36143  0.04113     C
N      0.24883  0.08387  0.58307     N
N      0.24947  0.83163  0.24973     N
N      0.24983  0.19667  0.39807     N
C       0.2523   0.4985   0.9805     C
H      0.25273  0.22027  0.72057     H
H       0.2528   0.5154    0.012     H
Cl     0.25309  0.30497   0.3159    Cl
C      0.26087  0.42333  0.11013     C
C       0.2609   0.7954   0.8996     C
H      0.26237  0.35653  0.00973     H
H       0.2626   0.7472    0.012     H
H      0.27037  0.70913  0.34693     H
H      0.27373  0.09787  0.95477     H
H      0.27647  0.81573  0.18273     H
N      0.28017  0.41683  0.06473     N
C      0.28057  0.52013  0.35243     C
Cl     0.28145  0.91975  0.35076    Cl
H      0.28207  0.46163  0.12643     H
N      0.28373  0.14387  0.51607     N
C       0.2846   0.7907   0.9455     C
H       0.2854   0.8255   0.8759     H
C      0.28637  0.43953  0.37473     C
H      0.28863  0.14907  0.87617     H
C       0.2903   0.4543   0.9262     C
C      0.29083  0.16887  0.46637     C
H      0.29087  0.56123  0.34693     H
N       0.2936   0.4797   0.9714     N
N      0.30053  0.14007  0.59609     N
H      0.30087  0.41393  0.38723     H
Cl     0.30497  0.05189   0.6841    Cl
C      0.30523  0.22057  0.37447     C
H      0.31013  0.23917  0.34307     H
H      0.31143  0.11887  0.77847     H
C      0.31163  0.11497  0.93807     C
Cu     0.31328  0.84723  0.30571    Cu
H       0.3189   0.4416   0.9185     H
N      0.31897  0.50213  0.37413     N
C      0.31993  0.14397  0.89067     C
C      0.32073  0.17467  0.55607     C
Cu     0.33333  0.16667  0.66667    Cu
C      0.34593  0.15867  0.77727     C
C      0.34673  0.18937  0.44267     C
N       0.3477   0.8312   0.9592     N
H      0.34777  0.89173  0.41483     H
Cu     0.35339   0.4861  0.02762    Cu
C      0.35503  0.21837  0.39527     C
H      0.35523  0.21447  0.55487     H
H      0.35653  0.09417  0.99027     H
C      0.36143  0.11277  0.95887     C
Cl     0.36169  0.28145  0.64924    Cl
H       0.3658   0.9194   0.9461     H
N      0.36613  0.19327  0.73725     N
N      0.37307  0.85363  0.36193     N
H       0.3758   0.7721   0.9864     H
C      0.37583  0.16447  0.86697     C
C      0.37637  0.87903  0.40713     C
H      0.37803  0.18427  0.45717     H
C       0.3803   0.8938   0.9586     C
H      0.38127  0.50783  0.45743     H
C      0.38207  0.54263  0.38783     C
N      0.38293  0.18947  0.81727     N
H       0.3846   0.8717   0.2069     H
Cl     0.38522  0.41358  0.98257    Cl
C       0.3861   0.8132   0.9809     C
N       0.3865   0.9165   0.2686     N
H       0.3902   0.5176   0.1506     H
H      0.39293  0.23547  0.37857     H
H       0.3963   0.6242   0.9864     H
H      0.40407  0.58613  0.32133     H
H       0.4043   0.9768   0.3236     H
C      0.40577  0.53793  0.43373     C
C       0.4058     0.91   0.2232     C
Cl     0.41358  0.02836  0.01743    Cl
H      0.41387  0.81793  0.32133     H
H      0.41393  0.11307  0.61277     H
C      0.41437  0.83483  0.35283     C
N      0.41683  0.13667  0.93527     N
N       0.4172   0.5017   0.0836     N
N      0.41783  0.24947  0.75027     N
C        0.418   0.9719   0.2922     C
N      0.42013  0.18837  0.64469     N
C      0.42027  0.88723  0.44263     C
C      0.42047  0.58563  0.35283     C
C        0.421   0.5156    0.132     C
H      0.42147  0.90623  0.47313     H
N       0.4227   0.5612  0.99269     N
C      0.42333  0.16247  0.88987     C
H       0.4271   0.1819   0.1398     H
C       0.4271   0.6139   0.9809     C
H       0.4275   0.4043   0.6764     H
C      0.42793  0.24567  0.79867     C
H       0.4312   0.4908   0.7119     H
N       0.4349   0.9132  0.97802     N
H      0.43877  0.72963  0.34693     H
N       0.4388   0.8615  0.99269     N
C      0.43953  0.15317  0.62527     C
H       0.4416   0.1227   0.0815     H
C       0.4461   0.1997   0.1093     C
C       0.4461    0.418   0.7078     C
H       0.4464   0.3658   0.0539     H
C       0.4483     0.47   0.7286     C
H       0.4522   0.4741   0.8882     H
C       0.4543    0.164   0.0738     C
C       0.4553   0.9575   0.2003     C
H      0.45603  0.34777  0.58517     H
C      0.45737  0.83943  0.38783     C
H       0.4599   0.2854   0.1241     H
H      0.46073  0.27647  0.81727     H
H      0.46163  0.17957  0.87357     H
C      0.46207  0.86783  0.43373     C
C       0.4655   0.2609   0.1004     C
Cu     0.46604  0.31328  0.69429    Cu
C      0.46697  0.57973  0.44263     C
C         0.47   0.0217   0.2714     C
N         0.47   0.3865   0.7314     N
N      0.47183  0.24397  0.65936     N
H       0.4729   0.9553   0.7905     H
N       0.4732   0.9504   0.1506     N
N       0.4734   0.5062  0.07058     N
H       0.4741   0.0219   0.1118     H
N       0.4772   0.5268   0.1506     N
C       0.4773   0.4907    0.776     C
N       0.4783   0.5651  0.97802     N
C       0.4794   0.9874   0.1106     C
N       0.4797   0.1861   0.0286     N
C      0.47987  0.76043  0.35243     C
N      0.48057  0.62693  0.36193     N
H       0.4824   0.5271   0.7905     H
H       0.4824   0.8726   0.1506     H
N       0.4835   0.6523   0.9592     N
C       0.4844   0.9054    0.132     C
H       0.4846   0.7374    0.012     H
H      0.48477  0.57853  0.47313     H
Cu      0.4861  0.13271  0.97238    Cu
C       0.4865   0.3803   0.0414     C
H       0.4871   0.6154   0.2069     H
C       0.4907   0.0134    0.224     C
H       0.4908   0.0596   0.2881     H
C        0.492   0.4794   0.8894     C
H      0.49217  0.87343  0.45743     H
N       0.4938   0.9672  0.07058     N
C       0.4939   0.2846   0.0545     C
C       0.4958   0.4058   0.7768     C
C      0.49733  0.37637  0.59287     C
C       0.4978   0.4553   0.7997     C
N      0.49787  0.81683  0.37413     N
N       0.4983   0.9155   0.0836     N
C       0.4985   0.2462   0.0195     C
Cu         0.5      0.0      0.0    Cu
Cu         0.5      0.5      0.0    Cu
C       0.5015   0.7538   0.9805     C
N       0.5017   0.0845   0.9164     N
N      0.50213  0.18317  0.62587     N
C       0.5022   0.5447   0.2003     C
C      0.50267  0.62363  0.40713     C
C       0.5042   0.5942   0.2232     C
C       0.5061   0.7154   0.9455     C
N       0.5062   0.0328  0.92942     N
H      0.50783  0.12657  0.54257     H
C        0.508   0.5206   0.1106     C
H       0.5092   0.9404   0.7119     H
C       0.5093   0.9866    0.776     C
H       0.5129   0.3846   0.7931     H
C       0.5135   0.6197   0.9586     C
Cu      0.5139  0.86729  0.02762    Cu
H      0.51523  0.42147  0.52687     H
H       0.5154   0.2626    0.988     H
C       0.5156   0.0946    0.868     C
N       0.5165   0.3477   0.0408     N
H       0.5176   0.1274   0.8494     H
H       0.5176   0.4729   0.2095     H
N      0.51943  0.37307  0.63807     N
C      0.52013  0.23957  0.64757     C
N       0.5203   0.8139   0.9714     N
C       0.5206   0.0126   0.8894     C
N       0.5217   0.4349  0.02198     N
C       0.5227   0.5093    0.224     C
N       0.5228   0.4732   0.8494     N
H       0.5259   0.9781   0.8882     H
N       0.5266   0.4938  0.92942     N
N       0.5268   0.0496   0.8494     N
H       0.5271   0.0447   0.2095     H
N      0.52817  0.75603  0.34064     N
N         0.53   0.6135   0.2686     N
C         0.53   0.9783   0.7286     C
C      0.53303  0.42027  0.55737     C
Cu     0.53396  0.68672  0.30571    Cu
C       0.5345   0.7391   0.8996     C
C      0.53793  0.13217  0.56627     C
H      0.53837  0.82043  0.12643     H
H      0.53927  0.72353  0.18273     H
H       0.5401   0.7146   0.8759     H
C      0.54263  0.16057  0.61217     C
H      0.54397  0.65223  0.41483     H
C       0.5447   0.0425   0.7997     C
C       0.5457    0.836   0.9262     C
H       0.5478   0.5259   0.1118     H
C       0.5517     0.53   0.2714     C
H       0.5536   0.6342   0.9461     H
C       0.5539    0.582   0.2922     C
C       0.5539   0.8003   0.8907     C
H       0.5584   0.8773   0.9185     H
C      0.56047  0.84683  0.37473     C
N       0.5612   0.1385  0.00731     N
H      0.56123  0.27037  0.65307     H
N       0.5651   0.0868  0.02198     N
H       0.5688   0.5092   0.2881     H
C      0.57207  0.75433  0.20133     C
H       0.5725   0.5957   0.3236     H
C       0.5729   0.3861   0.0191     C
H       0.5729   0.8181   0.8602     H
C      0.57667  0.83753  0.11013     C
N       0.5773   0.4388  0.00731     N
H      0.57853  0.09377  0.52687     H
C        0.579   0.4844    0.868     C
C      0.57953  0.41437  0.64717     C
C      0.57973  0.11277  0.55737     C
N      0.57987  0.81163  0.35531     N
C        0.582   0.0281   0.7078     C
N      0.58217  0.75053  0.24973     N
N       0.5828   0.4983   0.9164     N
N      0.58317  0.86333  0.06473     N
C      0.58563  0.16517  0.64717     C
H      0.58607  0.88693  0.38723     H
H      0.58613  0.18207  0.67867     H
Cl     0.58642  0.97164  0.98257    Cl
C       0.5942     0.09   0.7768     C
C      0.59423  0.46207  0.56627     C
H       0.5957   0.0232   0.6764     H
H      0.59593  0.41387  0.67867     H
H       0.6037   0.3758   0.0136     H
H      0.60707  0.76453  0.62143     H
H       0.6098   0.4824   0.8494     H
N       0.6135   0.0835   0.7314     N
C       0.6139   0.1868   0.0191     C
Cl     0.61478  0.58642  0.01743    Cl
H       0.6154   0.1283   0.7931     H
N      0.61707  0.81053  0.18273     N
C      0.61793  0.45737  0.61217     C
H      0.61873  0.49217  0.54257     H
C       0.6197   0.1062   0.0414     C
H      0.62197  0.81573  0.54283     H
C      0.62363  0.12097  0.59287     C
C      0.62417  0.83553  0.13303     C
H       0.6242   0.2279   0.0136     H
N      0.62693  0.14637  0.63807     N
N      0.63387  0.80673  0.26275     N
H       0.6342   0.0806   0.0539     H
Cl     0.63831  0.71855  0.35076    Cl
C      0.63857  0.88723  0.04113     C
H      0.64347  0.90583  0.00973     H
H      0.64477  0.78553  0.44513     H
C      0.64497  0.78163  0.60473     C
Cu     0.64661   0.5139  0.97238    Cu
H      0.65223  0.10827  0.58517     H
N       0.6523   0.1688   0.0408     N
C      0.65327  0.81063  0.55733     C
C      0.65407  0.84133  0.22273     C
Cu     0.66667  0.83333  0.33333    Cu
C      0.67927  0.82533  0.44393     C
C      0.68007  0.85603  0.10933     C
N      0.68103  0.49787  0.62587     N
H       0.6811   0.5584   0.0815     H
Cu     0.68672  0.15277  0.69429    Cu
C      0.68837  0.88503  0.06193     C
H      0.68857  0.88113  0.22153     H
H      0.68987  0.76083  0.65693     H
C      0.69477  0.77943  0.62553     C
Cl     0.69503  0.94811   0.3159    Cl
H      0.69913  0.58607  0.61277     H
N      0.69947  0.85993  0.40391     N
N       0.7064   0.5203   0.0286     N
H      0.70913  0.43877  0.65307     H
C      0.70917  0.83113  0.53363     C
C       0.7097   0.5457   0.0738     C
H      0.71137  0.85093  0.12383     H
C      0.71363  0.56047  0.62527     C
H       0.7146   0.1745   0.1241     H
C       0.7154   0.2093   0.0545     C
N      0.71627  0.85613  0.48393     N
H      0.71793  0.53837  0.87357     H
Cl     0.71855  0.08025  0.64924    Cl
C      0.71943  0.47987  0.64757     C
N      0.71983  0.58317  0.93527     N
H      0.72353  0.18427  0.81727     H
H      0.72627  0.90213  0.04523     H
H      0.72963  0.29087  0.65307     H
H       0.7374   0.2528    0.988     H
H      0.73763  0.64347  0.99027     H
C       0.7391   0.2046   0.1004     C
C      0.73913  0.57667  0.88987     C
Cl     0.74691  0.69503   0.6841    Cl
H       0.7472   0.4846    0.988     H
H      0.74727  0.77973  0.27943     H
C       0.7477   0.5015   0.0195     C
N      0.75017  0.80333  0.60193     N
N      0.75053  0.16837  0.75027     N
N      0.75117  0.91613  0.41693     N
C      0.75133  0.63857  0.95887     C
N      0.75347  0.85503  0.31135     N
C       0.7536   0.5539   0.1093     C
C       0.7538   0.2523   0.0195     C
C      0.75433  0.18227  0.79867     C
H       0.7548   0.5729   0.1398     H
N      0.75603  0.22787  0.65936     N
C      0.75667  0.82913  0.55653     C
C      0.76043  0.28057  0.64757     C
H      0.76043  0.84857  0.80647     H
H      0.76083  0.07097  0.34307     H
C      0.76127  0.91233  0.46533     C
H      0.76453  0.15747  0.37857     H
N      0.76823  0.57987  0.64469     N
H       0.7721   0.3963   0.0136     H
N      0.77213  0.52817  0.65936     N
C      0.77287  0.81983  0.29193     C
H      0.77493  0.78937  0.74817     H
C      0.77943  0.08467  0.37447     C
C      0.77943  0.86637  0.77597     C
H      0.77973  0.03247  0.72057     H
C      0.78163  0.13667  0.39527     C
H      0.78553  0.14077  0.55487     H
C      0.78763  0.83067  0.74047     C
C      0.78863  0.62417  0.86697     C
H      0.78937  0.01443  0.25183     H
C       0.7907   0.5061   0.0545     C
H      0.79323  0.95207  0.79077     H
H      0.79407  0.94313  0.48393     H
H      0.79497  0.84623  0.54023     H
C       0.7954   0.5345   0.1004     C
C      0.79883  0.92757  0.76707     C
Cu     0.79938  0.97994  0.36095    Cu
C       0.8003   0.2464   0.1093     C
N      0.80333  0.05317  0.39807     N
C      0.80333  0.68837  0.93807     C
N      0.80517  0.91063  0.32602     N
H      0.80623  0.62197  0.45717     H
N      0.80653  0.61707  0.81727     N
N      0.80673  0.17287  0.73725     N
H      0.80743  0.68857  0.77847     H
N      0.81053  0.19347  0.81727     N
C      0.81063  0.15737  0.44267     C
N      0.81163  0.23177  0.64469     N
C      0.81273  0.65407  0.77727     C
N      0.81303  0.85277  0.69527     N
C       0.8132   0.4271   0.0191     C
N       0.8139   0.2936   0.0286     N
H      0.81573  0.19377  0.45717     H
H      0.81573  0.53927  0.81727     H
N      0.81683  0.31897  0.62587     N
C      0.81773  0.57207  0.79867     C
H      0.81793  0.40407  0.67867     H
H       0.8181   0.2452   0.1398     H
Cu     0.81943  0.79938  0.63905    Cu
C      0.81983  0.04697  0.70807     C
H      0.82043  0.28207  0.87357     H
C      0.82403  0.68007  0.89067     C
H      0.82413  0.72627  0.95477     H
C      0.82533  0.14607  0.55607     C
H       0.8255   0.5401   0.1241     H
N      0.82713  0.63387  0.73725     N
C      0.82723  0.95127  0.72117     C
C      0.82913  0.07247  0.44347     C
C      0.83067  0.04303  0.25953     C
C      0.83113  0.12197  0.46637     C
N       0.8312   0.4835   0.0408     N
N      0.83163  0.58217  0.75027     N
C      0.83183  0.91287  0.68617     C
Cu     0.83333  0.16667  0.66667    Cu
Cu     0.83333  0.66667  0.66667    Cu
C      0.83483  0.42047  0.64717     C
N      0.83503  0.75117  0.58307     N
N      0.83547  0.84983  0.29253     N
C      0.83553  0.21137  0.86697     C
C        0.836   0.2903   0.0738     C
C      0.83753  0.26087  0.88987     C
C      0.83943  0.38207  0.61217     C
N      0.83953  0.69947  0.59609     N
H      0.84117  0.79323  0.20923     H
C      0.84133  0.18727  0.77727     C
H      0.84253  0.60707  0.37857     H
C      0.84263  0.65327  0.44267     C
H      0.84623  0.05127  0.45977     H
C      0.84683  0.28637  0.62527     C
Cu     0.84723  0.53396  0.69429    Cu
H      0.84857  0.08813  0.19353     H
H      0.84873  0.92927  0.65467     H
C      0.84893  0.76127  0.53467     C
N      0.84983  0.01437  0.70747     N
H      0.85093  0.13957  0.87617     H
H      0.85093  0.79407  0.51607     H
N      0.85277  0.03973  0.30473     N
C      0.85347  0.90623  0.31423     C
N      0.85363  0.48057  0.63807     N
C      0.85393  0.67927  0.55607     C
N      0.85503  0.10157  0.68865     N
C      0.85603  0.17597  0.89067     C
N      0.85613  0.13987  0.51607     N
H      0.85923  0.64477  0.55487     H
N      0.85993  0.16047  0.59609     N
N      0.86013  0.71627  0.51607     N
H      0.86043  0.71137  0.87617     H
N       0.8615   0.4227  0.00731     N
N      0.86333  0.28017  0.93527     N
C      0.86333  0.64497  0.39527     C
C      0.86637  0.08693  0.22403     C
Cu     0.86729  0.35339  0.97238    Cu
C      0.86783  0.40577  0.56627     C
C      0.87127  0.79883  0.23293     C
H       0.8717   0.4871   0.7931     H
H       0.8726   0.3902   0.8494     H
H      0.87343  0.38127  0.54257     H
C      0.87597  0.82723  0.27883     C
H       0.8773   0.3189   0.0815     H
C      0.87803  0.70917  0.46637     C
C      0.87903  0.50267  0.59287     C
H      0.88113  0.19257  0.77847     H
C      0.88503  0.19667  0.93807     C
H      0.88693  0.30087  0.61277     H
C      0.88723  0.24867  0.95887     C
C      0.88723  0.46697  0.55737     C
H      0.89173  0.54397  0.58517     H
C       0.8938   0.5135   0.0414     C
N      0.89453  0.80517  0.67398     N
H      0.89457  0.93703  0.31973     H
N      0.89843  0.75347  0.68865     N
H      0.90213  0.17587  0.95477     H
C       0.9054    0.421    0.868     C
H      0.90583  0.26237  0.99027     H
C      0.90623  0.05277  0.68577     C
H      0.90623  0.48477  0.52687     H
C         0.91   0.5042   0.7768     C
N      0.91063  0.10547  0.67398     N
H      0.91187  0.76043  0.19353     H
C      0.91233  0.15107  0.53467     C
C      0.91287  0.08103  0.31383     C
C      0.91307  0.77943  0.22403     C
N       0.9132   0.4783  0.02198     N
C      0.91533  0.69477  0.37447     C
N       0.9155   0.4172   0.9164     N
N      0.91613  0.16497  0.58307     N
N       0.9165     0.53   0.7314     N
C      0.91897  0.83183  0.31383     C
H       0.9194   0.5536   0.0539     H
H      0.91947  0.84873  0.34533     H
Cl     0.91975  0.63831  0.64924    Cl
C      0.92753  0.75667  0.44347     C
C      0.92757  0.12873  0.23293     C
H      0.92903  0.68987  0.34307     H
H      0.92927  0.08053  0.34533     H
H      0.93703  0.04247  0.68027     H
H       0.9404   0.4312   0.2881     H
H      0.94313  0.14907  0.51607     H
N      0.94683  0.75017  0.39807     N
C      0.94723  0.85347  0.68577     C
Cl     0.94811  0.25309   0.6841    Cl
H      0.94873  0.79497  0.45977     H
N       0.9504   0.4772   0.8494     N
C      0.95127  0.12403  0.27883     C
H      0.95207  0.15883  0.20923     H
C      0.95303  0.77287  0.70807     C
H       0.9553   0.4824   0.2095     H
C      0.95697  0.78763  0.25953     C
C       0.9575   0.5022   0.7997     C
H      0.95753  0.89457  0.68027     H
N      0.96027  0.81303  0.30473     N
N       0.9672   0.4734  0.92942     N
H      0.96753  0.74727  0.72057     H
Cl     0.97164  0.38522  0.01743    Cl
C       0.9719   0.5539   0.7078     C
H       0.9768   0.5725   0.6764     H
H       0.9781   0.4522   0.1118     H
C       0.9783   0.4483   0.2714     C
Cu     0.97994  0.18057  0.63905    Cu
H      0.98557  0.77493  0.25183     H
N      0.98563  0.83547  0.70747     N
C       0.9866   0.4773    0.224     C
C       0.9874    0.508   0.8894     C
