data_I
_chemical_name_common  '/home/zhangsd/repos/MofS-CGCNN/ML/data/TSD/clean_cifs/LODPUR_clean'
_cell_length_a  7.80050
_cell_length_b 11.29470
_cell_length_c 13.15520
_cell_angle_alpha 82.71900
_cell_angle_beta  80.49900
_cell_angle_gamma 83.19400
_space_group_name_H-M_alt      'P 1'


loop_
_space_group_symop_operation_xyz
  'x, y, z' 

loop_
_atom_site_label
_atom_site_fract_x
_atom_site_fract_y
_atom_site_fract_z
_atom_site_type_symbol
C       0.0078   0.9519   0.4075     C
H       0.0134   0.9192   0.3455     H
C       0.0267   0.6095   0.9436     C
N       0.0377   0.6459   0.4778     N
H       0.0439   0.6836   0.9057     H
C       0.0589     0.64    0.641     C
H       0.0606   0.6389   0.4124     H
C       0.0737   0.9431   0.9139     C
H       0.1019   0.6268   0.7037     H
C       0.1049   0.0515   0.0548     C
N       0.1062   0.3084   0.3718     N
C       0.1135   0.3072   0.4713     C
H       0.1237   0.9057   0.8554     H
C       0.1388   0.4123   0.0062     C
C       0.1429   0.9782   0.5538     C
O       0.1433    0.151  0.19466     O
C       0.1478   0.9314   0.4605     C
C       0.1493   0.6112   0.5493     C
C       0.1684   0.5221   0.9489     C
C       0.1787   0.9927   0.9686     C
H        0.211   0.2776   0.5022     H
C       0.2195     0.11   0.1103     C
H       0.2313   0.3528   0.0108     H
H       0.2478   0.8854   0.4335     H
H       0.2822   0.5208   0.2097     H
Zn     0.28362   0.2353  0.26422    Zn
C       0.2939   0.9555   0.6091     C
H       0.2991   0.9868   0.9479     H
C       0.3285   0.5542   0.5228     C
N       0.3324   0.0345   0.6728     N
C       0.3419   0.5485   0.8955     C
H        0.344   0.4652   0.6639     H
H        0.348   0.7306   0.8714     H
H       0.3723   0.6214   0.3723     H
O       0.3742   0.1187   0.0747     O
C       0.3879   0.4817   0.1818     C
C       0.4064     0.48   0.5977     C
C       0.4083   0.6556   0.8627     C
C       0.4188    0.861   0.6143     C
N       0.4209   0.3643   0.1856     N
C       0.4231    0.573   0.4242     C
H       0.4256   0.7933   0.5797     H
N       0.4664   0.1199    0.322     N
H        0.471    0.386   0.8786     H
H       0.4714   0.9791   0.2428     H
N       0.4751   0.4623   0.8671     N
C       0.4759   0.9854   0.7119     C
C       0.5241   0.0146   0.2881     C
N       0.5249   0.5377   0.1329     N
H       0.5286   0.0209   0.7572     H
H        0.529    0.614   0.1214     H
N       0.5336   0.8801    0.678     N
H       0.5744   0.2067   0.4203     H
C       0.5769    0.427   0.5758     C
N       0.5791   0.6357   0.8144     N
C       0.5812    0.139   0.3857     C
C       0.5917   0.3444   0.1373     C
C       0.5936     0.52   0.4023     C
C       0.6121   0.5183   0.8182     C
O       0.6258   0.8813   0.9253     O
H       0.6277   0.3786   0.6277     H
H        0.652   0.2694   0.1286     H
H        0.656   0.5348   0.3361     H
C       0.6581   0.4515   0.1045     C
N       0.6676   0.9655   0.3272     N
C       0.6715   0.4458   0.4772     C
H       0.7009   0.0132   0.0521     H
C       0.7061   0.0445   0.3909     C
Zn     0.71638   0.7647  0.73578    Zn
H       0.7178   0.4792   0.7903     H
H       0.7522   0.1146   0.5665     H
H       0.7687   0.6472   0.9892     H
C       0.7805     0.89   0.8897     C
H        0.789   0.7224   0.4978     H
C       0.8213   0.0073   0.0314     C
C       0.8316   0.4779   0.0511     C
C       0.8507   0.3888   0.4507     C
C       0.8522   0.0686   0.5395     C
O       0.8567    0.849  0.80534     O
C       0.8571   0.0218   0.4462     C
C       0.8612   0.5877   0.9938     C
H       0.8763   0.0943   0.1446     H
C       0.8865   0.6928   0.5287     C
N       0.8938   0.6916   0.6282     N
C       0.8951   0.9485   0.9452     C
H       0.8981   0.3732   0.2963     H
C       0.9263   0.0569   0.0861     C
H       0.9394   0.3611   0.5876     H
C       0.9411     0.36    0.359     C
H       0.9561   0.3164   0.0943     H
N       0.9623   0.3541   0.5222     N
C       0.9733   0.3905   0.0564     C
H       0.9866   0.0808   0.6545     H
C       0.9922   0.0481   0.5925     C
