data_I
_chemical_name_common  '/home/zhangsd/repos/MofS-CGCNN/ML/data/TSD/clean_cifs/LOLREL_clean'
_cell_length_a 27.70560
_cell_length_b 23.39500
_cell_length_c 21.07090
_cell_angle_alpha 90.00000
_cell_angle_beta  113.91100
_cell_angle_gamma 90.00000
_space_group_name_H-M_alt      'P 1'


loop_
_space_group_symop_operation_xyz
  'x, y, z' 

loop_
_atom_site_label
_atom_site_fract_x
_atom_site_fract_y
_atom_site_fract_z
_atom_site_type_symbol
C          0.0      0.5      0.0     C
O      0.00061  0.27966  0.33227     O
O      0.00061  0.72034  0.33227     O
O      0.00101  0.20169  0.83191     O
O      0.00101  0.79831  0.83191     O
H       0.0341    0.266   0.4606     H
H       0.0341    0.734   0.4606     H
H       0.0358   0.2177   0.9609     H
H       0.0358   0.7823   0.9609     H
O      0.04323      0.5   0.0291     O
C      0.04661  0.29517   0.3454     C
C      0.04661  0.70483   0.3454     C
C       0.0483  0.18953  0.84637     C
C       0.0483  0.81047  0.84637     C
O      0.05112  0.26058  0.08306     O
O      0.05112  0.73942  0.08306     O
O      0.05404   0.2215  0.58593     O
O      0.05404   0.7785  0.58593     O
H       0.0569   0.3895   0.1253     H
H       0.0569   0.6105   0.1253     H
O      0.06272  0.30956  0.30015     O
O      0.06272  0.69044  0.30015     O
O      0.06537  0.17673  0.80164     O
O      0.06537  0.82327  0.80164     O
Tm     0.06592  0.26447  0.20622    Tm
Tm     0.06592  0.73553  0.20622    Tm
C       0.0687  0.27804  0.47255     C
C       0.0687  0.72196  0.47255     C
Tm     0.06975  0.22295  0.71001    Tm
Tm     0.06975  0.77705  0.71001    Tm
C      0.07068  0.20706  0.97266     C
C      0.07068  0.79294  0.97266     C
H        0.082   0.1011   0.6362     H
H        0.082   0.8989   0.6362     H
C      0.08537  0.29585  0.42081     C
C      0.08537  0.70415  0.42081     C
C      0.08713  0.18997  0.92108     C
C      0.08713  0.81003  0.92108     C
C      0.08877   0.2589   0.5975     C
C      0.08877   0.7411   0.5975     C
O      0.08952   0.2975  0.79774     O
O      0.08952   0.7025  0.79774     O
C      0.08963   0.2269  0.09724     C
C      0.08963   0.7731  0.09724     C
O      0.09291  0.19162  0.29383     O
O      0.09291  0.80838  0.29383     O
C       0.0933   0.3865   0.1502     C
C       0.0933   0.6135   0.1502     C
C      0.10444  0.27863  0.54176     C
C      0.10444  0.72137  0.54176     C
O      0.10588  0.34433  0.18948     O
O      0.10588  0.65567  0.18948     O
C      0.10654  0.20812  0.04153     C
C      0.10654  0.79188  0.04153     C
O      0.11211  0.28055  0.65775     O
O      0.11211  0.71945  0.65775     O
O      0.11503  0.20976  0.15925     O
O      0.11503  0.79024  0.15925     O
O      0.11613  0.42299  0.13741     O
O      0.11613  0.57701  0.13741     O
C       0.1162   0.1069   0.6691     C
C       0.1162   0.8931   0.6691     C
H       0.1209   0.3592   0.9079     H
H       0.1209   0.6408   0.9079     H
O      0.12231   0.1497  0.70535     O
O      0.12231   0.8503  0.70535     O
O      0.12403  0.43361  0.99724     O
O      0.12403  0.56639  0.99724     O
H       0.1265    0.137    0.412     H
H       0.1265    0.863    0.412     H
Tm     0.13382      0.5  0.08615    Tm
O      0.13689  0.06778  0.51275     O
O      0.13689  0.93222  0.51275     O
C      0.13741  0.31108   0.4386     C
C      0.13741  0.68892   0.4386     C
C        0.138  0.28282  0.82515     C
C        0.138  0.71718  0.82515     C
C      0.13993  0.21138  0.32259     C
C      0.13993  0.78862  0.32259     C
C      0.14012  0.17773  0.93855     C
C      0.14012  0.82227  0.93855     C
O       0.1479  0.07125  0.66986     O
O       0.1479  0.92875  0.66986     O
H       0.1483    0.322    0.404     H
H       0.1483    0.678    0.404     H
H       0.1511   0.1679   0.9037     H
H       0.1511   0.8321   0.9037     H
O      0.15333  0.25304  0.29638     O
O      0.15333  0.74696  0.29638     O
O      0.15534  0.24418  0.79959     O
O      0.15534  0.75582  0.79959     O
C      0.15602   0.2957  0.55843     C
C      0.15602   0.7043  0.55843     C
C      0.15687  0.35143  0.92444     C
C      0.15687  0.64857  0.92444     C
C        0.159  0.19318  0.05859     C
C        0.159  0.80682  0.05859     C
Tm     0.16118      0.0  0.60708    Tm
C      0.16193  0.14696    0.427     C
C      0.16193  0.85304    0.427     C
C      0.17214  0.41941    0.023     C
C      0.17214  0.58059    0.023     C
C      0.17405  0.31036   0.5081     C
C      0.17405  0.68964   0.5081     C
C      0.17526  0.31332  0.88919     C
C      0.17526  0.68668  0.88919     C
C      0.17749  0.17991  0.00766     C
C      0.17749  0.82009  0.00766     C
C      0.17819  0.18513  0.38849     C
C      0.17819  0.81487  0.38849     C
H       0.1793   0.2975   0.6049     H
H       0.1793   0.7025   0.6049     H
H       0.1823    0.192   0.1051     H
H       0.1823    0.808   0.1051     H
C      0.18443  0.08292     0.53     C
C      0.18443  0.91708     0.53     C
C      0.19158  0.37813  0.98419     C
C      0.19158  0.62187  0.98419     C
O      0.19409      0.5   0.1978     O
C      0.19906  0.12417  0.48765     C
C      0.19906  0.87583  0.48765     C
O      0.20266  0.43941  0.07914     O
O      0.20266  0.56059  0.07914     O
O      0.21885  0.06195  0.58312     O
O      0.21885  0.93805  0.58312     O
H        0.223   0.3769   0.4492     H
H        0.223   0.6231   0.4492     H
C      0.22803  0.30315  0.91283     C
C      0.22803  0.69685  0.91283     C
C      0.23051  0.32442  0.52878     C
C      0.23051  0.67558  0.52878     C
H       0.2308   0.1153   0.9522     H
H       0.2308   0.8847   0.9522     H
C      0.23082  0.19962  0.41094     C
C      0.23082  0.80038  0.41094     C
C      0.23443  0.16967  0.02821     C
C      0.23443  0.83033  0.02821     C
H        0.238      0.0   0.7875     H
O      0.23833      0.0   0.7028     O
C       0.2394      0.5   0.2354     C
H       0.2398   0.2771    0.889     H
H       0.2398   0.7229    0.889     H
C      0.24584  0.36707  0.00749     C
C      0.24584  0.63293  0.00749     C
H       0.2466   0.2252    0.384     H
H       0.2466   0.7748    0.384     H
C      0.24755  0.36148  0.49027     C
C      0.24755  0.63852  0.49027     C
C      0.25245  0.13852  0.50973     C
C      0.25245  0.86148  0.50973     C
H       0.2534   0.2748    0.616     H
H       0.2534   0.7252    0.616     H
C      0.25416  0.13293  0.99251     C
C      0.25416  0.86707  0.99251     C
H       0.2602   0.2229    0.111     H
H       0.2602   0.7771    0.111     H
C       0.2606      0.0   0.7646     C
O      0.26167      0.5   0.2972     O
H        0.262      0.5   0.2125     H
C      0.26557  0.33033  0.97179     C
C      0.26557  0.66967  0.97179     C
C      0.26918  0.30038  0.58906     C
C      0.26918  0.69962  0.58906     C
H       0.2692   0.3847   0.0478     H
H       0.2692   0.6153   0.0478     H
C      0.26949  0.17558  0.47122     C
C      0.26949  0.82442  0.47122     C
C      0.27197  0.19685  0.08717     C
C      0.27197  0.80315  0.08717     C
H        0.277   0.1231   0.5508     H
H        0.277   0.8769   0.5508     H
O      0.28115  0.43805  0.41688     O
O      0.28115  0.56195  0.41688     O
O      0.29734  0.06059  0.92086     O
O      0.29734  0.93941  0.92086     O
C      0.30094  0.37583  0.51235     C
C      0.30094  0.62417  0.51235     C
O      0.30591      0.0   0.8022     O
C      0.30842  0.12187  0.01581     C
C      0.30842  0.87813  0.01581     C
C      0.31557  0.41708     0.47     C
C      0.31557  0.58292     0.47     C
H       0.3177    0.308   0.8949     H
H       0.3177    0.692   0.8949     H
H       0.3207   0.2025   0.3951     H
H       0.3207   0.7975   0.3951     H
C      0.32181  0.31487  0.61151     C
C      0.32181  0.68513  0.61151     C
C      0.32251  0.32009  0.99234     C
C      0.32251  0.67991  0.99234     C
C      0.32474  0.18668  0.11081     C
C      0.32474  0.81332  0.11081     C
C      0.32595  0.18964   0.4919     C
C      0.32595  0.81036   0.4919     C
C      0.32786  0.08059    0.977     C
C      0.32786  0.91941    0.977     C
C      0.33807  0.35304    0.573     C
C      0.33807  0.64696    0.573     C
Tm     0.33882      0.5  0.39292    Tm
C        0.341  0.30682  0.94141     C
C        0.341  0.69318  0.94141     C
C      0.34313  0.14857  0.07556     C
C      0.34313  0.85143  0.07556     C
C      0.34398   0.2043  0.44157     C
C      0.34398   0.7957  0.44157     C
O      0.34466  0.25582  0.20041     O
O      0.34466  0.74418  0.20041     O
O      0.34667  0.24696  0.70362     O
O      0.34667  0.75304  0.70362     O
H       0.3489   0.3321   0.0963     H
H       0.3489   0.6679   0.0963     H
H       0.3517    0.178    0.596     H
H       0.3517    0.822    0.596     H
O       0.3521  0.42875  0.33014     O
O       0.3521  0.57125  0.33014     O
C      0.35988  0.32227  0.06145     C
C      0.35988  0.67773  0.06145     C
C      0.36007  0.28862  0.67741     C
C      0.36007  0.71138  0.67741     C
C        0.362  0.21718  0.17485     C
C        0.362  0.78282  0.17485     C
C      0.36259  0.18892   0.5614     C
C      0.36259  0.81108   0.5614     C
O      0.36311  0.43222  0.48725     O
O      0.36311  0.56778  0.48725     O
Tm     0.36618      0.0  0.91385    Tm
H       0.3735    0.363    0.588     H
H       0.3735    0.637    0.588     H
O      0.37597  0.06639  0.00276     O
O      0.37597  0.93361  0.00276     O
O      0.37769   0.3503  0.29465     O
O      0.37769   0.6497  0.29465     O
H       0.3791   0.1408   0.0921     H
H       0.3791   0.8592   0.0921     H
C       0.3838   0.3931   0.3309     C
C       0.3838   0.6069   0.3309     C
O      0.38387  0.07701  0.86259     O
O      0.38387  0.92299  0.86259     O
O      0.38497  0.29024  0.84075     O
O      0.38497  0.70976  0.84075     O
O      0.38789  0.21945  0.34225     O
O      0.38789  0.78055  0.34225     O
C      0.39346  0.29188  0.95847     C
C      0.39346  0.70812  0.95847     C
O      0.39412  0.15567  0.81052     O
O      0.39412  0.84433  0.81052     O
C      0.39556  0.22137  0.45824     C
C      0.39556  0.77863  0.45824     C
C       0.4067   0.1135   0.8498     C
C       0.4067   0.8865   0.8498     C
O      0.40709  0.30838  0.70617     O
O      0.40709  0.69162  0.70617     O
C      0.41037   0.2731  0.90276     C
C      0.41037   0.7269  0.90276     C
O      0.41048   0.2025  0.20226     O
O      0.41048   0.7975  0.20226     O
C      0.41123   0.2411   0.4025     C
C      0.41123   0.7589   0.4025     C
C      0.41287  0.31003  0.07892     C
C      0.41287  0.68997  0.07892     C
C      0.41463  0.20415  0.57919     C
C      0.41463  0.79585  0.57919     C
H        0.418   0.3989   0.3638     H
H        0.418   0.6011   0.3638     H
C      0.42932  0.29294  0.02734     C
C      0.42932  0.70706  0.02734     C
Tm     0.43025  0.27705  0.28999    Tm
Tm     0.43025  0.72295  0.28999    Tm
C       0.4313  0.22196  0.52745     C
C       0.4313  0.77804  0.52745     C
Tm     0.43408  0.23553  0.79378    Tm
Tm     0.43408  0.76447  0.79378    Tm
O      0.43463  0.32327  0.19836     O
O      0.43463  0.67673  0.19836     O
O      0.43728  0.19044  0.69985     O
O      0.43728  0.80956  0.69985     O
H       0.4431   0.1105   0.8747     H
H       0.4431   0.8895   0.8747     H
O      0.44596   0.2785  0.41407     O
O      0.44596   0.7215  0.41407     O
O      0.44888  0.23942  0.91694     O
O      0.44888  0.76058  0.91694     O
C       0.4517  0.31047  0.15363     C
C       0.4517  0.68953  0.15363     C
C      0.45339  0.20483   0.6546     C
C      0.45339  0.79517   0.6546     C
O      0.45677      0.0   0.9709     O
H       0.4642   0.2823   0.0391     H
H       0.4642   0.7177   0.0391     H
H       0.4659    0.234   0.5394     H
H       0.4659    0.766   0.5394     H
O      0.49899  0.29831  0.16809     O
O      0.49899  0.70169  0.16809     O
O      0.49939  0.22034  0.66773     O
O      0.49939  0.77966  0.66773     O
C          0.5      0.0      0.0     C
O      0.50061  0.22034  0.33227     O
O      0.50061  0.77966  0.33227     O
O      0.50101  0.29831  0.83191     O
O      0.50101  0.70169  0.83191     O
H       0.5341    0.234   0.4606     H
H       0.5341    0.766   0.4606     H
H       0.5358   0.2823   0.9609     H
H       0.5358   0.7177   0.9609     H
O      0.54323      0.0   0.0291     O
C      0.54661  0.20483   0.3454     C
C      0.54661  0.79517   0.3454     C
C       0.5483  0.31047  0.84637     C
C       0.5483  0.68953  0.84637     C
O      0.55112  0.23942  0.08306     O
O      0.55112  0.76058  0.08306     O
O      0.55404   0.2785  0.58593     O
O      0.55404   0.7215  0.58593     O
H       0.5569   0.1105   0.1253     H
H       0.5569   0.8895   0.1253     H
O      0.56272  0.19044  0.30015     O
O      0.56272  0.80956  0.30015     O
O      0.56537  0.32327  0.80164     O
O      0.56537  0.67673  0.80164     O
Tm     0.56592  0.23553  0.20622    Tm
Tm     0.56592  0.76447  0.20622    Tm
C       0.5687  0.22196  0.47255     C
C       0.5687  0.77804  0.47255     C
Tm     0.56975  0.27705  0.71001    Tm
Tm     0.56975  0.72295  0.71001    Tm
C      0.57068  0.29294  0.97266     C
C      0.57068  0.70706  0.97266     C
H        0.582   0.3989   0.6362     H
H        0.582   0.6011   0.6362     H
C      0.58537  0.20415  0.42081     C
C      0.58537  0.79585  0.42081     C
C      0.58713  0.31003  0.92108     C
C      0.58713  0.68997  0.92108     C
C      0.58877   0.2411   0.5975     C
C      0.58877   0.7589   0.5975     C
O      0.58952   0.2025  0.79774     O
O      0.58952   0.7975  0.79774     O
C      0.58963   0.2731  0.09724     C
C      0.58963   0.7269  0.09724     C
O      0.59291  0.30838  0.29383     O
O      0.59291  0.69162  0.29383     O
C       0.5933   0.1135   0.1502     C
C       0.5933   0.8865   0.1502     C
C      0.60444  0.22137  0.54176     C
C      0.60444  0.77863  0.54176     C
O      0.60588  0.15567  0.18948     O
O      0.60588  0.84433  0.18948     O
C      0.60654  0.29188  0.04153     C
C      0.60654  0.70812  0.04153     C
O      0.61211  0.21945  0.65775     O
O      0.61211  0.78055  0.65775     O
O      0.61503  0.29024  0.15925     O
O      0.61503  0.70976  0.15925     O
O      0.61613  0.07701  0.13741     O
O      0.61613  0.92299  0.13741     O
C       0.6162   0.3931   0.6691     C
C       0.6162   0.6069   0.6691     C
H       0.6209   0.1408   0.9079     H
H       0.6209   0.8592   0.9079     H
O      0.62231   0.3503  0.70535     O
O      0.62231   0.6497  0.70535     O
O      0.62403  0.06639  0.99724     O
O      0.62403  0.93361  0.99724     O
H       0.6265    0.363    0.412     H
H       0.6265    0.637    0.412     H
Tm     0.63382      0.0  0.08615    Tm
O      0.63689  0.43222  0.51275     O
O      0.63689  0.56778  0.51275     O
C      0.63741  0.18892   0.4386     C
C      0.63741  0.81108   0.4386     C
C        0.638  0.21718  0.82515     C
C        0.638  0.78282  0.82515     C
C      0.63993  0.28862  0.32259     C
C      0.63993  0.71138  0.32259     C
C      0.64012  0.32227  0.93855     C
C      0.64012  0.67773  0.93855     C
O       0.6479  0.42875  0.66986     O
O       0.6479  0.57125  0.66986     O
H       0.6483    0.178    0.404     H
H       0.6483    0.822    0.404     H
H       0.6511   0.3321   0.9037     H
H       0.6511   0.6679   0.9037     H
O      0.65333  0.24696  0.29638     O
O      0.65333  0.75304  0.29638     O
O      0.65534  0.25582  0.79959     O
O      0.65534  0.74418  0.79959     O
C      0.65602   0.2043  0.55843     C
C      0.65602   0.7957  0.55843     C
C      0.65687  0.14857  0.92444     C
C      0.65687  0.85143  0.92444     C
C        0.659  0.30682  0.05859     C
C        0.659  0.69318  0.05859     C
Tm     0.66118      0.5  0.60708    Tm
C      0.66193  0.35304    0.427     C
C      0.66193  0.64696    0.427     C
C      0.67214  0.08059    0.023     C
C      0.67214  0.91941    0.023     C
C      0.67405  0.18964   0.5081     C
C      0.67405  0.81036   0.5081     C
C      0.67526  0.18668  0.88919     C
C      0.67526  0.81332  0.88919     C
C      0.67749  0.32009  0.00766     C
C      0.67749  0.67991  0.00766     C
C      0.67819  0.31487  0.38849     C
C      0.67819  0.68513  0.38849     C
H       0.6793   0.2025   0.6049     H
H       0.6793   0.7975   0.6049     H
H       0.6823    0.308   0.1051     H
H       0.6823    0.692   0.1051     H
C      0.68443  0.41708     0.53     C
C      0.68443  0.58292     0.53     C
C      0.69158  0.12187  0.98419     C
C      0.69158  0.87813  0.98419     C
O      0.69409      0.0   0.1978     O
C      0.69906  0.37583  0.48765     C
C      0.69906  0.62417  0.48765     C
O      0.70266  0.06059  0.07914     O
O      0.70266  0.93941  0.07914     O
O      0.71885  0.43805  0.58312     O
O      0.71885  0.56195  0.58312     O
H        0.723   0.1231   0.4492     H
H        0.723   0.8769   0.4492     H
C      0.72803  0.19685  0.91283     C
C      0.72803  0.80315  0.91283     C
C      0.73051  0.17558  0.52878     C
C      0.73051  0.82442  0.52878     C
H       0.7308   0.3847   0.9522     H
H       0.7308   0.6153   0.9522     H
C      0.73082  0.30038  0.41094     C
C      0.73082  0.69962  0.41094     C
C      0.73443  0.33033  0.02821     C
C      0.73443  0.66967  0.02821     C
H        0.738      0.5   0.7875     H
O      0.73833      0.5   0.7028     O
C       0.7394      0.0   0.2354     C
H       0.7398   0.2229    0.889     H
H       0.7398   0.7771    0.889     H
C      0.74584  0.13293  0.00749     C
C      0.74584  0.86707  0.00749     C
H       0.7466   0.2748    0.384     H
H       0.7466   0.7252    0.384     H
C      0.74755  0.13852  0.49027     C
C      0.74755  0.86148  0.49027     C
C      0.75245  0.36148  0.50973     C
C      0.75245  0.63852  0.50973     C
H       0.7534   0.2252    0.616     H
H       0.7534   0.7748    0.616     H
C      0.75416  0.36707  0.99251     C
C      0.75416  0.63293  0.99251     C
H       0.7602   0.2771    0.111     H
H       0.7602   0.7229    0.111     H
C       0.7606      0.5   0.7646     C
O      0.76167      0.0   0.2972     O
H        0.762      0.0   0.2125     H
C      0.76557  0.16967  0.97179     C
C      0.76557  0.83033  0.97179     C
C      0.76918  0.19962  0.58906     C
C      0.76918  0.80038  0.58906     C
H       0.7692   0.1153   0.0478     H
H       0.7692   0.8847   0.0478     H
C      0.76949  0.32442  0.47122     C
C      0.76949  0.67558  0.47122     C
C      0.77197  0.30315  0.08717     C
C      0.77197  0.69685  0.08717     C
H        0.777   0.3769   0.5508     H
H        0.777   0.6231   0.5508     H
O      0.78115  0.06195  0.41688     O
O      0.78115  0.93805  0.41688     O
O      0.79734  0.43941  0.92086     O
O      0.79734  0.56059  0.92086     O
C      0.80094  0.12417  0.51235     C
C      0.80094  0.87583  0.51235     C
O      0.80591      0.5   0.8022     O
C      0.80842  0.37813  0.01581     C
C      0.80842  0.62187  0.01581     C
C      0.81557  0.08292     0.47     C
C      0.81557  0.91708     0.47     C
H       0.8177    0.192   0.8949     H
H       0.8177    0.808   0.8949     H
H       0.8207   0.2975   0.3951     H
H       0.8207   0.7025   0.3951     H
C      0.82181  0.18513  0.61151     C
C      0.82181  0.81487  0.61151     C
C      0.82251  0.17991  0.99234     C
C      0.82251  0.82009  0.99234     C
C      0.82474  0.31332  0.11081     C
C      0.82474  0.68668  0.11081     C
C      0.82595  0.31036   0.4919     C
C      0.82595  0.68964   0.4919     C
C      0.82786  0.41941    0.977     C
C      0.82786  0.58059    0.977     C
C      0.83807  0.14696    0.573     C
C      0.83807  0.85304    0.573     C
Tm     0.83882      0.0  0.39292    Tm
C        0.841  0.19318  0.94141     C
C        0.841  0.80682  0.94141     C
C      0.84313  0.35143  0.07556     C
C      0.84313  0.64857  0.07556     C
C      0.84398   0.2957  0.44157     C
C      0.84398   0.7043  0.44157     C
O      0.84466  0.24418  0.20041     O
O      0.84466  0.75582  0.20041     O
O      0.84667  0.25304  0.70362     O
O      0.84667  0.74696  0.70362     O
H       0.8489   0.1679   0.0963     H
H       0.8489   0.8321   0.0963     H
H       0.8517    0.322    0.596     H
H       0.8517    0.678    0.596     H
O       0.8521  0.07125  0.33014     O
O       0.8521  0.92875  0.33014     O
C      0.85988  0.17773  0.06145     C
C      0.85988  0.82227  0.06145     C
C      0.86007  0.21138  0.67741     C
C      0.86007  0.78862  0.67741     C
C        0.862  0.28282  0.17485     C
C        0.862  0.71718  0.17485     C
C      0.86259  0.31108   0.5614     C
C      0.86259  0.68892   0.5614     C
O      0.86311  0.06778  0.48725     O
O      0.86311  0.93222  0.48725     O
Tm     0.86618      0.5  0.91385    Tm
H       0.8735    0.137    0.588     H
H       0.8735    0.863    0.588     H
O      0.87597  0.43361  0.00276     O
O      0.87597  0.56639  0.00276     O
O      0.87769   0.1497  0.29465     O
O      0.87769   0.8503  0.29465     O
H       0.8791   0.3592   0.0921     H
H       0.8791   0.6408   0.0921     H
C       0.8838   0.1069   0.3309     C
C       0.8838   0.8931   0.3309     C
O      0.88387  0.42299  0.86259     O
O      0.88387  0.57701  0.86259     O
O      0.88497  0.20976  0.84075     O
O      0.88497  0.79024  0.84075     O
O      0.88789  0.28055  0.34225     O
O      0.88789  0.71945  0.34225     O
C      0.89346  0.20812  0.95847     C
C      0.89346  0.79188  0.95847     C
O      0.89412  0.34433  0.81052     O
O      0.89412  0.65567  0.81052     O
C      0.89556  0.27863  0.45824     C
C      0.89556  0.72137  0.45824     C
C       0.9067   0.3865   0.8498     C
C       0.9067   0.6135   0.8498     C
O      0.90709  0.19162  0.70617     O
O      0.90709  0.80838  0.70617     O
C      0.91037   0.2269  0.90276     C
C      0.91037   0.7731  0.90276     C
O      0.91048   0.2975  0.20226     O
O      0.91048   0.7025  0.20226     O
C      0.91123   0.2589   0.4025     C
C      0.91123   0.7411   0.4025     C
C      0.91287  0.18997  0.07892     C
C      0.91287  0.81003  0.07892     C
C      0.91463  0.29585  0.57919     C
C      0.91463  0.70415  0.57919     C
H        0.918   0.1011   0.3638     H
H        0.918   0.8989   0.3638     H
C      0.92932  0.20706  0.02734     C
C      0.92932  0.79294  0.02734     C
Tm     0.93025  0.22295  0.28999    Tm
Tm     0.93025  0.77705  0.28999    Tm
C       0.9313  0.27804  0.52745     C
C       0.9313  0.72196  0.52745     C
Tm     0.93408  0.26447  0.79378    Tm
Tm     0.93408  0.73553  0.79378    Tm
O      0.93463  0.17673  0.19836     O
O      0.93463  0.82327  0.19836     O
O      0.93728  0.30956  0.69985     O
O      0.93728  0.69044  0.69985     O
H       0.9431   0.3895   0.8747     H
H       0.9431   0.6105   0.8747     H
O      0.94596   0.2215  0.41407     O
O      0.94596   0.7785  0.41407     O
O      0.94888  0.26058  0.91694     O
O      0.94888  0.73942  0.91694     O
C       0.9517  0.18953  0.15363     C
C       0.9517  0.81047  0.15363     C
C      0.95339  0.29517   0.6546     C
C      0.95339  0.70483   0.6546     C
O      0.95677      0.5   0.9709     O
H       0.9642   0.2177   0.0391     H
H       0.9642   0.7823   0.0391     H
H       0.9659    0.266   0.5394     H
H       0.9659    0.734   0.5394     H
O      0.99899  0.20169  0.16809     O
O      0.99899  0.79831  0.16809     O
O      0.99939  0.27966  0.66773     O
O      0.99939  0.72034  0.66773     O
