data_I
_chemical_name_common  '/home/zhangsd/repos/MofS-CGCNN/ML/data/TSD/clean_cifs/LUBNAZ_clean'
_cell_length_a 17.20650
_cell_length_b 17.20650
_cell_length_c 17.20650
_cell_angle_alpha 62.56430
_cell_angle_beta  74.35810
_cell_angle_gamma 105.64200
_space_group_name_H-M_alt      'P 1'


loop_
_space_group_symop_operation_xyz
  'x, y, z' 

loop_
_atom_site_label
_atom_site_fract_x
_atom_site_fract_y
_atom_site_fract_z
_atom_site_type_symbol
C       0.0091    0.013   0.3611     C
C       0.0091   0.1389    0.487     C
O      0.01147  0.07284  0.56385     O
O      0.01147  0.93615  0.42716     O
H       0.0388   0.6773   0.7097     H
H       0.0388   0.7903   0.8227     H
O       0.0765    0.101   0.3023     O
O       0.0765   0.1977    0.399     O
C       0.0772   0.5741   0.7813     C
C       0.0772   0.7187   0.9259     C
C       0.0879   0.6635   0.7034     C
C       0.0879   0.7966   0.8365     C
O      0.10414  0.82754    0.535     O
O      0.10414    0.965  0.67246     O
Co     0.13282  0.07681  0.54543    Co
Co     0.13282  0.95457  0.42319    Co
H       0.1479   0.4957   0.8128     H
H       0.1479   0.6872   0.0043     H
C       0.1524   0.5546    0.765     C
C       0.1524    0.735   0.9454     C
C        0.169     0.73   0.6192     C
C        0.169   0.8808     0.77     C
O      0.17478  0.06549  0.43451     O
Zn     0.17866  0.18428  0.31572    Zn
C        0.185    0.829   0.5302     C
C        0.185   0.9698    0.671     C
O      0.21276  0.00746  0.28746     O
O      0.21276  0.21254  0.49254     O
C       0.2326   0.6223   0.6787     C
C       0.2326   0.8213   0.8777     C
C       0.2431   0.7117   0.6046     C
C       0.2431   0.8954   0.7883     C
O      0.25729  0.03079   0.6055     O
O      0.25729   0.8945  0.46921     O
C      0.25786  0.10067  0.21401     C
C      0.25786  0.28599  0.39933     C
O      0.27066  0.16876  0.22264     O
O      0.27066  0.27736  0.33124     O
O      0.29492  0.50746   0.7053     O
O      0.29492   0.7947  0.99254     O
H       0.2981   0.7574   0.5475     H
H       0.2981   0.9525   0.7426     H
C        0.301   0.1223   0.1103     C
C        0.301   0.3897   0.3777     C
H       0.3049   0.2574   0.0407     H
H       0.3049   0.4593   0.2426     H
H       0.3085   0.3478   0.5043     H
H       0.3085   0.9957   0.1522     H
C      0.31468  0.60067  0.65719     C
C      0.31468  0.84281  0.89933     C
C       0.3163   0.2117   0.0314     C
C       0.3163   0.4686   0.2883     C
C       0.3196   0.0546   0.0978     C
C       0.3196   0.4022   0.4454     C
C       0.3492     0.23    0.939     C
C       0.3492    0.561     0.27     C
C       0.3554   0.0741   0.0031     C
C       0.3554   0.4969   0.4259     C
C       0.3592    0.329    0.856     C
C       0.3592    0.644    0.171     C
O      0.36254  0.32754   0.7766     O
O      0.36254   0.7234  0.17246     O
O      0.36331  0.43615  0.57532     O
O      0.36331  0.92468  0.06385     O
O      0.36371   0.3945  0.86279     O
O      0.36371  0.63721   0.1055     O
C       0.3669   0.1635   0.9244     C
C       0.3669   0.5756   0.3365     C
C       0.3741   0.0039    0.987     C
C       0.3741    0.513   0.4961     C
Co     0.37776  0.45457  0.67825    Co
Co     0.37776  0.82175  0.04543    Co
H        0.387   0.1773   0.8615     H
H        0.387   0.6385   0.3227     H
O       0.3914  0.66876   0.6019     O
O       0.3914   0.8981  0.83124     O
O       0.4033   0.0245    0.899     O
O       0.4033    0.601   0.4755     O
Zn         0.5  0.00562  0.81572    Zn
O          0.5  0.56549  0.60929     O
Zn         0.5  0.68428  0.49438    Zn
O          0.5  0.89071  0.93451     O
O       0.5967   0.1212   0.8023     O
O       0.5967   0.6977   0.3788     O
O       0.6086   0.0067  0.72264     O
O       0.6086  0.77736   0.4933     O
H        0.613   0.2903   0.7485     H
H        0.613   0.7515   0.2097     H
Co     0.62224  0.57681  0.55601    Co
Co     0.62224  0.94399  0.92319    Co
C       0.6259   0.1298   0.8611     C
C       0.6259   0.6389   0.3702     C
C       0.6331   0.2966   0.7913     C
C       0.6331   0.7087   0.2034     C
O      0.63629  0.53079   0.7265     O
O      0.63629   0.7735  0.96921     O
O      0.63669  0.06137  0.92716     O
O      0.63669  0.57284  0.43863     O
O      0.63746    0.465  0.63914     O
O      0.63746  0.86086    0.035     O
C       0.6408   0.4698   0.7152     C
C       0.6408   0.7848   0.0302     C
C       0.6446   0.2187   0.8585     C
C       0.6446   0.6415   0.2813     C
C       0.6508   0.3808   0.7882     C
C       0.6508   0.7118   0.1192     C
C       0.6804    0.235   0.9174     C
C       0.6804   0.5826    0.265     C
C       0.6837   0.3954   0.8477     C
C       0.6837   0.6523   0.1046     C
C      0.68532  0.02813  0.71401     C
C      0.68532  0.78599  0.47187     C
H       0.6915   0.1872   0.9607     H
H       0.6915   0.5393   0.3128     H
H       0.6951   0.4525   0.8456     H
H       0.6951   0.6544   0.0475     H
C        0.699   0.3213   0.9113     C
C        0.699   0.5887   0.1787     C
H       0.7019   0.1544   0.5407     H
H       0.7019   0.9593   0.3456     H
O      0.70508  0.71254  0.50022     O
O      0.70508  0.99978  0.78746     O
O      0.72934   0.3981   0.9933     O
O      0.72934   0.5067   0.1019     O
C      0.74214  0.34281  0.97187     C
C      0.74214  0.52813  0.15719     C
O      0.74271  0.13721   0.2265     O
O      0.74271   0.2735  0.36279     O
C       0.7569   0.1523   0.5314     C
C       0.7569   0.9686   0.3477     C
C       0.7674   0.0887   0.6103     C
C       0.7674   0.8897   0.4113     C
O      0.78724   0.2947  0.00022     O
O      0.78724  0.49978   0.2053     O
C        0.815    0.144   0.2152     C
C        0.815   0.2848    0.356     C
Zn     0.82134  0.50562  0.99438    Zn
O      0.82522  0.39071  0.10929     O
C        0.831    0.061   0.2882     C
C        0.831   0.2118    0.439     C
C       0.8476   0.0826   0.5978     C
C       0.8476   0.9022   0.4174     C
H       0.8521   0.0393   0.6522     H
H       0.8521   0.8478   0.4607     H
Co     0.86718  0.32175  0.05601    Co
Co     0.86718  0.44399  0.17825    Co
O      0.89586   0.2234  0.13914     O
O      0.89586  0.36086   0.2766     O
C       0.9121   0.0756   0.2913     C
C       0.9121   0.2087   0.4244     C
C       0.9228   0.1415   0.5031     C
C       0.9228   0.9969   0.3585     C
O       0.9235   0.5245   0.8788     O
O       0.9235   0.6212   0.9755     O
H       0.9612   0.1385   0.2485     H
H       0.9612   0.2515   0.3615     H
O      0.98853  0.42468  0.93863     O
O      0.98853  0.56137  0.07532     O
C       0.9909   0.5039   0.8702     C
C       0.9909   0.6298   0.9961     C
