data_I
_chemical_name_common  '/home/zhangsd/repos/MofS-CGCNN/ML/data/TSD/clean_cifs/LUFNAC04_clean'
_cell_length_a 11.88700
_cell_length_b 11.88700
_cell_length_c 16.35500
_cell_angle_alpha 73.37590
_cell_angle_beta  73.37590
_cell_angle_gamma 78.41940
_space_group_name_H-M_alt      'P 1'


loop_
_space_group_symop_operation_xyz
  'x, y, z' 

loop_
_atom_site_label
_atom_site_fract_x
_atom_site_fract_y
_atom_site_fract_z
_atom_site_type_symbol
H       0.0201   0.4261   0.9534     H
C       0.0207   0.4269   0.8962     C
C       0.0232   0.4268   0.7262     C
C       0.0233   0.4269   0.6335     C
O       0.0691   0.5367   0.3921     O
C       0.0771   0.5199   0.2227     C
C       0.0784    0.518   0.1376     C
C        0.119    0.374   0.8448     C
O       0.1204   0.3866   0.5876     O
C       0.1205   0.3731   0.7597     C
H       0.1428    0.486   0.2454     H
H       0.1666   0.4526   0.0372     H
Mn     0.16757  0.38413  0.45333    Mn
N       0.1736   0.4618   0.0858     N
H       0.1865   0.3367   0.7255     H
O       0.2151   0.3039   0.9637     O
C       0.2222   0.3108   0.8833     C
H       0.2264   0.5858   0.5182     H
O       0.2626    0.311   0.3362     O
H       0.2669   0.3781   0.1729     H
C       0.2838   0.4186    0.111     C
H       0.2938   0.6362    0.003     H
C       0.2975   0.5773   0.4765     C
O       0.3039   0.2151   0.4637     O
C       0.3108   0.2222   0.3833     C
O        0.311   0.2626   0.8362     O
N       0.3135   0.4947   0.4317     N
H       0.3282   0.3608   0.0781     H
H       0.3367   0.1865   0.2255     H
C       0.3501   0.6197   0.0357     C
C       0.3599   0.5121   0.0962     C
H       0.3608   0.3282   0.5781     H
H       0.3638   0.7062    0.497     H
C       0.3731   0.1205   0.2597     C
C        0.374    0.119   0.3448     C
H       0.3781   0.2669   0.6729     H
C       0.3803   0.6499   0.4643     C
Mn     0.38413  0.16757  0.95333    Mn
O       0.3866   0.1204   0.0876     O
H       0.4142   0.7736   0.9818     H
C       0.4177   0.4829   0.3771     C
C       0.4186   0.2838    0.611     C
C       0.4227   0.7025   0.0235     C
H        0.423   0.4338   0.8476     H
H       0.4239   0.4587   0.6803     H
H       0.4261   0.0201   0.4534     H
C       0.4268   0.0232   0.2262     C
C       0.4269   0.0207   0.3962     C
C       0.4269   0.0233   0.1335     C
H       0.4338    0.423   0.3476     H
C       0.4467   0.4949   0.1394     C
H       0.4526   0.1666   0.5372     H
H       0.4587   0.4239   0.1803     H
N       0.4618   0.1736   0.5858     N
O       0.4633   0.9309   0.1079     O
C       0.4801   0.9229   0.2773     C
C        0.482   0.9216   0.3624     C
C       0.4829   0.4177   0.8771     C
H        0.486   0.1428   0.7454     H
C       0.4879   0.6401   0.4038     C
N       0.4947   0.3135   0.9317     N
C       0.4949   0.4467   0.6394     C
C       0.5051   0.5533   0.3606     C
N       0.5053   0.6865   0.0683     N
C       0.5121   0.3599   0.5962     C
H        0.514   0.8572   0.2546     H
C       0.5171   0.5823   0.1229     C
C        0.518   0.0784   0.6376     C
C       0.5199   0.0771   0.7227     C
O       0.5367   0.0691   0.8921     O
N       0.5382   0.8264   0.4142     N
H       0.5413   0.5761   0.8197     H
H       0.5474   0.8334   0.4628     H
C       0.5533   0.5051   0.8606     C
H       0.5662    0.577   0.6524     H
C       0.5731   0.9767   0.8665     C
C       0.5731   0.9793   0.6038     C
C       0.5732   0.9768   0.7738     C
H       0.5739   0.9799   0.5466     H
H       0.5761   0.5413   0.3197     H
H        0.577   0.5662   0.1524     H
C       0.5773   0.2975   0.9765     C
C       0.5814   0.7162    0.389     C
C       0.5823   0.5171   0.6229     C
H       0.5858   0.2264   0.0182     H
O       0.6134   0.8796   0.9124     O
Mn     0.61587  0.83243  0.04667    Mn
C       0.6197   0.3501   0.5357     C
H       0.6219   0.7331   0.3271     H
C        0.626    0.881   0.6552     C
C       0.6269   0.8795   0.7403     C
H       0.6362   0.2938    0.503     H
H       0.6392   0.6718   0.4219     H
C       0.6401   0.4879   0.9038     C
C       0.6499   0.3803   0.9643     C
H       0.6633   0.8135   0.7745     H
H       0.6718   0.6392   0.9219     H
N       0.6865   0.5053   0.5683     N
O        0.689   0.7374   0.1638     O
C       0.6892   0.7778   0.6167     C
O       0.6961   0.7849   0.5363     O
C       0.7025   0.4227   0.5235     C
H       0.7062   0.3638    0.997     H
C       0.7162   0.5814    0.889     C
H       0.7331   0.6219   0.8271     H
O       0.7374    0.689   0.6638     O
H       0.7736   0.4142   0.4818     H
C       0.7778   0.6892   0.1167     C
O       0.7849   0.6961   0.0363     O
H       0.8135   0.6633   0.2745     H
N       0.8264   0.5382   0.9142     N
Mn     0.83243  0.61587  0.54667    Mn
H       0.8334   0.5474   0.9628     H
H       0.8572    0.514   0.7546     H
C       0.8795   0.6269   0.2403     C
O       0.8796   0.6134   0.4124     O
C        0.881    0.626   0.1552     C
C       0.9216    0.482   0.8624     C
C       0.9229   0.4801   0.7773     C
O       0.9309   0.4633   0.6079     O
C       0.9767   0.5731   0.3665     C
C       0.9768   0.5732   0.2738     C
C       0.9793   0.5731   0.1038     C
H       0.9799   0.5739   0.0466     H
