data_I
_chemical_name_common  '/home/zhangsd/repos/MofS-CGCNN/ML/data/TSD/clean_cifs/LUFNAC02_clean'
_cell_length_a 11.87600
_cell_length_b 11.87600
_cell_length_c 16.34100
_cell_angle_alpha 73.36070
_cell_angle_beta  73.36070
_cell_angle_gamma 78.38130
_space_group_name_H-M_alt      'P 1'


loop_
_space_group_symop_operation_xyz
  'x, y, z' 

loop_
_atom_site_label
_atom_site_fract_x
_atom_site_fract_y
_atom_site_fract_z
_atom_site_type_symbol
H       0.0179   0.4267    0.953     H
C        0.019   0.4276   0.8956     C
C       0.0233   0.4271   0.7255     C
C       0.0243   0.4273   0.6336     C
O       0.0701   0.5363   0.3917     O
C       0.0774   0.5202   0.2223     C
C       0.0792   0.5176   0.1374     C
C       0.1185   0.3745   0.8454     C
O       0.1202   0.3854   0.5881     O
C       0.1203   0.3737   0.7604     C
H       0.1437   0.4867   0.2447     H
H        0.167    0.453    0.037     H
Mn     0.16756  0.38404  0.45324    Mn
N        0.174    0.462   0.0856     N
H       0.1866   0.3372   0.7266     H
O       0.2148   0.3038   0.9635     O
C       0.2218     0.31   0.8836     C
H       0.2248   0.5872   0.5159     H
O       0.2631   0.3107   0.3358     O
H        0.267    0.378   0.1726     H
C       0.2839   0.4187   0.1106     C
H       0.2935   0.6335   0.0018     H
C       0.2969   0.5775   0.4753     C
O       0.3038   0.2148   0.4635     O
C         0.31   0.2218   0.3836     C
O       0.3107   0.2631   0.8358     O
N       0.3128   0.4954   0.4317     N
H       0.3284   0.3612   0.0776     H
H       0.3372   0.1866   0.2266     H
C       0.3487   0.6181   0.0354     C
C       0.3597   0.5135   0.0958     C
H       0.3612   0.3284   0.5776     H
H       0.3665   0.7065   0.4982     H
C       0.3737   0.1203   0.2604     C
C       0.3745   0.1185   0.3454     C
H        0.378    0.267   0.6726     H
C       0.3819   0.6513   0.4646     C
Mn     0.38404  0.16756  0.95324    Mn
O       0.3854   0.1202   0.0881     O
H       0.4128   0.7752   0.9841     H
C       0.4187   0.2839   0.6106     C
C       0.4196   0.4826    0.377     C
H       0.4217   0.4365   0.8482     H
C       0.4225   0.7031   0.0247     C
H        0.423   0.4596   0.6804     H
H       0.4267   0.0179    0.453     H
C       0.4271   0.0233   0.2255     C
C       0.4273   0.0243   0.1336     C
C       0.4276    0.019   0.3956     C
H       0.4365   0.4217   0.3482     H
C       0.4478   0.4944   0.1397     C
H        0.453    0.167    0.537     H
H       0.4596    0.423   0.1804     H
N        0.462    0.174   0.5856     N
O       0.4637   0.9299   0.1083     O
C       0.4798   0.9226   0.2777     C
C       0.4824   0.9208   0.3626     C
C       0.4826   0.4196    0.877     C
C       0.4865   0.6403   0.4042     C
H       0.4867   0.1437   0.7447     H
C       0.4944   0.4478   0.6397     C
N       0.4954   0.3128   0.9317     N
N       0.5046   0.6872   0.0683     N
C       0.5056   0.5522   0.3603     C
H       0.5133   0.8563   0.2553     H
C       0.5135   0.3597   0.5958     C
C       0.5174   0.5804    0.123     C
C       0.5176   0.0792   0.6374     C
C       0.5202   0.0774   0.7223     C
O       0.5363   0.0701   0.8917     O
N        0.538    0.826   0.4144     N
H       0.5404    0.577   0.8196     H
H        0.547    0.833    0.463     H
C       0.5522   0.5056   0.8603     C
H       0.5635   0.5783   0.6518     H
C       0.5724    0.981   0.6044     C
C       0.5727   0.9757   0.8664     C
C       0.5729   0.9767   0.7745     C
H       0.5733   0.9821    0.547     H
H        0.577   0.5404   0.3196     H
C       0.5775   0.2969   0.9753     C
H       0.5783   0.5635   0.1518     H
C       0.5804   0.5174    0.623     C
C       0.5813   0.7161   0.3894     C
H       0.5872   0.2248   0.0159     H
O       0.6146   0.8798   0.9119     O
Mn     0.61596  0.83244  0.04676    Mn
C       0.6181   0.3487   0.5354     C
H        0.622    0.733   0.3274     H
C       0.6255   0.8815   0.6546     C
C       0.6263   0.8797   0.7396     C
H       0.6335   0.2935   0.5018     H
H       0.6388   0.6716   0.4224     H
C       0.6403   0.4865   0.9042     C
C       0.6513   0.3819   0.9646     C
H       0.6628   0.8134   0.7734     H
H       0.6716   0.6388   0.9224     H
N       0.6872   0.5046   0.5683     N
O       0.6893   0.7369   0.1642     O
C         0.69   0.7782   0.6164     C
O       0.6962   0.7852   0.5365     O
C       0.7031   0.4225   0.5247     C
H       0.7065   0.3665   0.9982     H
C       0.7161   0.5813   0.8894     C
H        0.733    0.622   0.8274     H
O       0.7369   0.6893   0.6642     O
H       0.7752   0.4128   0.4841     H
C       0.7782     0.69   0.1164     C
O       0.7852   0.6962   0.0365     O
H       0.8134   0.6628   0.2734     H
N        0.826    0.538   0.9144     N
Mn     0.83244  0.61596  0.54676    Mn
H        0.833    0.547    0.963     H
H       0.8563   0.5133   0.7553     H
C       0.8797   0.6263   0.2396     C
O       0.8798   0.6146   0.4119     O
C       0.8815   0.6255   0.1546     C
C       0.9208   0.4824   0.8626     C
C       0.9226   0.4798   0.7777     C
O       0.9299   0.4637   0.6083     O
C       0.9757   0.5727   0.3664     C
C       0.9767   0.5729   0.2745     C
C        0.981   0.5724   0.1044     C
H       0.9821   0.5733    0.047     H
