data_I
_chemical_name_common  '/home/zhangsd/repos/MofS-CGCNN/ML/data/TSD/clean_cifs/LUFNAC03_clean'
_cell_length_a 11.88450
_cell_length_b 11.88450
_cell_length_c 16.35700
_cell_angle_alpha 73.45420
_cell_angle_beta  73.45420
_cell_angle_gamma 78.48890
_space_group_name_H-M_alt      'P 1'


loop_
_space_group_symop_operation_xyz
  'x, y, z' 

loop_
_atom_site_label
_atom_site_fract_x
_atom_site_fract_y
_atom_site_fract_z
_atom_site_type_symbol
H        0.019   0.4256   0.9532     H
C       0.0197   0.4263    0.896     C
C       0.0236   0.4262    0.726     C
C       0.0247   0.4269   0.6328     C
O       0.0696   0.5354   0.3921     O
C       0.0768   0.5214   0.2225     C
C       0.0776    0.519   0.1364     C
C       0.1186   0.3722   0.8459     C
O       0.1198    0.386   0.5878     O
C       0.1213   0.3733   0.7597     C
H       0.1429   0.4881   0.2448     H
H       0.1656    0.454   0.0364     H
Mn     0.16748  0.38438  0.45322    Mn
N       0.1721   0.4629   0.0851     N
H       0.1881   0.3389   0.7252     H
O       0.2157   0.3023   0.9636     O
C       0.2216   0.3094   0.8837     C
H       0.2263   0.5861   0.5181     H
O       0.2626   0.3122   0.3358     O
H       0.2654   0.3788   0.1735     H
C        0.283   0.4186   0.1115     C
H       0.2927   0.6347   0.0021     H
C       0.2975   0.5775   0.4766     C
O       0.3023   0.2157   0.4636     O
C       0.3094   0.2216   0.3837     C
O       0.3122   0.2626   0.8358     O
N       0.3129   0.4951   0.4323     N
H       0.3272   0.3602   0.0792     H
H       0.3389   0.1881   0.2252     H
C       0.3486   0.6192    0.035     C
C       0.3599   0.5125   0.0965     C
H       0.3602   0.3272   0.5792     H
H       0.3653   0.7073   0.4979     H
C       0.3722   0.1186   0.3459     C
C       0.3733   0.1213   0.2597     C
H       0.3788   0.2654   0.6735     H
C       0.3808   0.6514    0.465     C
Mn     0.38438  0.16748  0.95322    Mn
O        0.386   0.1198   0.0878     O
H       0.4139   0.7737   0.9819     H
C       0.4186    0.283   0.6115     C
C       0.4194    0.482   0.3776     C
H       0.4211   0.4359   0.8491     H
C       0.4225   0.7025   0.0234     C
H       0.4232   0.4606   0.6801     H
H       0.4256    0.019   0.4532     H
C       0.4262   0.0236    0.226     C
C       0.4263   0.0197    0.396     C
C       0.4269   0.0247   0.1328     C
H       0.4359   0.4211   0.3491     H
C       0.4482   0.4944   0.1394     C
H        0.454   0.1656   0.5364     H
H       0.4606   0.4232   0.1801     H
N       0.4629   0.1721   0.5851     N
O       0.4646   0.9304   0.1079     O
C       0.4786   0.9232   0.2775     C
C        0.481   0.9224   0.3636     C
C        0.482   0.4194   0.8776     C
C       0.4875   0.6401   0.4035     C
H       0.4881   0.1429   0.7448     H
C       0.4944   0.4482   0.6394     C
N       0.4951   0.3129   0.9323     N
N       0.5049   0.6871   0.0677     N
C       0.5056   0.5518   0.3606     C
H       0.5119   0.8571   0.2552     H
C       0.5125   0.3599   0.5965     C
C        0.518   0.5806   0.1224     C
C        0.519   0.0776   0.6364     C
C       0.5214   0.0768   0.7225     C
O       0.5354   0.0696   0.8921     O
N       0.5371   0.8279   0.4149     N
H       0.5394   0.5768   0.8199     H
H        0.546   0.8344   0.4636     H
C       0.5518   0.5056   0.8606     C
H       0.5641   0.5789   0.6509     H
C       0.5731   0.9753   0.8672     C
C       0.5737   0.9803    0.604     C
C       0.5738   0.9764    0.774     C
H       0.5744    0.981   0.5468     H
H       0.5768   0.5394   0.3199     H
C       0.5775   0.2975   0.9766     C
H       0.5789   0.5641   0.1509     H
C       0.5806    0.518   0.6224     C
C       0.5814    0.717   0.3885     C
H       0.5861   0.2263   0.0181     H
O        0.614   0.8802   0.9122     O
Mn     0.61562  0.83252  0.04678    Mn
C       0.6192   0.3486    0.535     C
H       0.6212   0.7346   0.3265     H
C       0.6267   0.8787   0.7403     C
C       0.6278   0.8814   0.6541     C
H       0.6347   0.2927   0.5021     H
H       0.6398   0.6728   0.4208     H
C       0.6401   0.4875   0.9035     C
C       0.6514   0.3808    0.965     C
H       0.6611   0.8119   0.7748     H
H       0.6728   0.6398   0.9208     H
N       0.6871   0.5049   0.5677     N
O       0.6878   0.7374   0.1642     O
C       0.6906   0.7784   0.6163     C
O       0.6977   0.7843   0.5364     O
C       0.7025   0.4225   0.5234     C
H       0.7073   0.3653   0.9979     H
C        0.717   0.5814   0.8885     C
H       0.7346   0.6212   0.8265     H
O       0.7374   0.6878   0.6642     O
H       0.7737   0.4139   0.4819     H
C       0.7784   0.6906   0.1163     C
O       0.7843   0.6977   0.0364     O
H       0.8119   0.6611   0.2748     H
N       0.8279   0.5371   0.9149     N
Mn     0.83252  0.61562  0.54678    Mn
H       0.8344    0.546   0.9636     H
H       0.8571   0.5119   0.7552     H
C       0.8787   0.6267   0.2403     C
O       0.8802    0.614   0.4122     O
C       0.8814   0.6278   0.1541     C
C       0.9224    0.481   0.8636     C
C       0.9232   0.4786   0.7775     C
O       0.9304   0.4646   0.6079     O
C       0.9753   0.5731   0.3672     C
C       0.9764   0.5738    0.274     C
C       0.9803   0.5737    0.104     C
H        0.981   0.5744   0.0468     H
