data_I
_chemical_name_common  '/home/zhangsd/repos/MofS-CGCNN/ML/data/TSD/clean_cifs/LUFQUZ_clean'
_cell_length_a  7.11390
_cell_length_b  6.91090
_cell_length_c  6.77990
_cell_angle_alpha 90.00000
_cell_angle_beta  90.00000
_cell_angle_gamma 90.00000
_space_group_name_H-M_alt      'P 1'


loop_
_space_group_symop_operation_xyz
  'x, y, z' 

loop_
_atom_site_label
_atom_site_fract_x
_atom_site_fract_y
_atom_site_fract_z
_atom_site_type_symbol
Fe         0.0      0.0      0.0    Fe
N          0.0      0.0   0.2929     N
N          0.0      0.0   0.7071     N
C          0.0   0.1641   0.3972     C
C          0.0   0.1641   0.6028     C
H          0.0   0.2843   0.3292     H
H          0.0   0.2843   0.6708     H
H          0.0   0.7157   0.3292     H
H          0.0   0.7157   0.6708     H
C          0.0   0.8359   0.3972     C
C          0.0   0.8359   0.6028     C
N       0.1948   0.1973      0.0     N
N       0.1948   0.8027      0.0     N
C       0.3125   0.3111      0.0     C
C       0.3125   0.6889      0.0     C
Ni         0.5      0.5      0.0    Ni
C       0.6875   0.3111      0.0     C
C       0.6875   0.6889      0.0     C
N       0.8052   0.1973      0.0     N
N       0.8052   0.8027      0.0     N
