data_I
_chemical_name_common  '/home/zhangsd/repos/MofS-CGCNN/ML/data/TSD/clean_cifs/LUKRIS_clean'
_cell_length_a 12.34280
_cell_length_b 14.96300
_cell_length_c 16.13700
_cell_angle_alpha 116.58900
_cell_angle_beta  90.00000
_cell_angle_gamma 90.00000
_space_group_name_H-M_alt      'P 1'


loop_
_space_group_symop_operation_xyz
  'x, y, z' 

loop_
_atom_site_label
_atom_site_fract_x
_atom_site_fract_y
_atom_site_fract_z
_atom_site_type_symbol
H       0.0013   0.5667   0.3744     H
H       0.0035   0.1143   0.2032     H
C       0.0048   0.3412   0.6178     C
P      0.01096  0.56988   0.8793     P
C       0.0154   0.0702   0.2868     C
C       0.0217   0.1304   0.7387     C
H       0.0303   0.2727   0.8438     H
C       0.0306   0.9568   0.6167     C
C       0.0309   0.4976    0.757     C
Co     0.04833  0.47858  0.00611    Co
C       0.0485   0.2193   0.4312     C
H       0.0525   0.9166   0.4376     H
C       0.0623    0.379   0.5641     C
H       0.0625   0.0115   0.2721     H
C       0.0717   0.2144   0.8086     C
C       0.0753   0.3897   0.1972     C
O       0.0755   0.5969   0.1211     O
C       0.0782   0.3602   0.3346     C
O       0.0794   0.1602   0.3401     O
C       0.0814   0.0416   0.6867     C
C        0.083   0.3167   0.4679     C
C       0.0866   0.5364   0.7031     C
O       0.0879   0.8529   0.7163     O
C       0.0903   0.8548   0.4146     C
C       0.0903   0.8595   0.5695     C
H       0.0911   0.8328    0.282     H
C       0.0994   0.4803     0.61     C
H       0.1126   0.4064   0.1545     H
C       0.1135    0.805   0.3218     C
H       0.1153   0.6023   0.7323     H
C       0.1197   0.8105   0.6222     C
C        0.121    0.817   0.4761     C
O       0.1211   0.6101   0.9239     O
C       0.1322   0.3875    0.272     C
H       0.1337    0.509   0.5749     H
C       0.1373   0.3542    0.407     C
C       0.1706   0.7122   0.2838     C
Co     0.17757  0.74925  0.02502    Co
C       0.1795   0.2127   0.8262     C
O       0.1807   0.4106   0.9435     O
C       0.1809   0.7237   0.5876     C
C       0.1829   0.7236   0.4384     C
P       0.1859  0.64064  0.16028     P
H       0.1861   0.2002   0.6258     H
C       0.1943   0.0422   0.7083     C
H       0.2012   0.6943   0.6266     H
C       0.2038    0.674   0.3414     C
C       0.2113   0.6813   0.4973     C
H       0.2182   0.0982   0.4645     H
O       0.2352   0.7034   0.1196     O
H       0.2365   0.9837   0.6756     H
C       0.2416   0.1249   0.7746     C
H        0.242   0.6123   0.3164     H
C        0.244   0.4125   0.2849     C
C       0.2461   0.3801   0.4175     C
P       0.2476  0.32009  0.91663     P
H        0.252   0.2618   0.5829     H
H       0.2528   0.6215   0.4734     H
C       0.2551   0.2054   0.5983     C
O       0.2623   0.5526   0.1515     O
C       0.2759   0.1093   0.5107     C
H       0.2776   0.0515   0.5249     H
H       0.2802    0.432   0.2437     H
O       0.2821   0.2902   0.9889     O
H       0.2882    0.946   0.3687     H
O       0.2994   0.3684   0.4871     O
C       0.2998   0.4086   0.3564     C
H       0.3138   0.2163   0.6427     H
H       0.3168   0.1244   0.7869     H
O       0.3185   0.5325   0.8687     O
O         0.32   0.7223   0.9503     O
H       0.3361   0.2002   0.2698     H
H        0.337   0.6746   0.7575     H
O       0.3539    0.337   0.8694     O
C       0.3621   0.9492   0.3539     C
H       0.3695    0.811   0.2472     H
H       0.3747   0.4251   0.3647     H
H       0.3749    0.433   0.6478     H
H        0.377   0.0926    0.255     H
O       0.3784   0.1211   0.4756     O
H       0.3861   0.1866   0.3549     H
C       0.3906   0.1647    0.288     C
P       0.3919  0.63237  0.91124     P
H       0.3974   0.9329   0.7751     H
H       0.4034   0.4831   0.5289     H
C       0.4043   0.4118   0.5155     C
C       0.4114   0.8689   0.2828     C
C       0.4122   0.6592   0.7509     C
C       0.4241   0.0369   0.4046     C
H       0.4283   0.7869   0.3925     H
H       0.4306    0.682   0.6392     H
C       0.4315   0.4011   0.6011     C
O        0.432    0.343   0.1096     O
H       0.4359     0.33   0.5859     H
H       0.4538   0.6258   0.2523     H
H       0.4565   0.9325   0.6727     H
O       0.4582   0.4961   0.0823     O
H       0.4583   0.3764   0.4662     H
H       0.4612   0.8863   0.5489     H
C       0.4636   0.6327   0.8154     C
C       0.4676   0.7604   0.4271     C
C       0.4679   0.6629   0.6803     C
O       0.4712   0.6247   0.9772     O
C        0.476   0.9384   0.7821     C
C       0.4878   0.8198   0.5192     C
H       0.4885   0.1644    0.199     H
C       0.4897   0.1847   0.2664     C
C       0.4914   0.5992   0.2877     C
H       0.4953   0.0039   0.8323     H
H       0.4967   0.2584   0.2974     H
H       0.5013   0.4333   0.6256     H
H       0.5035   0.8857   0.7968     H
C       0.5048   0.6588   0.3822     C
P      0.51096  0.43012   0.1207     P
C       0.5154   0.9298   0.7132     C
C       0.5217   0.8696   0.2613     C
H       0.5303   0.7273   0.1562     H
C       0.5306   0.0432   0.3833     C
C       0.5309   0.5024    0.243     C
Co     0.54833  0.52142  0.99389    Co
C       0.5485   0.7807   0.5688     C
H       0.5525   0.0834   0.5624     H
C       0.5623    0.621   0.4359     C
H       0.5625   0.9885   0.7279     H
C       0.5717   0.7856   0.1914     C
C       0.5753   0.6103   0.8028     C
O       0.5755   0.4031   0.8789     O
C       0.5782   0.6398   0.6654     C
O       0.5794   0.8398   0.6599     O
C       0.5814   0.9584   0.3133     C
C        0.583   0.6833   0.5321     C
C       0.5866   0.4636   0.2969     C
O       0.5879   0.1471   0.2837     O
C       0.5903   0.1405   0.4305     C
C       0.5903   0.1452   0.5854     C
H       0.5911   0.1672    0.718     H
C       0.5994   0.5197     0.39     C
H       0.6126   0.5936   0.8455     H
C       0.6135    0.195   0.6782     C
H       0.6153   0.3977   0.2677     H
C       0.6197   0.1895   0.3778     C
C        0.621    0.183   0.5239     C
O       0.6211   0.3899   0.0761     O
C       0.6322   0.6125    0.728     C
H       0.6337    0.491   0.4251     H
C       0.6373   0.6458    0.593     C
C       0.6706   0.2878   0.7162     C
Co     0.67757  0.25075  0.97498    Co
C       0.6795   0.7873   0.1738     C
O       0.6807   0.5894   0.0565     O
C       0.6809   0.2763   0.4124     C
C       0.6829   0.2764   0.5616     C
P       0.6859  0.35936  0.83972     P
H       0.6861   0.7998   0.3742     H
C       0.6943   0.9578   0.2917     C
H       0.7012   0.3057   0.3734     H
C       0.7038    0.326   0.6586     C
C       0.7113   0.3187   0.5027     C
H       0.7182   0.9018   0.5355     H
O       0.7352   0.2966   0.8804     O
H       0.7365   0.0163   0.3244     H
C       0.7416   0.8751   0.2254     C
H        0.742   0.3877   0.6836     H
C        0.744   0.5875   0.7151     C
C       0.7461   0.6199   0.5825     C
P       0.7476  0.67991  0.08337     P
H        0.752   0.7382   0.4171     H
H       0.7528   0.3785   0.5266     H
C       0.7551   0.7946   0.4017     C
O       0.7623   0.4474   0.8485     O
C       0.7759   0.8907   0.4893     C
H       0.7776   0.9485   0.4751     H
H       0.7802    0.568   0.7563     H
O       0.7821   0.7098   0.0111     O
H       0.7882    0.054   0.6313     H
O       0.7994   0.6316   0.5129     O
C       0.7998   0.5914   0.6436     C
H       0.8138   0.7837   0.3573     H
H       0.8168   0.8756   0.2131     H
O       0.8185   0.4675   0.1313     O
O         0.82   0.2777   0.0497     O
H       0.8361   0.7998   0.7302     H
H        0.837   0.3254   0.2425     H
O       0.8539    0.663   0.1306     O
C       0.8621   0.0508   0.6461     C
H       0.8695    0.189   0.7528     H
H       0.8747   0.5749   0.6353     H
H       0.8749    0.567   0.3522     H
H        0.877   0.9074    0.745     H
O       0.8784   0.8789   0.5244     O
H       0.8861   0.8134   0.6451     H
C       0.8906   0.8353    0.712     C
P       0.8919  0.36763  0.08876     P
H       0.8974   0.0671   0.2249     H
H       0.9034   0.5169   0.4711     H
C       0.9043   0.5882   0.4845     C
C       0.9114   0.1311   0.7172     C
C       0.9122   0.3408   0.2491     C
C       0.9241   0.9631   0.5954     C
H       0.9283   0.2131   0.6075     H
H       0.9306    0.318   0.3608     H
C       0.9315   0.5989   0.3989     C
O        0.932    0.657   0.8904     O
H       0.9359     0.67   0.4141     H
H       0.9538   0.3742   0.7477     H
H       0.9565   0.0675   0.3273     H
O       0.9582   0.5039   0.9177     O
H       0.9583   0.6236   0.5338     H
H       0.9612   0.1137   0.4511     H
C       0.9636   0.3673   0.1846     C
C       0.9676   0.2396   0.5729     C
C       0.9679   0.3371   0.3197     C
O       0.9712   0.3753   0.0228     O
C        0.976   0.0616   0.2179     C
C       0.9878   0.1802   0.4808     C
H       0.9885   0.8356    0.801     H
C       0.9897   0.8153   0.7336     C
C       0.9914   0.4008   0.7123     C
H       0.9953   0.9961   0.1677     H
H       0.9967   0.7416   0.7026     H
