data_I
_chemical_name_common  '/home/zhangsd/repos/MofS-CGCNN/ML/data/TSD/clean_cifs/LUKRUE_clean_h'
_cell_length_a  8.21100
_cell_length_b 13.43080
_cell_length_c 25.66400
_cell_angle_alpha 90.00000
_cell_angle_beta  90.00000
_cell_angle_gamma 90.00000
_space_group_name_H-M_alt      'P 1'


loop_
_space_group_symop_operation_xyz
  'x, y, z' 

loop_
_atom_site_label
_atom_site_fract_x
_atom_site_fract_y
_atom_site_fract_z
_atom_site_type_symbol
H      0.00552   0.5995   0.7423     H
H      0.01216  0.00383  0.35193     H
C       0.0185   0.1924   0.8405     C
O       0.0188   0.6369   0.9434     O
H       0.0229  0.06152    0.659     H
C       0.0258   0.0336   0.8901     C
O       0.0269   0.6288   0.0499     O
C       0.0313   0.3277   0.2961     C
O       0.0397   0.2205  0.36937     O
C        0.048   0.1574   0.7301     C
H       0.0532  0.86692  0.23255     H
C       0.0599   0.1366    0.676     C
H      0.06301  0.23751  0.16814     H
C       0.0949   0.2656   0.8052     C
C       0.0985   0.2447   0.7506     C
C       0.1059   0.1047   0.8574     C
C       0.1123     0.95   0.9078     C
P       0.1145  0.16754  0.41901     P
C       0.1193   0.2118   0.6432     C
P        0.135  0.18809  0.57429     P
C       0.1372   0.7065   0.6428     C
C       0.1377    0.548   0.5961     C
C        0.146    0.993   0.3623     C
C       0.1472   0.2739   0.3354     C
H      0.15017  0.12553  0.20054     H
H      0.15136  0.34662  0.09744     H
O        0.152   0.3691   0.8773     O
Cu     0.15638   0.6902  0.99707    Cu
C       0.1567   0.3207   0.7161     C
C       0.1577    0.357   0.8245     C
H      0.16029   0.5814  0.42921     H
H      0.16134  0.85703  0.31797     H
H      0.16424  0.52044  0.36408     H
C        0.167   0.3011   0.6618     C
O       0.1766   0.2851  0.54713     O
C        0.177   0.2045   0.1867     C
H      0.18122  0.50456  0.92043     H
O       0.2064   0.7975   0.6527     O
C       0.2097   0.4128   0.7374     C
C       0.2105   0.4328   0.7916     C
O        0.214   0.8831   0.0681     O
H      0.21523  0.25222  0.22134     H
H      0.21537  0.36068  0.63421     H
C        0.219   0.6375    0.611     C
C        0.227   0.9777   0.0518     C
C       0.2282    0.912   0.3442     C
C        0.229   0.0652   0.3947     C
O       0.2308    0.235   0.4446     O
C         0.24   0.0734    0.062     C
C       0.2424   0.5507   0.3972     C
H       0.2458  0.52533  0.21053     H
H      0.24682  0.49163  0.30652     H
H      0.24874   0.8437  0.57084     H
H      0.25126   0.1563  0.07084     H
H      0.25318  0.50837  0.80652     H
H       0.2542  0.47467  0.71053     H
C       0.2576   0.4493   0.8972     C
C         0.26   0.9266    0.562     C
O       0.2692    0.765   0.9446     O
C        0.271   0.9348   0.8947     C
C       0.2718    0.088   0.8442     C
C        0.273   0.0223   0.5518     C
C        0.281   0.3625    0.111     C
H      0.28463  0.63932  0.13421     H
O        0.286   0.1169   0.5681     O
H      0.28785  0.84291  0.72179     H
C       0.2895   0.5672   0.2916     C
C       0.2903   0.5872   0.2374     C
O       0.2936   0.2025   0.1527     O
H      0.29475  0.51167  0.07306     H
H       0.3178   0.4893  0.86308     H
H      0.32101  0.48824   0.4137     H
C        0.323   0.7955   0.6867     C
O       0.3234   0.7149  0.04713     O
C        0.333   0.6989   0.1618     C
H      0.33866  0.14297  0.81797     H
C       0.3423    0.643   0.3245     C
C       0.3433   0.6793   0.2161     C
Cu     0.34362   0.3098  0.49707    Cu
H      0.34467  0.71548  0.69979     H
O        0.348   0.6309   0.3773     O
C       0.3528   0.7261   0.8354     C
C        0.354    0.007   0.8623     C
H      0.35545  0.41606  0.92348     H
C       0.3623    0.452   0.0961     C
C       0.3628   0.2935   0.1428     C
P        0.365  0.81191  0.07429     P
C       0.3807   0.7882   0.1432     C
P       0.3855  0.83246  0.91901     P
C       0.3877     0.05   0.4078     C
C       0.3941   0.8953   0.3574     C
C       0.4015   0.7553   0.2506     C
C       0.4051   0.7344   0.3052     C
H      0.43907  0.82636  0.66844     H
C       0.4401   0.8634    0.176     C
H       0.4468  0.13308  0.73255     H
C        0.452   0.8426   0.2301     C
O       0.4603   0.7795  0.86937     O
C       0.4687   0.6723   0.7961     C
O       0.4731   0.3712   0.5499     O
C       0.4742   0.9664   0.3901     C
H       0.4771  0.93848    0.159     H
O       0.4812   0.3631   0.4434     O
C       0.4815   0.8076   0.3405     C
H      0.48784  0.99617  0.85193     H
H       0.4938  0.40235  0.24355     H
H       0.5062  0.90235  0.25645     H
H      0.51216  0.49617  0.64807     H
C       0.5185   0.3076   0.1595     C
O       0.5188   0.8631   0.0566     O
H       0.5229  0.43848    0.341     H
C       0.5258   0.4664   0.1099     C
O       0.5269   0.8712   0.9501     O
C       0.5313   0.1723   0.7039     C
O       0.5397   0.2795  0.63063     O
C        0.548   0.3426   0.2699     C
H       0.5532  0.63308  0.76745     H
C       0.5599   0.3634    0.324     C
H      0.57037  0.34205    0.828     H
C       0.5949   0.2344   0.1948     C
C       0.5985   0.2553   0.2494     C
C       0.6059   0.3953   0.1426     C
H      0.60934  0.92819  0.60904     H
C       0.6123     0.55   0.0922     C
P       0.6145  0.33246  0.58099     P
C       0.6193   0.2882   0.3568     C
P        0.635  0.31191  0.42571     P
H      0.63544  0.21536   0.8072     H
C       0.6372   0.7935   0.3572     C
C       0.6377    0.952   0.4039     C
C        0.646    0.507   0.6377     C
C       0.6472   0.2261   0.6646     C
O        0.652   0.1309   0.1227     O
Cu     0.65638   0.8098  0.00293    Cu
C       0.6567   0.1793   0.2839     C
C       0.6577    0.143   0.1755     C
H      0.66134  0.64297  0.68203     H
C        0.667   0.1989   0.3382     C
O       0.6766   0.2149  0.45287     O
C        0.677   0.2955   0.8133     C
H      0.70525  0.01167  0.42694     H
O       0.7064   0.7025   0.3473     O
C       0.7097   0.0872   0.2626     C
C       0.7105   0.0672   0.2084     C
O        0.714   0.6169   0.9319     O
H       0.7142  0.97611  0.11882     H
H      0.71525  0.13965  0.36601     H
C        0.719   0.8625    0.389     C
H       0.7226  0.32734  0.77479     H
C        0.727   0.5223   0.9482     C
C       0.7282    0.588   0.6558     C
C        0.729   0.4348   0.6053     C
O       0.7308    0.265   0.5554     O
C         0.74   0.4266    0.938     C
C       0.7424   0.9493   0.6028     C
H       0.7458  0.97467  0.78947     H
H      0.74682  0.00837  0.69348     H
H      0.74874   0.6563  0.42916     H
H      0.75126   0.3437  0.92916     H
H      0.75185  0.04935  0.05842     H
H      0.75318  0.99163  0.19348     H
H       0.7542  0.02533  0.28947     H
C       0.7576   0.0507   0.1028     C
C         0.76   0.5734    0.438     C
H      0.76612  0.96039  0.55942     H
O       0.7692    0.735   0.0554     O
H      0.77007  0.02135  0.62455     H
C        0.771   0.5652   0.1053     C
C       0.7718    0.412   0.1558     C
C        0.773   0.4777   0.4482     C
H      0.77533  0.73653   0.2751     H
C        0.781   0.1375    0.889     C
H      0.78463  0.86068  0.86579     H
O        0.786   0.3831   0.4319     O
C       0.7895   0.9328   0.7084     C
C       0.7903   0.9128   0.7626     C
O       0.7936   0.2975   0.8473     O
C        0.823   0.7045   0.3133     C
O       0.8234   0.7851  0.95287     O
C        0.833   0.8011   0.8382     C
H      0.83866  0.35703  0.18203     H
C       0.8423    0.857   0.6755     C
C       0.8433   0.8207   0.7839     C
Cu     0.84362   0.1902  0.50293    Cu
O        0.848   0.8691   0.6227     O
H      0.84865   0.8477  0.40287     H
C       0.8528   0.7739   0.1646     C
C        0.854    0.493   0.1377     C
C       0.8623    0.048   0.9039     C
C       0.8628   0.2065   0.8572     C
P        0.865  0.68809  0.92571     P
H      0.86972  0.62565  0.30644     H
C       0.8807   0.7118   0.8568     C
P       0.8855  0.66754  0.08099     P
C       0.8877     0.45   0.5922     C
H      0.88842  0.06461  0.11577     H
C       0.8941   0.6047   0.6426     C
C       0.9015   0.7447   0.7494     C
C       0.9051   0.7656   0.6948     C
H      0.92654  0.75308  0.32844     H
C       0.9401   0.6366    0.824     C
H       0.9468  0.36692  0.26745     H
H      0.95031  0.39282  0.56619     H
C        0.952   0.6574   0.7699     C
O       0.9603   0.7205  0.13063     O
C       0.9687   0.8277   0.2039     C
O       0.9731   0.1288   0.4501     O
C       0.9742   0.5336   0.6099     C
H       0.9771  0.56152    0.841     H
O       0.9812   0.1369   0.5566     O
C       0.9815   0.6924   0.6595     C
H      0.98784  0.50383  0.14807     H
H      0.99448   0.0995   0.7577     H
