data_I
_chemical_name_common  '/home/zhangsd/repos/MofS-CGCNN/ML/data/TSD/clean_cifs/LULWUL_clean'
_cell_length_a  9.96600
_cell_length_b  9.96600
_cell_length_c 20.47200
_cell_angle_alpha 90.00000
_cell_angle_beta  90.00000
_cell_angle_gamma 90.00000
_space_group_name_H-M_alt      'P 1'


loop_
_space_group_symop_operation_xyz
  'x, y, z' 

loop_
_atom_site_label
_atom_site_fract_x
_atom_site_fract_y
_atom_site_fract_z
_atom_site_type_symbol
O       0.0327   0.1891   0.3194     O
O       0.0521   0.1157  0.70383     O
Na      0.0571   0.1471  0.52078    Na
C       0.0647   0.8752   0.1776     C
H       0.0764   0.8573   0.3075     H
O       0.0835   0.8655  0.11662     O
O       0.0887   0.5749   0.9003     O
C       0.0956   0.5611   0.9623     C
O       0.0984   0.6616   0.9989     O
Co     0.09863  0.78454  0.89562    Co
H       0.1015   0.3235    0.902     H
C       0.1083   0.4219   0.9893     C
C       0.1099    0.311   0.9478     C
O       0.1157   0.9479  0.95383     O
H       0.1159   0.4802   0.0839     H
C       0.1175   0.4046   0.0556     C
C       0.1237   0.1825   0.9729     C
C       0.1248   0.0647   0.9276     C
O       0.1292   0.2022  0.41607     O
C       0.1292   0.2763   0.0812     C
C       0.1334    0.164   0.0398     C
O       0.1345   0.0835  0.86662     O
H       0.1345   0.2642   0.1272     H
C       0.1379   0.1992   0.3554     C
H       0.1427   0.0764   0.0575     H
Na      0.1471   0.9429  0.77078    Na
C        0.164   0.8666   0.2898     C
C       0.1825   0.8763   0.2229     C
O       0.1891   0.9673   0.5694     O
H        0.198   0.2104   0.2285     H
C       0.1992   0.8621   0.6054     C
Na      0.2004   0.2768  0.77966    Na
O       0.2022   0.8708  0.66607     O
H       0.2104    0.802   0.4785     H
C       0.2117    0.729   0.5711     C
O       0.2127   0.2543   0.5845     O
Co     0.21546  0.09863  0.64562    Co
C       0.2159   0.7219   0.5036     C
H       0.2186   0.6161   0.6543     H
C       0.2196   0.6121   0.6079     C
C        0.228   0.6009   0.4725     C
C        0.229   0.4906   0.5765     C
C       0.2294   0.3642   0.6171     C
H       0.2324   0.5972   0.4262     H
C       0.2338   0.4832    0.509     C
H        0.241   0.3987   0.4878     H
O       0.2421   0.3672   0.6767     O
O       0.2543   0.7873   0.8345     O
H       0.2642   0.8655   0.3772     H
C        0.271   0.2117   0.3211     C
C       0.2763   0.8708   0.3312     C
Na      0.2768   0.7996  0.02966    Na
C       0.2781   0.2159   0.2536     C
C        0.311   0.8901   0.1978     C
H       0.3235   0.8985    0.152     H
O       0.3384   0.0984   0.7489     O
C       0.3642   0.7706   0.8671     C
O       0.3672   0.7579   0.9267     O
H       0.3839   0.2186   0.4043     H
C       0.3879   0.2196   0.3579     C
H       0.3987    0.759   0.7378     H
C       0.3991    0.228   0.2225     C
H       0.4028   0.2324   0.1762     H
C       0.4046   0.8825   0.3056     C
C       0.4219   0.8917   0.2393     C
O       0.4251   0.0887   0.6503     O
C       0.4389   0.0956   0.7123     C
H       0.4802   0.8841   0.3339     H
C       0.4832   0.7662    0.759     C
C       0.4906    0.771   0.8265     C
C       0.5094    0.229   0.3265     C
C       0.5168   0.2338    0.259     C
H       0.5198   0.1159   0.8339     H
C       0.5611   0.9044   0.2123     C
O       0.5749   0.9113   0.1503     O
C       0.5781   0.1083   0.7393     C
C       0.5954   0.1175   0.8056     C
H       0.5972   0.7676   0.6762     H
C       0.6009    0.772   0.7225     C
H       0.6013    0.241   0.2378     H
C       0.6121   0.7804   0.8579     C
H       0.6161   0.7814   0.9043     H
O       0.6328   0.2421   0.4267     O
C       0.6358   0.2294   0.3671     C
O       0.6616   0.9016   0.2489     O
H       0.6765   0.1015    0.652     H
C        0.689   0.1099   0.6978     C
C       0.7219   0.7841   0.7536     C
Na      0.7232   0.2004  0.52966    Na
C       0.7237   0.1292   0.8312     C
C        0.729   0.7883   0.8211     C
H       0.7358   0.1345   0.8772     H
O       0.7457   0.2127   0.3345     O
O       0.7579   0.6328   0.1767     O
H        0.759   0.6013   0.9878     H
C       0.7662   0.5168    0.009     C
H       0.7676   0.4028   0.9262     H
C       0.7706   0.6358   0.1171     C
C        0.771   0.5094   0.0765     C
C        0.772   0.3991   0.9725     C
C       0.7804   0.3879   0.1079     C
H       0.7814   0.3839   0.1543     H
C       0.7841   0.2781   0.0036     C
Co     0.78454  0.90137  0.14562    Co
O       0.7873   0.7457   0.0845     O
C       0.7883    0.271   0.0711     C
H       0.7896    0.198   0.9785     H
O       0.7978   0.1292  0.16607     O
Na      0.7996   0.7232  0.27966    Na
C       0.8008   0.1379   0.1054     C
H        0.802   0.7896   0.7285     H
O       0.8109   0.0327   0.0694     O
C       0.8175   0.1237   0.7229     C
C        0.836   0.1334   0.7898     C
Na      0.8529   0.0571  0.27078    Na
H       0.8573   0.9236   0.5575     H
C       0.8621   0.8008   0.8554     C
H       0.8655   0.7358   0.6272     H
O       0.8655   0.9165  0.36662     O
C       0.8666    0.836   0.5398     C
C       0.8708   0.7237   0.5812     C
O       0.8708   0.7978  0.91607     O
C       0.8752   0.9353   0.4276     C
C       0.8763   0.8175   0.4729     C
C       0.8825   0.5954   0.5556     C
H       0.8841   0.5198   0.5839     H
O       0.8843   0.0521  0.45383     O
C       0.8901    0.689   0.4478     C
C       0.8917   0.5781   0.4893     C
H       0.8985   0.6765    0.402     H
Co     0.90137  0.21546  0.39562    Co
O       0.9016   0.3384   0.4989     O
C       0.9044   0.4389   0.4623     C
O       0.9113   0.4251   0.4003     O
O       0.9165   0.1345  0.61662     O
H       0.9236   0.1427   0.8075     H
C       0.9353   0.1248   0.6776     C
Na      0.9429   0.8529  0.02078    Na
O       0.9479   0.8843  0.20383     O
O       0.9673   0.8109   0.8194     O
