data_I
_chemical_name_common  '/home/zhangsd/repos/MofS-CGCNN/ML/data/TSD/clean_cifs/LUSHOX04_clean'
_cell_length_a 13.63530
_cell_length_b 10.22590
_cell_length_c 17.69250
_cell_angle_alpha 90.00000
_cell_angle_beta  90.70400
_cell_angle_gamma 90.00000
_space_group_name_H-M_alt      'P 1'


loop_
_space_group_symop_operation_xyz
  'x, y, z' 

loop_
_atom_site_label
_atom_site_fract_x
_atom_site_fract_y
_atom_site_fract_z
_atom_site_type_symbol
H       0.0314   0.2265   0.7716     H
H       0.0314   0.2735   0.2716     H
C      0.03637   0.7218  0.73425     C
C      0.03637   0.7782  0.23425     C
O      0.04237   0.1374  0.90518     O
O      0.04237   0.3626  0.40518     O
H       0.0425   0.6836   0.3345     H
H       0.0425   0.8164   0.8345     H
C      0.04282   0.6018   0.6099     C
C      0.04282   0.8982   0.1099     C
C      0.08052   0.7247  0.29817     C
C      0.08052   0.7753  0.79817     C
O      0.09025  0.52068  0.57364     O
O      0.09025  0.97932  0.07364     O
C      0.09124   0.6615  0.67908     C
C      0.09124   0.8385  0.17908     C
Mn     0.15231  0.07019  0.98044    Mn
Mn     0.15231  0.42981  0.48044    Mn
C      0.18104   0.7324  0.30777     C
C      0.18104   0.7676  0.80777     C
O        0.182  0.60799  0.42125     O
O        0.182  0.89201  0.92125     O
C      0.19228   0.6566  0.68834     C
C      0.19228   0.8434  0.18834     C
H       0.1958   0.2273   0.2801     H
H       0.1958   0.2727   0.7801     H
H       0.2129   0.1275   0.1633     H
H       0.2129   0.3725   0.6633     H
H       0.2306   0.6179   0.6514     H
H       0.2306   0.8821   0.1514     H
C      0.23073   0.6763  0.37702     C
C      0.23073   0.8237  0.87702     C
C      0.23636   0.7091  0.75228     C
C      0.23636   0.7909  0.25228     C
O      0.25122  0.17252  0.90529     O
O      0.25122  0.32748  0.40529     O
C      0.25711   0.2241  0.25761     C
C      0.25711   0.2759  0.75761     C
C      0.26732   0.1625  0.18817     C
C      0.26732   0.3375  0.68817     C
O      0.30207  0.02475  0.05193     O
O      0.30207  0.47525  0.55193     O
H       0.3042    0.705    0.758     H
H       0.3042    0.795    0.258     H
O      0.32015   0.7039  0.38709     O
O      0.32015   0.7961  0.88709     O
C      0.32429   0.1467  0.86665     C
C      0.32429   0.3533  0.36665     C
C      0.33688   0.2194  0.79365     C
C      0.33688   0.2806  0.29365     C
C      0.35942   0.1537   0.1563     C
C      0.35942   0.3463   0.6563     C
C      0.37261   0.0864  0.08246     C
C      0.37261   0.4136  0.58246     C
Mn     0.38998  0.57972  0.46582    Mn
Mn     0.38998  0.92028  0.96582    Mn
O      0.39003  0.06607  0.88339     O
O      0.39003  0.43393  0.38339     O
C       0.4291   0.2282  0.76131     C
C       0.4291   0.2718  0.26131     C
C      0.44082   0.2068  0.19383     C
C      0.44082   0.2932  0.69383     C
O      0.45454  0.08985  0.05139     O
O      0.45454  0.41015  0.55139     O
H        0.483     0.19   0.7853     H
H        0.483     0.31   0.2853     H
H       0.4971   0.6982   0.3267     H
H       0.4971   0.8018   0.8267     H
H       0.5029   0.1982   0.1733     H
H       0.5029   0.3018   0.6733     H
H        0.517     0.69   0.7147     H
H        0.517     0.81   0.2147     H
O      0.54546  0.58985  0.44861     O
O      0.54546  0.91015  0.94861     O
C      0.55918   0.7068  0.30617     C
C      0.55918   0.7932  0.80617     C
C       0.5709   0.7282  0.73869     C
C       0.5709   0.7718  0.23869     C
O      0.60997  0.56607  0.61661     O
O      0.60997  0.93393  0.11661     O
Mn     0.61002  0.07972  0.03418    Mn
Mn     0.61002  0.42028  0.53418    Mn
C      0.62739   0.5864  0.41754     C
C      0.62739   0.9136  0.91754     C
C      0.64058   0.6537   0.3437     C
C      0.64058   0.8463   0.8437     C
C      0.66312   0.7194  0.70635     C
C      0.66312   0.7806  0.20635     C
C      0.67571   0.6467  0.63335     C
C      0.67571   0.8533  0.13335     C
O      0.67985   0.2039  0.11291     O
O      0.67985   0.2961  0.61291     O
H       0.6958    0.205    0.742     H
H       0.6958    0.295    0.242     H
O      0.69793  0.52475  0.44807     O
O      0.69793  0.97525  0.94807     O
C      0.73268   0.6625  0.31183     C
C      0.73268   0.8375  0.81183     C
C      0.74289   0.7241  0.24239     C
C      0.74289   0.7759  0.74239     C
O      0.74878  0.67252  0.59471     O
O      0.74878  0.82748  0.09471     O
C      0.76364   0.2091  0.74772     C
C      0.76364   0.2909  0.24772     C
C      0.76927   0.1763  0.12298     C
C      0.76927   0.3237  0.62298     C
H       0.7694   0.1179   0.8486     H
H       0.7694   0.3821   0.3486     H
H       0.7871   0.6275   0.3367     H
H       0.7871   0.8725   0.8367     H
H       0.8042   0.7273   0.2199     H
H       0.8042   0.7727   0.7199     H
C      0.80772   0.1566  0.81166     C
C      0.80772   0.3434  0.31166     C
O        0.818  0.10799  0.07875     O
O        0.818  0.39201  0.57875     O
C      0.81896   0.2324  0.19223     C
C      0.81896   0.2676  0.69223     C
Mn     0.84769  0.57019  0.51956    Mn
Mn     0.84769  0.92981  0.01956    Mn
C      0.90876   0.1615  0.82092     C
C      0.90876   0.3385  0.32092     C
O      0.90975  0.02068  0.92636     O
O      0.90975  0.47932  0.42636     O
C      0.91948   0.2247  0.20183     C
C      0.91948   0.2753  0.70183     C
C      0.95718   0.1018   0.8901     C
C      0.95718   0.3982   0.3901     C
H       0.9575   0.1836   0.1655     H
H       0.9575   0.3164   0.6655     H
O      0.95763   0.6374  0.59482     O
O      0.95763   0.8626  0.09482     O
C      0.96363   0.2218  0.76575     C
C      0.96363   0.2782  0.26575     C
H       0.9686   0.7265   0.7284     H
H       0.9686   0.7735   0.2284     H
