data_I
_chemical_name_common  '/home/zhangsd/repos/MofS-CGCNN/ML/data/TSD/clean_cifs/MACKAE_clean'
_cell_length_a 14.45370
_cell_length_b 14.45370
_cell_length_c 14.45370
_cell_angle_alpha 109.47100
_cell_angle_beta  109.47100
_cell_angle_gamma 109.47100
_space_group_name_H-M_alt      'P 1'


loop_
_space_group_symop_operation_xyz
  'x, y, z' 

loop_
_atom_site_label
_atom_site_fract_x
_atom_site_fract_y
_atom_site_fract_z
_atom_site_type_symbol
O          0.0      0.0   0.5408     O
O          0.0   0.5408      0.0     O
U      0.00958  0.62514  0.16419     U
O       0.0141   0.8159   0.5044     O
O       0.0954   0.3604   0.7304     O
O        0.134   0.7687   0.3619     O
U      0.15461  0.61556  0.99042     U
U      0.16419  0.00958  0.62514     U
C       0.1682   0.4367   0.7281     C
O       0.1841   0.1982   0.6885     O
O       0.1982   0.6885   0.1841     O
C       0.2089   0.7689   0.4362     C
C       0.2273     0.56   0.7911     C
O       0.2279   0.6347    0.866     O
C       0.2311     0.44   0.6673     C
O       0.2313   0.3653   0.5932     O
O        0.265   0.9046    0.635     O
C       0.2685   0.8318   0.5599     C
O       0.2696     0.63    0.365     O
C       0.2719   0.7086   0.4401     C
C       0.2914   0.5633   0.7315     C
O       0.3115   0.5097   0.4956     O
C       0.3327   0.7727   0.5638     C
O       0.3604   0.7304   0.0954     O
O       0.3619    0.134   0.7687     O
O        0.365   0.2696     0.63     O
O       0.3653   0.5932   0.2313     O
O         0.37   0.6396    0.735     O
U      0.37486  0.38444  0.53905     U
U      0.38444  0.53905  0.37486     U
O       0.4068   0.7721   0.6381     O
C       0.4362   0.2089   0.7689     C
C       0.4367   0.7281   0.1682     C
C         0.44   0.6673   0.2311     C
C       0.4401   0.2719   0.7086     C
O       0.4592   0.4592   0.4592     O
U      0.46095  0.84539  0.83581     U
O       0.4903   0.8018   0.9859     O
O       0.4956   0.3115   0.5097     O
O       0.5044   0.0141   0.8159     O
O       0.5097   0.4956   0.3115     O
U      0.53905  0.37486  0.38444     U
O       0.5408      1.0      1.0     O
C       0.5599   0.2685   0.8318     C
C         0.56   0.7911   0.2273     C
C       0.5633   0.7315   0.2914     C
C       0.5638   0.3327   0.7727     C
O       0.5932   0.2313   0.3653     O
U      0.61556  0.99042  0.15461     U
U      0.62514  0.16419  0.00958     U
O         0.63    0.365   0.2696     O
O       0.6347    0.866   0.2279     O
O        0.635    0.265   0.9046     O
O       0.6381   0.4068   0.7721     O
O       0.6396    0.735     0.37     O
C       0.6673   0.2311     0.44     C
O       0.6885   0.1841   0.1982     O
C       0.7086   0.4401   0.2719     C
C       0.7281   0.1682   0.4367     C
O       0.7304   0.0954   0.3604     O
C       0.7315   0.2914   0.5633     C
O        0.735     0.37   0.6396     O
O       0.7687   0.3619    0.134     O
C       0.7689   0.4362   0.2089     C
O       0.7721   0.6381   0.4068     O
C       0.7727   0.5638   0.3327     C
C       0.7911   0.2273     0.56     C
O       0.8018   0.9859   0.4903     O
O       0.8159   0.5044   0.0141     O
C       0.8318   0.5599   0.2685     C
U      0.83581  0.46095  0.84539     U
U      0.84539  0.83581  0.46095     U
O        0.866   0.2279   0.6347     O
O       0.9046    0.635    0.265     O
O       0.9859   0.4903   0.8018     O
U      0.99042  0.15461  0.61556     U
