data_I
_chemical_name_common  '/home/zhangsd/repos/MofS-CGCNN/ML/data/TSD/clean_cifs/MAFLUD_clean'
_cell_length_a  9.17680
_cell_length_b 10.90170
_cell_length_c 11.39610
_cell_angle_alpha 117.93800
_cell_angle_beta  100.53500
_cell_angle_gamma 98.51700
_space_group_name_H-M_alt      'P 1'


loop_
_space_group_symop_operation_xyz
  'x, y, z' 

loop_
_atom_site_label
_atom_site_fract_x
_atom_site_fract_y
_atom_site_fract_z
_atom_site_type_symbol
Zn         0.0      0.5      0.5    Zn
O       0.0316    0.291   0.4224     O
O       0.0398   0.5064   0.3269     O
C       0.0487   0.4784    0.111     C
C       0.0535   0.1004   0.4644     C
C       0.0667   0.4509   0.8916     C
C        0.077   0.8963   0.4901     C
C       0.0983   0.4569   0.2306     C
H       0.1116   0.4185   0.8195     H
C        0.112   0.2095   0.4279     C
C       0.1138   0.4294   0.0014     C
H        0.128   0.8264   0.4822     H
C       0.1308   0.9981   0.4564     C
H       0.1897   0.3816   0.0021     H
O       0.2034   0.3905   0.2252     O
H       0.2197   0.9976   0.4282     H
N       0.2322   0.5967   0.6125     N
O       0.2415   0.2137   0.4036     O
H       0.2425   0.7607   0.8022     H
C       0.2955     0.71   0.7414     C
Zn     0.30986  0.37463  0.37705    Zn
N       0.3473   0.5555   0.5604     N
C       0.4513   0.7377   0.7674     C
H       0.4765   0.1888    0.151     H
N       0.4824   0.6407   0.6553     N
N       0.5176   0.3593   0.3447     N
H       0.5235   0.8112    0.849     H
C       0.5487   0.2623   0.2326     C
N       0.6527   0.4445   0.4396     N
Zn     0.69014  0.62537  0.62295    Zn
C       0.7045     0.29   0.2586     C
H       0.7575   0.2393   0.1978     H
O       0.7585   0.7863   0.5964     O
N       0.7678   0.4033   0.3875     N
H       0.7803   0.0024   0.5718     H
O       0.7966   0.6095   0.7748     O
H       0.8103   0.6184   0.9979     H
C       0.8692   0.0019   0.5436     C
H        0.872   0.1736   0.5178     H
C       0.8862   0.5706   0.9986     C
C        0.888   0.7905   0.5721     C
H       0.8884   0.5815   0.1805     H
C       0.9017   0.5431   0.7694     C
C        0.923   0.1037   0.5099     C
C       0.9333   0.5491   0.1084     C
C       0.9465   0.8996   0.5356     C
C       0.9513   0.5216    0.889     C
O       0.9602   0.4936   0.6731     O
O       0.9684    0.709   0.5776     O
