data_I
_chemical_name_common  '/home/zhangsd/repos/MofS-CGCNN/ML/data/TSD/clean_cifs/MAKFIQ_clean'
_cell_length_a 15.13210
_cell_length_b 16.97620
_cell_length_c 17.04130
_cell_angle_alpha 110.92200
_cell_angle_beta  93.25500
_cell_angle_gamma 97.51100
_space_group_name_H-M_alt      'P 1'


loop_
_space_group_symop_operation_xyz
  'x, y, z' 

loop_
_atom_site_label
_atom_site_fract_x
_atom_site_fract_y
_atom_site_fract_z
_atom_site_type_symbol
O       0.0006     0.44   0.6172     O
Eu     0.00793  0.86027   0.6441    Eu
O       0.0089   0.1176   0.9396     O
C       0.0407   0.5145   0.6671     C
O        0.043   0.0151   0.3466     O
C       0.0458   0.1697    0.013     C
H       0.0496   0.4067   0.7509     H
H       0.0517    0.229   0.0228     H
Eu     0.05239  0.02966  0.11919    Eu
O       0.0565   0.2869   0.4668     O
C       0.0567   0.5294   0.7568     C
Eu     0.05785  0.62127   0.5286    Eu
C         0.06   0.4647   0.7885     C
O       0.0687   0.9696   0.7897     O
O       0.0701   0.5742    0.645     O
O       0.0701   0.8494   0.5215     O
O       0.0739   0.1656   0.2495     O
O       0.0748     0.15   0.0727     O
C       0.0773   0.6139   0.8132     C
C       0.0777   0.4837   0.8718     C
O       0.0792   0.9645   0.9613     O
H       0.0793   0.4382   0.8916     H
O       0.0793   0.4628   0.4645     O
H       0.0806   0.6586   0.7917     H
C       0.0806   0.9649   0.2873     C
O       0.0814   0.7524   0.6649     O
H       0.0822   0.9216   0.4206     H
C       0.0921   0.8747   0.3727     C
H       0.0931   0.3232   0.3323     H
C       0.0932    0.635   0.9005     C
C       0.0936   0.8832   0.2953     C
C       0.0942   0.5682   0.9311     C
H       0.0942   0.8352   0.8217     H
C       0.0972   0.7889   0.4646     C
H       0.1031   0.6929   0.9383     H
N       0.1033   0.6653   0.0765     N
O       0.1034   0.9807   0.2244     O
C       0.1047   0.7987   0.3818     C
C       0.1074   0.8146   0.2247     C
H       0.1107   0.8207   0.1716     H
C        0.113   0.5865   0.0243     C
C        0.116   0.7288    0.311     C
C       0.1163   0.7379   0.2324     C
O       0.1187   0.7241   0.4758     O
C       0.1208   0.6612   0.1548     C
H       0.1234    0.676   0.3159     H
C       0.1325   0.2617   0.4718     C
N        0.135   0.5416    0.064     N
N       0.1376   0.5891   0.1511     N
O       0.1416   0.1861   0.4314     O
H        0.142   0.4145   0.5938     H
C       0.1485   0.9767   0.7657     C
C       0.1488   0.9398   0.9831     C
C        0.152   0.4845   0.4389     C
H       0.1544   0.0956   0.9201     H
C       0.1559   0.1851   0.2403     C
C        0.156   0.8355   0.8352     C
C       0.1563   0.3364   0.3344     C
O         0.16   0.9385   0.6899     O
C       0.1618   0.7432   0.6842     C
O       0.1794   0.9618    0.059     O
O       0.1859   0.5628   0.4605     O
O       0.1964   0.1317   0.1914     O
C       0.1968   0.8819   0.9166     C
C       0.2004   0.4179   0.3837     C
C       0.2006   0.4049   0.5801     C
O       0.2014   0.6957   0.6294     O
C       0.2038   0.2745   0.2883     C
C       0.2055   0.7891   0.7725     C
C       0.2118   0.3258   0.5228     C
C       0.2129    0.083   0.9095     C
C       0.2269   0.0265   0.8291     C
H       0.2623   0.5242   0.6545     H
C       0.2717   0.4697   0.6175     C
H       0.2731   0.1558   0.0282     H
C       0.2836   0.1204   0.9734     C
C       0.2854   0.8791   0.9366     C
C       0.2912    0.439   0.3822     C
C       0.2954   0.2949   0.2879     C
C       0.2957   0.7875   0.7939     C
C       0.2983   0.3096   0.5093     C
H       0.3073   0.2545   0.4736     H
H       0.3129   0.9097   0.9928     H
C       0.3137   0.0149   0.8128     C
H       0.3212   0.4955   0.4135     H
H       0.3246   0.9807   0.7576     H
H       0.3282   0.2527   0.2558     H
H       0.3297   0.7558    0.752     H
C       0.3357   0.8321   0.8759     C
C       0.3389   0.3769   0.3343     C
C       0.3571   0.4539      0.6     C
C       0.3703   0.1054   0.9563     C
C        0.372   0.3733   0.5475     C
C       0.3846   0.0519   0.8753     C
N       0.4246   0.6014   0.6885     N
C       0.4299   0.8314   0.9011     C
H       0.4312   0.3622   0.5381     H
C       0.4335    0.524   0.6367     C
N       0.4348   0.1971   0.1006     N
C       0.4363    0.403   0.3353     C
H       0.4434   0.0411   0.8635     H
C       0.4442   0.1408   0.0249     C
N       0.4739   0.8781   0.9787     N
N       0.4804   0.4807   0.3797     N
N       0.4851   0.7874   0.8518     N
N        0.493   0.3516   0.2956     N
N        0.507   0.6484   0.7044     N
N       0.5149   0.2126   0.1482     N
N       0.5196   0.5193   0.6203     N
N       0.5261   0.1219   0.0213     N
C       0.5558   0.8592   0.9751     C
H       0.5566   0.9589   0.1365     H
C       0.5637    0.597   0.6647     C
N       0.5652   0.8029   0.8994     N
C       0.5665    0.476   0.3633     C
H       0.5688   0.6378   0.4619     H
C       0.5701   0.1686   0.0989     C
N       0.5754   0.3986   0.3115     N
C       0.6154   0.9481   0.1247     C
C        0.628   0.6267   0.4525     C
C       0.6297   0.8946   0.0437     C
C       0.6429   0.5461      0.4     C
C       0.6611   0.6231   0.6657     C
C       0.6643   0.1679   0.1241     C
H       0.6703   0.2442    0.248     H
H       0.6718   0.7473   0.7442     H
H       0.6754   0.0193   0.2424     H
H       0.6788   0.5045   0.5865     H
C       0.6863   0.9851   0.1872     C
H       0.6871   0.0903   0.0072     H
H       0.6927   0.7455   0.5264     H
C       0.7017   0.6904   0.4907     C
C       0.7043   0.2125   0.2061     C
C       0.7046   0.7051   0.7121     C
C       0.7088    0.561   0.6178     C
C       0.7146   0.1209   0.0634     C
C       0.7164   0.8796   0.0266     C
H       0.7269   0.8442   0.9718     H
C       0.7283   0.5303   0.3825     C
H       0.7377   0.4758   0.3455     H
C       0.7731   0.9735   0.1709     C
C       0.7871    0.917   0.0905     C
C       0.7882   0.6742   0.4772     C
C       0.7945   0.2109   0.2275     C
C       0.7962   0.7255   0.7117     C
O       0.7986   0.3043   0.3706     O
C       0.7994   0.5951   0.4199     C
C       0.7996   0.5821   0.6163     C
C       0.8032   0.1181   0.0834     C
O       0.8036   0.8683   0.8086     O
O       0.8141   0.4372   0.5395     O
O       0.8206   0.0382    0.941     O
C       0.8382   0.2568   0.3158     C
O         0.84   0.0615   0.3101     O
C       0.8437   0.6636   0.6656     C
C        0.844   0.1645   0.1648     C
C       0.8441   0.8149   0.7597     C
H       0.8456   0.9044   0.0799     H
C        0.848   0.5155   0.5611     C
C       0.8512   0.0602   0.0169     C
C       0.8515   0.0233   0.2343     C
H        0.858   0.5855   0.4062     H
O       0.8584   0.8139   0.5686     O
N       0.8624   0.4109   0.8489     N
N        0.865   0.4584    0.936     N
C       0.8675   0.7383   0.5282     C
H       0.8766    0.324   0.6841     H
C       0.8792   0.3388   0.8452     C
O       0.8813   0.2759   0.5242     O
C       0.8837   0.2621   0.7676     C
C        0.884   0.2712    0.689     C
C        0.887   0.4135   0.9757     C
H       0.8893   0.1793   0.8284     H
C       0.8926   0.1854   0.7753     C
C       0.8953   0.2013   0.6182     C
O       0.8966   0.0193   0.7756     O
N       0.8967   0.3347   0.9235     N
H       0.8969   0.3071   0.0617     H
C       0.9028   0.2111   0.5354     C
H       0.9058   0.1648   0.1783     H
C       0.9058   0.4318   0.0689     C
C       0.9064   0.1168   0.7047     C
C       0.9068    0.365   0.0995     C
H       0.9069   0.6768   0.6677     H
C       0.9079   0.1253   0.6273     C
H       0.9178   0.0784   0.5794     H
O       0.9186   0.2476   0.3351     O
C       0.9194   0.0351   0.7127     C
H       0.9194   0.3414   0.2083     H
O       0.9207   0.5372   0.5355     O
H       0.9207   0.5618   0.1084     H
O       0.9208   0.0355   0.0387     O
C       0.9223   0.5163   0.1282     C
C       0.9227   0.3861   0.1868     C
O       0.9252     0.85   0.9273     O
O       0.9261   0.8344   0.7505     O
O       0.9299   0.1506   0.4785     O
O       0.9299   0.4258    0.355     O
O       0.9313   0.0304   0.2103     O
C         0.94   0.5353   0.2115     C
Eu     0.94215  0.37873   0.4714    Eu
C       0.9433   0.4706   0.2432     C
O       0.9435   0.7131   0.5332     O
Eu     0.94761  0.97034  0.88081    Eu
H       0.9483    0.771   0.9772     H
H       0.9504   0.5933   0.2491     H
C       0.9542   0.8303    0.987     C
O        0.957   0.9849   0.6534     O
C       0.9593   0.4855   0.3329     C
O       0.9911   0.8824   0.0604     O
Eu     0.99207  0.13973   0.3559    Eu
O       0.9994     0.56   0.3828     O
