data_I
_chemical_name_common  '/home/zhangsd/repos/MofS-CGCNN/ML/data/TSD/clean_cifs/MAKGAJ_clean'
_cell_length_a 15.15890
_cell_length_b 16.86090
_cell_length_c 16.97000
_cell_angle_alpha 110.90200
_cell_angle_beta  92.49000
_cell_angle_gamma 98.55200
_space_group_name_H-M_alt      'P 1'


loop_
_space_group_symop_operation_xyz
  'x, y, z' 

loop_
_atom_site_label
_atom_site_fract_x
_atom_site_fract_y
_atom_site_fract_z
_atom_site_type_symbol
O       0.0017   0.5605   0.8841     O
Dy     0.01232  0.86119  0.14583    Dy
O       0.0126   0.1175   0.4403     O
O       0.0355   0.0143    0.845     O
C       0.0382   0.5136   0.1651     C
C       0.0483   0.1698   0.5125     C
Dy     0.04984  0.02928  0.61866    Dy
H       0.0504   0.4045   0.2473     H
O       0.0526   0.2854   0.9654     O
H       0.0551   0.2295   0.5218     H
C       0.0555   0.5289   0.2564     C
Dy     0.05844  0.62189  0.02839    Dy
C       0.0597   0.4626   0.2859     C
O       0.0667   0.5754   0.1422     O
O         0.07   0.1644  0.74877     O
H       0.0718     0.66   0.2929     H
C       0.0721   0.6145   0.3135     C
O       0.0732   0.9711  0.29087     O
C       0.0734   0.9661   0.7872     C
O       0.0741   0.8507  0.02388     O
O       0.0759   0.1503   0.5734     O
O       0.0766   0.9646   0.4617     O
C       0.0774   0.4815   0.3713     C
O       0.0779   0.4635   0.9665     O
H         0.08    0.436   0.3915     H
H       0.0807   0.9223   0.9226     H
H       0.0813   0.7082   0.5645     H
O       0.0821   0.7534  0.16426     O
C       0.0888   0.6335   0.3998     C
C       0.0907   0.8756   0.8742     C
H       0.0909   0.3232   0.8333     H
C       0.0914   0.8838   0.7953     C
C       0.0916   0.5675   0.4294     C
H       0.0926   0.8346   0.3209     H
O       0.0972   0.9803   0.7221     O
H       0.0982   0.6917   0.4384     H
N       0.0989    0.666   0.5765     N
C       0.1005   0.7904   0.9662     C
C       0.1042    0.816   0.7242     C
C       0.1045   0.7997   0.8817     C
H       0.1049   0.8222   0.6708     H
C       0.1092   0.5886   0.5218     C
C       0.1163   0.7372   0.7313     C
C       0.1172   0.7297   0.8102     C
O       0.1213    0.724   0.9749     O
C       0.1214   0.6651   0.6536     C
H       0.1264   0.6773   0.8157     H
C       0.1288   0.2607   0.9703     C
O       0.1366   0.1842   0.9285     O
N       0.1372   0.5433   0.5621     N
H       0.1381   0.4151   0.0906     H
N        0.144   0.5913   0.6485     N
C       0.1469   0.9385   0.4831     C
C       0.1518   0.4866   0.9394     C
C        0.153   0.9784   0.2668     C
C       0.1535   0.1847   0.7392     C
C       0.1541    0.835   0.3348     C
C       0.1542    0.337    0.835     C
H       0.1588   0.0943   0.4218     H
C        0.163   0.7434   0.1834     C
O       0.1643   0.9392   0.1906     O
O        0.175   0.9625     0.56     O
O       0.1843   0.5647   0.9604     O
O       0.1924   0.1311   0.6899     O
C       0.1942   0.8816   0.4168     C
C       0.1968   0.4041   0.0787     C
C       0.1985   0.4196    0.884     C
C       0.2011   0.2748   0.7887     C
O       0.2024   0.6956    0.128     O
C       0.2038   0.7887   0.2725     C
C       0.2078   0.3233   0.0215     C
C       0.2175   0.0834   0.4102     C
C       0.2311   0.0286   0.3299     C
H       0.2626   0.5229   0.1572     H
C       0.2707   0.4685   0.1182     C
H       0.2781   0.1592   0.5278     H
C       0.2835   0.8798   0.4376     C
C        0.288    0.122   0.4732     C
C       0.2908   0.4395   0.8832     C
C       0.2936   0.7863   0.2942     C
C       0.2938   0.3073   0.0068     C
C       0.2946   0.2959   0.7883     C
H        0.302   0.2521   0.9696     H
H       0.3107   0.9117   0.4938     H
C       0.3175   0.0153   0.3125     C
H       0.3216   0.4961   0.9158     H
H       0.3269   0.2536   0.7556     H
H       0.3272   0.7537   0.2524     H
H       0.3277   0.9799   0.2572     H
C       0.3337   0.8317    0.377     C
C       0.3387   0.3778   0.8354     C
C       0.3563   0.4528   0.1003     C
C       0.3675   0.3706   0.0456     C
C       0.3747   0.1055   0.4555     C
C       0.3882   0.0531   0.3746     C
N       0.4224   0.6018   0.1831     N
H       0.4261   0.3586   0.0354     H
C       0.4264   0.8308   0.4019     C
C       0.4326   0.5239   0.1358     C
C       0.4359   0.4035   0.8378     C
N       0.4382   0.1979   0.6005     N
H        0.447   0.0431    0.362     H
C       0.4483    0.142   0.5246     C
H       0.4485   0.9133   0.5224     H
H       0.4605   0.5284   0.9102     H
N       0.4697   0.8775   0.4789     N
N       0.4805   0.7859   0.3532     N
N       0.4815   0.4823   0.8795     N
N       0.4916   0.3521   0.7989     N
N       0.5084   0.6479   0.2011     N
N       0.5185   0.5177   0.1205     N
N       0.5195   0.2141   0.6468     N
N       0.5303   0.1225   0.5211     N
H       0.5395   0.4716   0.0898     H
H       0.5515   0.0867   0.4776     H
C       0.5517    0.858   0.4754     C
H        0.553   0.9569    0.638     H
N       0.5618   0.8021   0.3995     N
C       0.5641   0.5965   0.1622     C
C       0.5674   0.4761   0.8642     C
C       0.5736   0.1692   0.5981     C
H       0.5739   0.6414   0.9646     H
N       0.5776   0.3982   0.8169     N
C       0.6118   0.9469   0.6254     C
C       0.6253   0.8945   0.5445     C
C       0.6325   0.6294   0.9544     C
C       0.6437   0.5472   0.8997     C
C       0.6613   0.6222   0.1646     C
C       0.6663   0.1683    0.623     C
H       0.6723   0.0201   0.7428     H
H       0.6728   0.2463   0.7476     H
H       0.6731   0.7464   0.2444     H
H       0.6784   0.5039   0.0842     H
C       0.6825   0.9847   0.6875     C
H       0.6893   0.0883   0.5062     H
H        0.698   0.7479   0.0304     H
C       0.7054   0.7041   0.2117     C
C       0.7062   0.6927   0.9932     C
C       0.7064   0.2137   0.7058     C
C       0.7092   0.5605   0.1168     C
C        0.712    0.878   0.5268     C
C       0.7165   0.1202   0.5624     C
H       0.7219   0.8408   0.4722     H
C       0.7293   0.5315   0.8818     C
H       0.7374   0.4771   0.8428     H
C       0.7689   0.9714   0.6701     C
C       0.7825   0.9166   0.5898     C
C       0.7922   0.6767   0.9785     C
C       0.7962   0.2113   0.7275     C
O       0.7976   0.3044    0.872     O
C       0.7989   0.7252   0.2113     C
C       0.8015   0.5804    0.116     C
C       0.8032   0.5959   0.9213     C
C       0.8058   0.1184   0.5832     C
O       0.8076   0.8689   0.3101     O
O       0.8157   0.4353   0.0396     O
O        0.825   0.0375     0.44     O
O       0.8357   0.0608   0.8094     O
C        0.837   0.2566   0.8166     C
H       0.8412   0.9057   0.5782     H
C       0.8458    0.663    0.165     C
C       0.8459    0.165   0.6652     C
C       0.8465   0.8153   0.2608     C
C        0.847   0.0216   0.7332     C
C       0.8482   0.5134   0.0606     C
C       0.8531   0.0615   0.5169     C
N        0.856   0.4087   0.3515     N
H       0.8619   0.5849   0.9094     H
N       0.8628   0.4567   0.4379     N
O       0.8634   0.8158   0.0715     O
C       0.8712   0.7393   0.0297     C
H       0.8736   0.3227   0.1843     H
C       0.8786   0.3349   0.3464     C
O       0.8787    0.276   0.0251     O
C       0.8828   0.2703   0.1898     C
C       0.8837   0.2628   0.2687     C
C       0.8908   0.4114   0.4782     C
H       0.8951   0.1778   0.3292     H
C       0.8955   0.2003   0.1183     C
C       0.8958    0.184   0.2758     C
C       0.8995   0.2096   0.0338     C
N       0.9011    0.334   0.4235     N
H       0.9018   0.3083   0.5616     H
O       0.9028   0.0197   0.2779     O
H       0.9074   0.1654   0.6791     H
C       0.9084   0.4325   0.5706     C
C       0.9086   0.1162   0.2047     C
H       0.9091   0.6768   0.1667     H
C       0.9093   0.1244   0.1258     C
C       0.9112   0.3665   0.6002     C
O       0.9179   0.2466  0.83574     O
H       0.9187   0.2918   0.4355     H
H       0.9193   0.0777   0.0774     H
H         0.92    0.564   0.6085     H
O       0.9221   0.5365   0.0335     O
C       0.9226   0.5185   0.6287     C
O       0.9234   0.0354   0.5383     O
O       0.9241   0.8497   0.4266     O
O       0.9259   0.1493  0.97612     O
C       0.9266   0.0339   0.2128     C
O       0.9268   0.0289  0.70913     O
C       0.9279   0.3855   0.6865     C
H       0.9282     0.34   0.7071     H
O         0.93   0.8356  0.25123     O
O       0.9333   0.4246   0.8578     O
C       0.9403   0.5374   0.7141     C
Dy     0.94156  0.37811  0.97161    Dy
C       0.9445   0.4711   0.7436     C
H       0.9449   0.7705   0.4782     H
O       0.9474   0.7146   0.0346     O
H       0.9496   0.5955   0.7527     H
Dy     0.95016  0.97072  0.38134    Dy
C       0.9517   0.8302   0.4875     C
C       0.9618   0.4864   0.8349     C
O       0.9645   0.9857    0.155     O
O       0.9874   0.8825   0.5597     O
Dy     0.98768  0.13881  0.85417    Dy
O       0.9983   0.4395   0.1159     O
