data_I
_chemical_name_common  '/home/zhangsd/repos/MofS-CGCNN/ML/data/TSD/clean_cifs/MATXAJ_clean'
_cell_length_a 31.85500
_cell_length_b 17.26800
_cell_length_c 30.29300
_cell_angle_alpha 90.00000
_cell_angle_beta  116.25000
_cell_angle_gamma 90.00000
_space_group_name_H-M_alt      'P 1'


loop_
_space_group_symop_operation_xyz
  'x, y, z' 

loop_
_atom_site_label
_atom_site_fract_x
_atom_site_fract_y
_atom_site_fract_z
_atom_site_type_symbol
C       0.0004   0.3469   0.0905     C
C       0.0004   0.6531   0.5905     C
H       0.0022   0.4172   0.4642     H
H       0.0022   0.5828   0.9642     H
C       0.0175   0.3848    0.061     C
C       0.0175   0.6152    0.561     C
H       0.0212    0.271   0.1477     H
H       0.0212    0.729   0.6477     H
C       0.0315   0.2974   0.1275     C
C       0.0315   0.7026   0.6275     C
C       0.0498   0.3606   0.4194     C
C       0.0498   0.6394   0.9194     C
O       0.0596   0.4862   0.0191     O
O       0.0596   0.5138   0.5191     O
C       0.0609   0.3751   0.0684     C
C       0.0609   0.6249   0.5684     C
O      0.06532   0.3102  0.39718     O
O      0.06532   0.6898  0.89718     O
C        0.076   0.2877   0.1342     C
C        0.076   0.7123   0.6342     C
O       0.0761   0.3902   0.4538     O
O       0.0761   0.6098   0.9538     O
C       0.0792   0.4248   0.0376     C
C       0.0792   0.5752   0.5376     C
C       0.0932   0.3251    0.105     C
C       0.0932   0.6749    0.605     C
H       0.0975   0.2297   0.1959     H
H       0.0975   0.7703   0.6959     H
Zn     0.10358  0.49896  0.48278    Zn
Zn     0.10358  0.50104  0.98278    Zn
N       0.1069   0.2401  0.17399     N
N       0.1069   0.7599  0.67399     N
O       0.1128   0.3985     0.03     O
O       0.1128   0.6015     0.53     O
H       0.1237   0.3181    0.109     H
H       0.1237   0.6819    0.609     H
Zn     0.13385  0.34363  0.43094    Zn
Zn     0.13385  0.65637  0.93094    Zn
O       0.1352   0.2787  0.33953     O
O       0.1352   0.7213  0.83953     O
O       0.1398   0.4404  0.39949     O
O       0.1398   0.5596  0.89949     O
C       0.1471   0.2105   0.1818     C
C       0.1471   0.7895   0.6818     C
O       0.1496   0.4725   0.9569     O
O       0.1496   0.5275   0.4569     O
O       0.1529   0.4425  0.54128     O
O       0.1529   0.5575  0.04128     O
C       0.1566   0.4977   0.4233     C
C       0.1566   0.5023   0.9233     C
N        0.162     0.21   0.1467     N
N        0.162     0.79   0.6467     N
C       0.1697   0.2529   0.3782     C
C       0.1697   0.7471   0.8782     C
N       0.1716   0.1771  0.22682     N
N       0.1716   0.8229  0.72682     N
O       0.1734   0.2685   0.4216     O
O       0.1734   0.7315   0.9216     O
H       0.1775   0.4895   0.3479     H
H       0.1775   0.5105   0.8479     H
O       0.1777   0.3583  0.50018     O
O       0.1777   0.6417  0.00018     O
H       0.1779   0.1993    0.301     H
H       0.1779   0.8007    0.801     H
C       0.1794   0.3915   0.5393     C
C       0.1794   0.6085   0.0393     C
C       0.1878   0.4487   0.9088     C
C       0.1878   0.5513   0.4088     C
C       0.1948   0.4698   0.8677     C
C       0.1948   0.5302   0.3677     C
H       0.1978   0.1992   0.0959     H
H       0.1978   0.8008   0.5959     H
H       0.1985   0.4107   0.6327     H
H       0.1985   0.5893   0.1327     H
C       0.2015   0.1751   0.1581     C
C       0.2015   0.8249   0.6581     C
C       0.2037   0.1839   0.3295     C
H       0.2037   0.3677   0.9597     H
H       0.2037   0.6323   0.4597     H
C       0.2037   0.8161   0.8295     C
C       0.2057   0.2033    0.375     C
C       0.2057   0.7967    0.875     C
C       0.2099   0.3849   0.9341     C
C       0.2099   0.6151   0.4341     C
C       0.2103   0.1475   0.2349     C
C       0.2103   0.8525   0.7349     C
N       0.2145   0.1708   0.1209     N
N       0.2145   0.8292   0.6209     N
C       0.2219   0.3661   0.5862     C
C       0.2219   0.6339   0.0862     C
C       0.2228   0.3829   0.6311     C
C       0.2228   0.6171   0.1311     C
C       0.2258   0.4328    0.856     C
C       0.2258   0.5672    0.356     C
N       0.2287   0.1384  0.20206     N
N       0.2287   0.8616  0.70206     N
H       0.2303   0.4492   0.8291     H
H       0.2303   0.5508   0.3291     H
C       0.2388   0.1425   0.3254     C
H       0.2388   0.4134    0.717     H
H       0.2388   0.5866    0.217     H
C       0.2388   0.8575   0.8254     C
N       0.2403   0.1198  0.28107     N
N       0.2403   0.8802  0.78107     N
C       0.2405   0.3454   0.9234     C
C       0.2405   0.6546   0.4234     C
C       0.2428   0.1781   0.4175     C
C       0.2428   0.8219   0.9175     C
H       0.2444   0.1901   0.4481     H
H       0.2444   0.8099   0.9481     H
H        0.245   0.1984   0.0584     H
H        0.245   0.8016   0.5584     H
C       0.2485   0.1306   0.1155     C
C       0.2485   0.8694   0.6155     C
C       0.2515   0.3694   0.8845     C
C       0.2515   0.6306   0.3845     C
H        0.255   0.3016   0.9416     H
H        0.255   0.6984   0.4416     H
H       0.2556   0.3099   0.5519     H
H       0.2556   0.6901   0.0519     H
C       0.2572   0.3219   0.5825     C
C       0.2572   0.6781   0.0825     C
C       0.2595   0.1546   0.0766     C
C       0.2595   0.8454   0.5766     C
N       0.2597   0.3802  0.71893     N
N       0.2597   0.6198  0.21893     N
H       0.2612   0.0866    0.283     H
C       0.2612   0.3575   0.6746     C
C       0.2612   0.6425   0.1746     C
H       0.2612   0.9134    0.783     H
H       0.2697   0.0508   0.1709     H
H       0.2697   0.9492   0.6709     H
N       0.2713   0.3616  0.79794     N
N       0.2713   0.6384  0.29794     N
C       0.2742   0.0672    0.144     C
C       0.2742   0.9328    0.644     C
C       0.2772   0.1171   0.3689     C
C       0.2772   0.8829   0.8689     C
C       0.2781   0.1339   0.4138     C
C       0.2781   0.8661   0.9138     C
N       0.2855   0.3292   0.8791     N
N       0.2855   0.6708   0.3791     N
C       0.2897   0.3525   0.7651     C
C       0.2897   0.6475   0.2651     C
C       0.2901   0.1151   0.0659     C
C       0.2901   0.8849   0.5659     C
C       0.2943   0.2967    0.625     C
C       0.2943   0.7033    0.125     C
H       0.2963   0.1323   0.0403     H
C       0.2963   0.3161   0.6705     C
C       0.2963   0.6839   0.1705     C
H       0.2963   0.8677   0.5403     H
C       0.2985   0.3249   0.8419     C
C       0.2985   0.6751   0.3419     C
H       0.3015   0.0893   0.3673     H
H       0.3015   0.9107   0.8673     H
H       0.3022   0.3008   0.9041     H
H       0.3022   0.6992   0.4041     H
C       0.3052   0.0302   0.1323     C
C       0.3052   0.9698   0.6323     C
C       0.3122   0.0513   0.0912     C
C       0.3122   0.9487   0.5912     C
C       0.3206   0.1085   0.4607     C
C       0.3206   0.8915   0.9607     C
H       0.3221   0.3007    0.699     H
H       0.3221   0.6993    0.199     H
O       0.3223   0.1417  0.49982     O
O       0.3223   0.8583  0.99982     O
H       0.3225   0.0105   0.6521     H
H       0.3225   0.9895   0.1521     H
O       0.3266   0.2315   0.5784     O
O       0.3266   0.7685   0.0784     O
N       0.3284   0.3229  0.77318     N
N       0.3284   0.6771  0.27318     N
C       0.3303   0.2471   0.6218     C
C       0.3303   0.7529   0.1218     C
N        0.338     0.29   0.8533     N
N        0.338     0.71   0.3533     N
C       0.3434   0.0023   0.5767     C
C       0.3434   0.9977   0.0767     C
O       0.3471   0.0575  0.45872     O
O       0.3471   0.9425  0.95872     O
O       0.3504   0.0275   0.0431     O
O       0.3504   0.9725   0.5431     O
C       0.3529   0.2895   0.8182     C
C       0.3529   0.7105   0.3182     C
O       0.3602   0.0596  0.60051     O
O       0.3602   0.9404  0.10051     O
O       0.3648   0.2213  0.66047     O
O       0.3648   0.7787  0.16047     O
Zn     0.36615  0.15637  0.56906    Zn
Zn     0.36615  0.84363  0.06906    Zn
H       0.3763   0.1819    0.891     H
H       0.3763   0.8181    0.391     H
O       0.3872   0.1015     0.97     O
O       0.3872   0.8985     0.47     O
N       0.3931   0.2599  0.82601     N
N       0.3931   0.7401  0.32601     N
Zn     0.39642  0.00104  0.51722    Zn
Zn     0.39642  0.99896  0.01722    Zn
H       0.4025   0.2703   0.8041     H
H       0.4025   0.7297   0.3041     H
C       0.4068   0.1749    0.895     C
C       0.4068   0.8251    0.395     C
C       0.4208   0.0752   0.9624     C
C       0.4208   0.9248   0.4624     C
O       0.4239   0.1098   0.5462     O
O       0.4239   0.8902   0.0462     O
C        0.424   0.2123   0.8658     C
C        0.424   0.7877   0.3658     C
O      0.43468   0.1898  0.60282     O
O      0.43468   0.8102  0.10282     O
C       0.4391   0.1249   0.9316     C
C       0.4391   0.8751   0.4316     C
O       0.4404   0.0138   0.9809     O
O       0.4404   0.9862   0.4809     O
C       0.4502   0.1394   0.5806     C
C       0.4502   0.8606   0.0806     C
C       0.4685   0.2026   0.8725     C
C       0.4685   0.7974   0.3725     C
H       0.4788    0.229   0.8523     H
H       0.4788    0.771   0.3523     H
C       0.4825   0.1152    0.939     C
C       0.4825   0.8848    0.439     C
H       0.4978   0.0828   0.5358     H
H       0.4978   0.9172   0.0358     H
C       0.4996   0.1531   0.9095     C
C       0.4996   0.8469   0.4095     C
C       0.5004   0.1531   0.5905     C
C       0.5004   0.8469   0.0905     C
H       0.5022   0.0828   0.9642     H
H       0.5022   0.9172   0.4642     H
C       0.5175   0.1152    0.561     C
C       0.5175   0.8848    0.061     C
H       0.5212    0.229   0.6477     H
H       0.5212    0.771   0.1477     H
C       0.5315   0.2026   0.6275     C
C       0.5315   0.7974   0.1275     C
C       0.5498   0.1394   0.9194     C
C       0.5498   0.8606   0.4194     C
O       0.5596   0.0138   0.5191     O
O       0.5596   0.9862   0.0191     O
C       0.5609   0.1249   0.5684     C
C       0.5609   0.8751   0.0684     C
O      0.56532   0.1898  0.89718     O
O      0.56532   0.8102  0.39718     O
C        0.576   0.2123   0.6342     C
C        0.576   0.7877   0.1342     C
O       0.5761   0.1098   0.9538     O
O       0.5761   0.8902   0.4538     O
C       0.5792   0.0752   0.5376     C
C       0.5792   0.9248   0.0376     C
C       0.5932   0.1749    0.605     C
C       0.5932   0.8251    0.105     C
H       0.5975   0.2703   0.6959     H
H       0.5975   0.7297   0.1959     H
Zn     0.60358  0.00104  0.98278    Zn
Zn     0.60358  0.99896  0.48278    Zn
N       0.6069   0.2599  0.67399     N
N       0.6069   0.7401  0.17399     N
O       0.6128   0.1015     0.53     O
O       0.6128   0.8985     0.03     O
H       0.6237   0.1819    0.609     H
H       0.6237   0.8181    0.109     H
Zn     0.63385  0.15637  0.93094    Zn
Zn     0.63385  0.84363  0.43094    Zn
O       0.6352   0.2213  0.83953     O
O       0.6352   0.7787  0.33953     O
O       0.6398   0.0596  0.89949     O
O       0.6398   0.9404  0.39949     O
C       0.6471   0.2895   0.6818     C
C       0.6471   0.7105   0.1818     C
O       0.6496   0.0275   0.4569     O
O       0.6496   0.9725   0.9569     O
O       0.6529   0.0575  0.04128     O
O       0.6529   0.9425  0.54128     O
C       0.6566   0.0023   0.9233     C
C       0.6566   0.9977   0.4233     C
N        0.662     0.29   0.6467     N
N        0.662     0.71   0.1467     N
C       0.6697   0.2471   0.8782     C
C       0.6697   0.7529   0.3782     C
N       0.6716   0.3229  0.72682     N
N       0.6716   0.6771  0.22682     N
O       0.6734   0.2315   0.9216     O
O       0.6734   0.7685   0.4216     O
H       0.6775   0.0105   0.8479     H
H       0.6775   0.9895   0.3479     H
O       0.6777   0.1417  0.00018     O
O       0.6777   0.8583  0.50018     O
H       0.6779   0.3007    0.801     H
H       0.6779   0.6993    0.301     H
C       0.6794   0.1085   0.0393     C
C       0.6794   0.8915   0.5393     C
C       0.6878   0.0513   0.4088     C
C       0.6878   0.9487   0.9088     C
C       0.6948   0.0302   0.3677     C
C       0.6948   0.9698   0.8677     C
H       0.6978   0.3008   0.5959     H
H       0.6978   0.6992   0.0959     H
H       0.6985   0.0893   0.1327     H
H       0.6985   0.9107   0.6327     H
C       0.7015   0.3249   0.6581     C
C       0.7015   0.6751   0.1581     C
H       0.7037   0.1323   0.4597     H
C       0.7037   0.3161   0.8295     C
C       0.7037   0.6839   0.3295     C
H       0.7037   0.8677   0.9597     H
C       0.7057   0.2967    0.875     C
C       0.7057   0.7033    0.375     C
C       0.7099   0.1151   0.4341     C
C       0.7099   0.8849   0.9341     C
C       0.7103   0.3525   0.7349     C
C       0.7103   0.6475   0.2349     C
N       0.7145   0.3292   0.6209     N
N       0.7145   0.6708   0.1209     N
C       0.7219   0.1339   0.0862     C
C       0.7219   0.8661   0.5862     C
C       0.7228   0.1171   0.1311     C
C       0.7228   0.8829   0.6311     C
C       0.7258   0.0672    0.356     C
C       0.7258   0.9328    0.856     C
N       0.7287   0.3616  0.70206     N
N       0.7287   0.6384  0.20206     N
H       0.7303   0.0508   0.3291     H
H       0.7303   0.9492   0.8291     H
H       0.7388   0.0866    0.217     H
C       0.7388   0.3575   0.8254     C
C       0.7388   0.6425   0.3254     C
H       0.7388   0.9134    0.717     H
N       0.7403   0.3802  0.78107     N
N       0.7403   0.6198  0.28107     N
C       0.7405   0.1546   0.4234     C
C       0.7405   0.8454   0.9234     C
C       0.7428   0.3219   0.9175     C
C       0.7428   0.6781   0.4175     C
H       0.7444   0.3099   0.9481     H
H       0.7444   0.6901   0.4481     H
H        0.745   0.3016   0.5584     H
H        0.745   0.6984   0.0584     H
C       0.7485   0.3694   0.6155     C
C       0.7485   0.6306   0.1155     C
C       0.7515   0.1306   0.3845     C
C       0.7515   0.8694   0.8845     C
H        0.755   0.1984   0.4416     H
H        0.755   0.8016   0.9416     H
H       0.7556   0.1901   0.0519     H
H       0.7556   0.8099   0.5519     H
C       0.7572   0.1781   0.0825     C
C       0.7572   0.8219   0.5825     C
C       0.7595   0.3454   0.5766     C
C       0.7595   0.6546   0.0766     C
N       0.7597   0.1198  0.21893     N
N       0.7597   0.8802  0.71893     N
C       0.7612   0.1425   0.1746     C
H       0.7612   0.4134    0.783     H
H       0.7612   0.5866    0.283     H
C       0.7612   0.8575   0.6746     C
H       0.7697   0.4492   0.6709     H
H       0.7697   0.5508   0.1709     H
N       0.7713   0.1384  0.29794     N
N       0.7713   0.8616  0.79794     N
C       0.7742   0.4328    0.644     C
C       0.7742   0.5672    0.144     C
C       0.7772   0.3829   0.8689     C
C       0.7772   0.6171   0.3689     C
C       0.7781   0.3661   0.9138     C
C       0.7781   0.6339   0.4138     C
N       0.7855   0.1708   0.3791     N
N       0.7855   0.8292   0.8791     N
C       0.7897   0.1475   0.2651     C
C       0.7897   0.8525   0.7651     C
C       0.7901   0.3849   0.5659     C
C       0.7901   0.6151   0.0659     C
C       0.7943   0.2033    0.125     C
C       0.7943   0.7967    0.625     C
C       0.7963   0.1839   0.1705     C
H       0.7963   0.3677   0.5403     H
H       0.7963   0.6323   0.0403     H
C       0.7963   0.8161   0.6705     C
C       0.7985   0.1751   0.3419     C
C       0.7985   0.8249   0.8419     C
H       0.8015   0.4107   0.8673     H
H       0.8015   0.5893   0.3673     H
H       0.8022   0.1992   0.4041     H
H       0.8022   0.8008   0.9041     H
C       0.8052   0.4698   0.6323     C
C       0.8052   0.5302   0.1323     C
C       0.8122   0.4487   0.5912     C
C       0.8122   0.5513   0.0912     C
C       0.8206   0.3915   0.9607     C
C       0.8206   0.6085   0.4607     C
H       0.8221   0.1993    0.199     H
H       0.8221   0.8007    0.699     H
O       0.8223   0.3583  0.99982     O
O       0.8223   0.6417  0.49982     O
H       0.8225   0.4895   0.1521     H
H       0.8225   0.5105   0.6521     H
O       0.8266   0.2685   0.0784     O
O       0.8266   0.7315   0.5784     O
N       0.8284   0.1771  0.27318     N
N       0.8284   0.8229  0.77318     N
C       0.8303   0.2529   0.1218     C
C       0.8303   0.7471   0.6218     C
N        0.838     0.21   0.3533     N
N        0.838     0.79   0.8533     N
C       0.8434   0.4977   0.0767     C
C       0.8434   0.5023   0.5767     C
O       0.8471   0.4425  0.95872     O
O       0.8471   0.5575  0.45872     O
O       0.8504   0.4725   0.5431     O
O       0.8504   0.5275   0.0431     O
C       0.8529   0.2105   0.3182     C
C       0.8529   0.7895   0.8182     C
O       0.8602   0.4404  0.10051     O
O       0.8602   0.5596  0.60051     O
O       0.8648   0.2787  0.16047     O
O       0.8648   0.7213  0.66047     O
Zn     0.86615  0.34363  0.06906    Zn
Zn     0.86615  0.65637  0.56906    Zn
H       0.8763   0.3181    0.391     H
H       0.8763   0.6819    0.891     H
O       0.8872   0.3985     0.47     O
O       0.8872   0.6015     0.97     O
N       0.8931   0.2401  0.32601     N
N       0.8931   0.7599  0.82601     N
Zn     0.89642  0.49896  0.01722    Zn
Zn     0.89642  0.50104  0.51722    Zn
H       0.9025   0.2297   0.3041     H
H       0.9025   0.7703   0.8041     H
C       0.9068   0.3251    0.395     C
C       0.9068   0.6749    0.895     C
C       0.9208   0.4248   0.4624     C
C       0.9208   0.5752   0.9624     C
O       0.9239   0.3902   0.0462     O
O       0.9239   0.6098   0.5462     O
C        0.924   0.2877   0.3658     C
C        0.924   0.7123   0.8658     C
O      0.93468   0.3102  0.10282     O
O      0.93468   0.6898  0.60282     O
C       0.9391   0.3751   0.4316     C
C       0.9391   0.6249   0.9316     C
O       0.9404   0.4862   0.4809     O
O       0.9404   0.5138   0.9809     O
C       0.9502   0.3606   0.0806     C
C       0.9502   0.6394   0.5806     C
C       0.9685   0.2974   0.3725     C
C       0.9685   0.7026   0.8725     C
H       0.9788    0.271   0.3523     H
H       0.9788    0.729   0.8523     H
C       0.9825   0.3848    0.439     C
C       0.9825   0.6152    0.939     C
H       0.9978   0.4172   0.0358     H
H       0.9978   0.5828   0.5358     H
C       0.9996   0.3469   0.4095     C
C       0.9996   0.6531   0.9095     C
