data_I
_chemical_name_common  '/home/zhangsd/repos/MofS-CGCNN/ML/data/TSD/clean_cifs/MAWTUC_clean'
_cell_length_a 12.48700
_cell_length_b 12.48700
_cell_length_c  9.77600
_cell_angle_alpha 90.00000
_cell_angle_beta  90.00000
_cell_angle_gamma 90.00000
_space_group_name_H-M_alt      'P 1'


loop_
_space_group_symop_operation_xyz
  'x, y, z' 

loop_
_atom_site_label
_atom_site_fract_x
_atom_site_fract_y
_atom_site_fract_z
_atom_site_type_symbol
C        0.015     0.36    0.858     C
Zn      0.0158   0.5902   0.7779    Zn
C        0.017    0.566    0.476     C
O       0.0207   0.4747    0.469     O
H       0.0276   0.4207   0.6626     H
O       0.0525   0.6269    0.577     O
N        0.059   0.4369    0.751     N
H       0.0606   0.7337   0.2221     H
H       0.0699    0.309   0.8873     H
C        0.079    0.697    0.305     C
H       0.1032   0.7403   0.3619     H
H       0.1354   0.6462   0.2861     H
N       0.1436   0.6706    0.851     N
H       0.1446   0.3167   0.5256     H
H       0.1557   0.5826   0.0236     H
H       0.1621   0.7746   0.6939     H
C        0.188    0.424    0.742     C
C        0.188   0.6373    0.974     C
C       0.1918   0.7523    0.776     C
C       0.1993   0.2844    0.575     C
H       0.2131   0.4802    0.681     H
H       0.2162   0.4399   0.8318     H
H       0.2254   0.1621   0.4439     H
C       0.2326   0.3288    0.699     C
C       0.2477   0.1918    0.526     C
H       0.2597   0.1032   0.1119     H
H       0.2663   0.0606   0.9721     H
C       0.2806   0.6857    0.023     C
C       0.2844   0.8007    0.825     C
C        0.303    0.079    0.055     C
H        0.309   0.9301   0.1373     H
H       0.3103   0.6634   0.1053     H
C       0.3143   0.2806    0.773     C
H       0.3167   0.8554   0.7756     H
C       0.3288   0.7674    0.949     C
N       0.3294   0.1436    0.601     N
H       0.3366   0.3103   0.8553     H
H       0.3538   0.1354   0.0361     H
C         0.36    0.985    0.108     C
C       0.3627    0.188    0.724     C
O       0.3731   0.0525    0.327     O
Zn      0.4098   0.0158   0.5279    Zn
H       0.4174   0.1557   0.7736     H
H       0.4207   0.9724   0.9126     H
C        0.424    0.812    0.992     C
C        0.434    0.017    0.226     C
N       0.4369    0.941    0.001     N
H       0.4399   0.7838   0.0818     H
O       0.4747   0.9793    0.719     O
H       0.4802   0.7869    0.931     H
H       0.5198   0.2131    0.431     H
O       0.5253   0.0207    0.219     O
H       0.5601   0.2162   0.5818     H
N       0.5631    0.059    0.501     N
C        0.566    0.983    0.726     C
C        0.576    0.188    0.492     C
H       0.5793   0.0276   0.4126     H
H       0.5826   0.8443   0.2736     H
Zn      0.5902   0.9842   0.0279    Zn
O       0.6269   0.9475    0.827     O
C       0.6373    0.812    0.224     C
C         0.64    0.015    0.608     C
H       0.6462   0.8646   0.5361     H
H       0.6634   0.6897   0.3553     H
N       0.6706   0.8564    0.101     N
C       0.6712   0.2326    0.449     C
H       0.6833   0.1446   0.2756     H
C       0.6857   0.7194    0.273     C
H       0.6897   0.3366   0.6053     H
H        0.691   0.0699   0.6373     H
C        0.697    0.921    0.555     C
C       0.7156   0.1993    0.325     C
C       0.7194   0.3143    0.523     C
H       0.7337   0.9394   0.4721     H
H       0.7403   0.8968   0.6119     H
C       0.7523   0.8082    0.026     C
C       0.7674   0.6712    0.199     C
H       0.7746   0.8379   0.9439     H
H       0.7838   0.5601   0.3318     H
H       0.7869   0.5198    0.181     H
C       0.8007   0.7156    0.075     C
C       0.8082   0.2477    0.276     C
C        0.812   0.3627    0.474     C
C        0.812    0.576    0.242     C
H       0.8379   0.2254   0.1939     H
H       0.8443   0.4174   0.5236     H
H       0.8554   0.6833   0.0256     H
N       0.8564   0.3294    0.351     N
H       0.8646   0.3538   0.7861     H
H       0.8968   0.2597   0.8619     H
C        0.921    0.303    0.805     C
H       0.9301    0.691   0.3873     H
H       0.9394   0.2663   0.7221     H
N        0.941   0.5631    0.251     N
O       0.9475   0.3731    0.077     O
H       0.9724   0.5793   0.1626     H
O       0.9793   0.5253    0.969     O
C        0.983    0.434    0.976     C
Zn      0.9842   0.4098   0.2779    Zn
C        0.985     0.64    0.358     C
