data_I
_chemical_name_common  '/home/zhangsd/repos/MofS-CGCNN/ML/data/TSD/clean_cifs/MAWVAK_clean'
_cell_length_a 12.80000
_cell_length_b 12.80000
_cell_length_c  9.98400
_cell_angle_alpha 90.00000
_cell_angle_beta  90.00000
_cell_angle_gamma 90.00000
_space_group_name_H-M_alt      'P 1'


loop_
_space_group_symop_operation_xyz
  'x, y, z' 

loop_
_atom_site_label
_atom_site_fract_x
_atom_site_fract_y
_atom_site_fract_z
_atom_site_type_symbol
H       0.0197   0.7068   0.1309     H
O       0.0261    0.522   0.3496     O
H       0.0595    0.709    0.983     H
N       0.0671   0.5655   0.0656     N
C       0.0711    0.478   0.8443     C
C       0.0741   0.6816   0.0716     C
H       0.0885   0.5416   0.1459     H
Zn     0.09028  0.48277  0.54161    Zn
H       0.0927   0.3401   0.3013     H
O       0.1247   0.4455   0.7454     O
C       0.1355   0.5154    0.964     C
H       0.1406   0.3784   0.0754     H
C       0.1474   0.3104   0.3494     C
N       0.1739    0.355    0.468     N
C       0.1754   0.7256   0.1175     C
H       0.1758   0.1996   0.2124     H
H       0.1872   0.6497    0.295     H
H       0.1882   0.5657   0.9336     H
C       0.1906   0.4191   0.0262     C
C       0.1956   0.2247   0.2961     C
H       0.1996   0.8242   0.9624     H
C       0.2182   0.7008    0.242     C
H       0.2203   0.3772   0.9562     H
C       0.2247   0.8044   0.0461     C
H       0.2449   0.4421   0.0856     H
C       0.2482    0.306   0.5363     C
H       0.2668   0.3329   0.6195     H
C       0.2744   0.1754   0.3675     C
H        0.291   0.0595    0.233     H
H       0.2932   0.0197   0.3809     H
C       0.2992   0.2182    0.492     C
C        0.306   0.7518   0.2863     C
C       0.3104   0.8526   0.0994     C
C       0.3184   0.0741   0.3216     C
H       0.3329   0.7332   0.3695     H
H       0.3401   0.9073   0.0513     H
H       0.3503   0.1872    0.545     H
N        0.355   0.8261    0.218     N
H       0.3772   0.7797   0.7062     H
H       0.3784   0.8594   0.8254     H
C       0.4191   0.8094   0.7762     C
H       0.4343   0.1882   0.1836     H
N       0.4345   0.0671   0.3156     N
H       0.4421   0.7551   0.8356     H
O       0.4455   0.8753   0.4954     O
H       0.4584   0.0885   0.3959     H
O        0.478   0.0261   0.5996     O
C        0.478   0.9289   0.5943     C
Zn     0.48277  0.90972  0.29161    Zn
C       0.4846   0.1355    0.214     C
C       0.5154   0.8645    0.714     C
Zn     0.51723  0.09028  0.79161    Zn
C        0.522   0.0711   0.0943     C
O        0.522   0.9739   0.0996     O
H       0.5416   0.9115   0.8959     H
O       0.5545   0.1247   0.9954     O
H       0.5579   0.2449   0.3356     H
N       0.5655   0.9329   0.8156     N
H       0.5657   0.8118   0.6836     H
C       0.5809   0.1906   0.2762     C
H       0.6216   0.1406   0.3254     H
H       0.6228   0.2203   0.2062     H
N        0.645   0.1739    0.718     N
H       0.6497   0.8128    0.045     H
H       0.6599   0.0927   0.5513     H
H       0.6671   0.2668   0.8695     H
C       0.6816   0.9259   0.8216     C
C       0.6896   0.1474   0.5994     C
C        0.694   0.2482   0.7863     C
C       0.7008   0.7818    0.992     C
H       0.7068   0.9803   0.8809     H
H        0.709   0.9405    0.733     H
C       0.7256   0.8246   0.8675     C
H       0.7332   0.6671   0.1195     H
C       0.7518    0.694   0.0363     C
H       0.7551   0.5579   0.5856     H
C       0.7753   0.1956   0.5461     C
H       0.7797   0.6228   0.4562     H
C       0.7818   0.2992    0.742     C
H       0.8004   0.1758   0.4624     H
C       0.8044   0.7753   0.7961     C
C       0.8094   0.5809   0.5262     C
H       0.8118   0.4343   0.4336     H
H       0.8128   0.3503    0.795     H
H       0.8242   0.8004   0.7124     H
C       0.8246   0.2744   0.6175     C
N       0.8261    0.645    0.968     N
C       0.8526   0.6896   0.8494     C
H       0.8594   0.6216   0.5754     H
C       0.8645   0.4846    0.464     C
O       0.8753   0.5545   0.2454     O
H       0.9073   0.6599   0.8013     H
Zn     0.90972  0.51723  0.04161    Zn
H       0.9115   0.4584   0.6459     H
C       0.9259   0.3184   0.5716     C
C       0.9289    0.522   0.3443     C
N       0.9329   0.4345   0.5656     N
H       0.9405    0.291    0.483     H
O       0.9739    0.478   0.8496     O
H       0.9803   0.2932   0.6309     H
