data_I
_chemical_name_common  '/home/zhangsd/repos/MofS-CGCNN/ML/data/TSD/clean_cifs/MAXHEA_clean'
_cell_length_a  8.69120
_cell_length_b 10.39350
_cell_length_c 10.81800
_cell_angle_alpha 90.00000
_cell_angle_beta  90.00000
_cell_angle_gamma 90.00000
_space_group_name_H-M_alt      'P 1'


loop_
_space_group_symop_operation_xyz
  'x, y, z' 

loop_
_atom_site_label
_atom_site_fract_x
_atom_site_fract_y
_atom_site_fract_z
_atom_site_type_symbol
Ce     0.00765  0.10131  0.11267    Ce
H       0.0205   0.8053   0.6011     H
C       0.0319   0.4252   0.0296     C
H       0.0407     0.62   0.9956     H
C       0.0422   0.5434   0.9459     C
H       0.0438   0.0443   0.6098     H
O       0.0475   0.3068   0.9554     O
H       0.1362   0.5403   0.8993     H
O       0.1535    0.004   0.2809     O
P       0.1563    0.916  0.39339     P
O       0.1583   0.5706   0.5649     O
O       0.1743   0.2851   0.1992     O
O       0.1755   0.7745    0.359     O
O       0.1786   0.5299   0.2304     O
P        0.194   0.4184  0.13898     P
O       0.2212   0.0417   0.9847     O
O       0.2788   0.9583   0.4847     O
P        0.306   0.5816  0.63898     P
O       0.3214   0.4701   0.7304     O
O       0.3245   0.2255    0.859     O
O       0.3257   0.7149   0.6992     O
O       0.3417   0.4294   0.0649     O
P       0.3437    0.084  0.89339     P
O       0.3465    0.996   0.7809     O
H       0.3638   0.4597   0.3993     H
O       0.4525   0.6932   0.4554     O
H       0.4562   0.9557   0.1098     H
C       0.4578   0.4566   0.4459     C
H       0.4593     0.38   0.4956     H
C       0.4681   0.5748   0.5296     C
H       0.4795   0.1947   0.1011     H
Ce     0.49235  0.89869  0.61267    Ce
Ce     0.50765  0.39869  0.88733    Ce
H       0.5205   0.6947   0.3989     H
C       0.5319   0.0748   0.9704     C
H       0.5407     0.88   0.0044     H
C       0.5422   0.9566   0.0541     C
H       0.5438   0.4557   0.3902     H
O       0.5475   0.1932   0.0446     O
H       0.6362   0.9597   0.1007     H
O       0.6535    0.496   0.7191     O
P       0.6563    0.584  0.60661     P
O       0.6583   0.9294   0.4351     O
O       0.6743   0.2149   0.8008     O
O       0.6755   0.7255    0.641     O
O       0.6786   0.9701   0.7696     O
P        0.694   0.0816  0.86102     P
O       0.7212   0.4583   0.0153     O
O       0.7788   0.5417   0.5153     O
P        0.806   0.9184  0.36102     P
O       0.8214   0.0299   0.2696     O
O       0.8245   0.2745    0.141     O
O       0.8257   0.7851   0.3008     O
O       0.8417   0.0706   0.9351     O
P       0.8437    0.416  0.10661     P
O       0.8465    0.504   0.2191     O
H       0.8638   0.0403   0.6007     H
O       0.9525   0.8068   0.5446     O
H       0.9562   0.5443   0.8902     H
C       0.9578   0.0434   0.5541     C
H       0.9593     0.12   0.5044     H
C       0.9681   0.9252   0.4704     C
H       0.9795   0.3053   0.8989     H
Ce     0.99235  0.60131  0.38733    Ce
