data_I
_chemical_name_common  '/home/zhangsd/repos/MofS-CGCNN/ML/data/TSD/clean_cifs/MAXJEC_clean'
_cell_length_a 10.32400
_cell_length_b  8.31300
_cell_length_c 10.53400
_cell_angle_alpha 90.00000
_cell_angle_beta  90.00000
_cell_angle_gamma 90.00000
_space_group_name_H-M_alt      'P 1'


loop_
_space_group_symop_operation_xyz
  'x, y, z' 

loop_
_atom_site_label
_atom_site_fract_x
_atom_site_fract_y
_atom_site_fract_z
_atom_site_type_symbol
H        0.008    0.682   0.4849     H
H        0.008    0.818   0.4849     H
O        0.031   0.5692   0.6822     O
O        0.031   0.9308   0.6822     O
O       0.0578     0.75   0.4564     O
H       0.1271     0.25   0.0025     H
Gd     0.13974     0.25  0.37948    Gd
P       0.1676   0.5672   0.6264     P
P       0.1676   0.9328   0.6264     P
C       0.1752     0.75   0.5299     C
O       0.1884   0.0699   0.5373     O
O       0.1884   0.4301   0.5373     O
H       0.2009   0.1577    0.893     H
H       0.2009   0.3423    0.893     H
C        0.201     0.25    0.948     C
O       0.2297   0.0739   0.2287     O
O       0.2297   0.4261   0.2287     O
O       0.2703   0.5739   0.7287     O
O       0.2703   0.9261   0.7287     O
C        0.299     0.75    0.448     C
H       0.2991   0.6577    0.393     H
H       0.2991   0.8423    0.393     H
O       0.3116   0.5699   0.0373     O
O       0.3116   0.9301   0.0373     O
C       0.3248     0.25   0.0299     C
P       0.3324   0.0672   0.1264     P
P       0.3324   0.4328   0.1264     P
Gd     0.36026     0.75  0.87948    Gd
H       0.3729     0.75   0.5025     H
O       0.4422     0.25   0.9564     O
O        0.469   0.0692   0.1822     O
O        0.469   0.4308   0.1822     O
H        0.492    0.182   0.9849     H
H        0.492    0.318   0.9849     H
H        0.508    0.682   0.0151     H
H        0.508    0.818   0.0151     H
O        0.531   0.5692   0.8178     O
O        0.531   0.9308   0.8178     O
O       0.5578     0.75   0.0436     O
H       0.6271     0.25   0.4975     H
Gd     0.63974     0.25  0.12052    Gd
P       0.6676   0.5672   0.8736     P
P       0.6676   0.9328   0.8736     P
C       0.6752     0.75   0.9701     C
O       0.6884   0.0699   0.9627     O
O       0.6884   0.4301   0.9627     O
H       0.7009   0.1577    0.607     H
H       0.7009   0.3423    0.607     H
C        0.701     0.25    0.552     C
O       0.7297   0.0739   0.2713     O
O       0.7297   0.4261   0.2713     O
O       0.7703   0.5739   0.7713     O
O       0.7703   0.9261   0.7713     O
C        0.799     0.75    0.052     C
H       0.7991   0.6577    0.107     H
H       0.7991   0.8423    0.107     H
O       0.8116   0.5699   0.4627     O
O       0.8116   0.9301   0.4627     O
C       0.8248     0.25   0.4701     C
P       0.8324   0.0672   0.3736     P
P       0.8324   0.4328   0.3736     P
Gd     0.86026     0.75  0.62052    Gd
H       0.8729     0.75   0.9975     H
O       0.9422     0.25   0.5436     O
O        0.969   0.0692   0.3178     O
O        0.969   0.4308   0.3178     O
H        0.992    0.182   0.5151     H
H        0.992    0.318   0.5151     H
