data_I
_chemical_name_common  '/home/zhangsd/repos/MofS-CGCNN/ML/data/TSD/clean_cifs/MAXJIG_clean'
_cell_length_a 10.29700
_cell_length_b  8.30340
_cell_length_c 10.50000
_cell_angle_alpha 90.00000
_cell_angle_beta  90.00000
_cell_angle_gamma 90.00000
_space_group_name_H-M_alt      'P 1'


loop_
_space_group_symop_operation_xyz
  'x, y, z' 

loop_
_atom_site_label
_atom_site_fract_x
_atom_site_fract_y
_atom_site_fract_z
_atom_site_type_symbol
H       0.0034   0.1735   0.9618     H
H       0.0034   0.3265   0.9618     H
O       0.0295   0.0693   0.1822     O
O       0.0295   0.4307   0.1822     O
O       0.0578     0.25   0.9551     O
H       0.1243     0.75   0.4986     H
Tb        0.14     0.75  0.87957    Tb
P       0.1672   0.0673   0.1267     P
P       0.1672   0.4327   0.1267     P
C       0.1773     0.25    0.032     C
O       0.1883   0.5706   0.0367     O
O       0.1883   0.9294   0.0367     O
C       0.2003     0.75    0.446     C
H       0.2018   0.6564   0.3925     H
H       0.2018   0.8436   0.3925     H
O       0.2296    0.574   0.7297     O
O       0.2296    0.926   0.7297     O
O       0.2704    0.074   0.2297     O
O       0.2704    0.426   0.2297     O
H       0.2982   0.1564   0.8925     H
H       0.2982   0.3436   0.8925     H
C       0.2997     0.25    0.946     C
O       0.3117   0.0706   0.5367     O
O       0.3117   0.4294   0.5367     O
C       0.3227     0.75    0.532     C
P       0.3328   0.5673   0.6267     P
P       0.3328   0.9327   0.6267     P
Tb        0.36     0.25  0.37957    Tb
H       0.3757     0.25   0.9986     H
O       0.4422     0.75   0.4551     O
O       0.4705   0.5693   0.6822     O
O       0.4705   0.9307   0.6822     O
H       0.4966   0.6735   0.4618     H
H       0.4966   0.8265   0.4618     H
H       0.5034   0.1735   0.5382     H
H       0.5034   0.3265   0.5382     H
O       0.5295   0.0693   0.3178     O
O       0.5295   0.4307   0.3178     O
O       0.5578     0.25   0.5449     O
H       0.6243     0.75   0.0014     H
Tb        0.64     0.75  0.62043    Tb
P       0.6672   0.0673   0.3733     P
P       0.6672   0.4327   0.3733     P
C       0.6773     0.25    0.468     C
O       0.6883   0.5706   0.4633     O
O       0.6883   0.9294   0.4633     O
C       0.7003     0.75    0.054     C
H       0.7018   0.6564   0.1075     H
H       0.7018   0.8436   0.1075     H
O       0.7296    0.574   0.7703     O
O       0.7296    0.926   0.7703     O
O       0.7704    0.074   0.2703     O
O       0.7704    0.426   0.2703     O
H       0.7982   0.1564   0.6075     H
H       0.7982   0.3436   0.6075     H
C       0.7997     0.25    0.554     C
O       0.8117   0.0706   0.9633     O
O       0.8117   0.4294   0.9633     O
C       0.8227     0.75    0.968     C
P       0.8328   0.5673   0.8733     P
P       0.8328   0.9327   0.8733     P
Tb        0.86     0.25  0.12043    Tb
H       0.8757     0.25   0.5014     H
O       0.9422     0.75   0.0449     O
O       0.9705   0.5693   0.8178     O
O       0.9705   0.9307   0.8178     O
H       0.9966   0.6735   0.0382     H
H       0.9966   0.8265   0.0382     H
