data_I
_chemical_name_common  '/home/zhangsd/repos/MofS-CGCNN/ML/data/TSD/clean_cifs/MEGBEH_manual'
_cell_length_a 18.94160
_cell_length_b 18.94160
_cell_length_c 19.97400
_cell_angle_alpha 112.63800
_cell_angle_beta  112.63800
_cell_angle_gamma 100.85000
_space_group_name_H-M_alt      'P 1'


loop_
_space_group_symop_operation_xyz
  'x, y, z' 

loop_
_atom_site_label
_atom_site_fract_x
_atom_site_fract_y
_atom_site_fract_z
_atom_site_type_symbol
C       0.0026   0.8616   0.3492     C
N       0.0029   0.4091    0.412     N
O       0.0065   0.4725   0.0972     O
C       0.0173   0.7529    0.236     C
O        0.024   0.3888    0.907     O
C       0.0278   0.3354   0.3018     C
C       0.0336    0.726   0.6982     C
O       0.0337   0.9285   0.4164     O
H       0.0396   0.2782   0.7924     H
H       0.0409   0.4719   0.2244     H
C       0.0464   0.4242   0.3678     C
C       0.0507   0.6483   0.1254     C
H       0.0515   0.3229    0.268     H
C       0.0538   0.8278   0.3112     C
H       0.0549   0.7835    0.732     H
C       0.0564   0.6786   0.6322     C
C       0.0659   0.7247   0.2036     C
N       0.0667   0.5667      0.5     N
O       0.0715   0.9663   0.5836     O
O       0.0725   0.1831   0.6918     O
C       0.0747   0.4771   0.1254     C
H       0.0755   0.8367    0.596     H
Cd     0.08668  0.52972      0.0    Cd
O       0.0907   0.6247   0.0972     O
C       0.0952   0.4748   0.2462     C
C       0.1011   0.4927   0.3872     C
C       0.1055   0.7139   0.6128     C
C       0.1112   0.6568   0.5438     C
Cl      0.1123   0.1123   0.5288    Cl
C        0.113   0.5674   0.4562     C
Cl      0.1139   0.4953   0.6092    Cl
O        0.117   0.4818    0.093     O
C       0.1256   0.8612   0.6464     C
C       0.1338    0.475   0.3212     C
C       0.1377   0.4789   0.2036     C
C       0.1384   0.9974   0.6508     C
C       0.1388   0.8744   0.3536     C
C        0.151   0.7714   0.2462     C
C       0.1538   0.8126   0.6788     C
H       0.1633   0.9245    0.404     H
C       0.1692    0.638   0.4642     C
C       0.1722   0.9462   0.6888     C
C       0.1738    0.705   0.5358     C
Cd     0.18299  0.18299  0.69198    Cd
O       0.1831   0.0725   0.6918     O
H       0.1835   0.7525   0.2244     H
C       0.1874   0.8462   0.3212     C
H       0.1947   0.6399    0.433     H
H       0.2069   0.7617    0.567     H
C       0.2148   0.4792   0.3536     C
H       0.2165   0.9451    0.268     H
C       0.2187   0.4831    0.236     C
C       0.2286    0.849   0.7538     C
H       0.2383   0.7931    0.433     H
H       0.2407   0.4795    0.404     H
C       0.2471   0.9827    0.764     C
H       0.2472   0.4858   0.2076     H
H       0.2475   0.8165   0.7756     H
C       0.2574   0.4834   0.3112     C
C        0.274   0.9664   0.3018     C
C       0.2753   0.9341   0.7964     C
H       0.2782   0.0396   0.7924     H
C       0.2861   0.8945   0.3872     C
C        0.295   0.8262   0.4642     C
C       0.3214   0.9436   0.3678     C
H       0.3229   0.0515    0.268     H
C       0.3354   0.0278   0.3018     C
C       0.3432   0.8888   0.4562     C
C       0.3466   0.4876   0.3492     C
C       0.3517   0.9493   0.8746     C
H       0.3601   0.8053    0.567     H
C        0.362   0.8308   0.5358     C
O       0.3753   0.9093   0.9028     O
O       0.3807   0.4913   0.3082     O
O       0.3827   0.4879   0.4164     O
O       0.3888    0.024    0.907     O
N       0.4091   0.0029    0.412     N
Cl      0.4165   0.4165   0.5288    Cl
C       0.4242   0.0464   0.3678     C
C       0.4326    0.887   0.5438     C
N       0.4333   0.9333      0.5     N
Cd     0.47028  0.91332      0.0    Cd
H       0.4719   0.0409   0.2244     H
O       0.4725   0.0065   0.0972     O
C       0.4748   0.0952   0.2462     C
C        0.475   0.1338   0.3212     C
C       0.4771   0.0747   0.1254     C
C       0.4789   0.1377   0.2036     C
C       0.4792   0.2148   0.3536     C
H       0.4795   0.2407    0.404     H
O       0.4818    0.117    0.093     O
C       0.4831   0.2187    0.236     C
C       0.4834   0.2574   0.3112     C
H       0.4858   0.2472   0.2076     H
C       0.4876   0.3466   0.3492     C
O       0.4879   0.3827   0.4164     O
Cd     0.49101  0.49101  0.30802    Cd
O       0.4913   0.3807   0.3082     O
C       0.4927   0.1011   0.3872     C
Mn         0.5     -0.0      0.5    Mn
Cd         0.5      0.5      0.5    Cd
Cl      0.5047   0.8861   0.3908    Cl
C       0.5073   0.8989   0.6128     C
O       0.5087   0.6193   0.6918     O
Cd     0.50899  0.50899  0.69198    Cd
O       0.5121   0.6173   0.5836     O
C       0.5124   0.6534   0.6508     C
H       0.5142   0.7528   0.7924     H
C       0.5166   0.7426   0.6888     C
C       0.5169   0.7813    0.764     C
O       0.5182    0.883    0.907     O
H       0.5205   0.7593    0.596     H
C       0.5208   0.7852   0.6464     C
C       0.5211   0.8623   0.7964     C
C       0.5229   0.9253   0.8746     C
C        0.525   0.8662   0.6788     C
C       0.5252   0.9048   0.7538     C
O       0.5275   0.9935   0.9028     O
H       0.5281   0.9591   0.7756     H
Cd     0.52972  0.08668      0.0    Cd
N       0.5667   0.0667      0.5     N
C       0.5674    0.113   0.4562     C
C       0.5758   0.9536   0.6322     C
Cl      0.5835   0.5835   0.4712    Cl
N       0.5909   0.9971    0.588     N
O       0.6112    0.976    0.093     O
O       0.6173   0.5121   0.5836     O
O       0.6193   0.5087   0.6918     O
O       0.6247   0.0907   0.0972     O
C        0.638   0.1692   0.4642     C
H       0.6399   0.1947    0.433     H
C       0.6483   0.0507   0.1254     C
C       0.6534   0.5124   0.6508     C
C       0.6568   0.1112   0.5438     C
C       0.6646   0.9722   0.6982     C
H       0.6771   0.9485    0.732     H
C       0.6786   0.0564   0.6322     C
C        0.705   0.1738   0.5358     C
C       0.7139   0.1055   0.6128     C
H       0.7218   0.9604   0.2076     H
C       0.7247   0.0659   0.2036     C
C        0.726   0.0336   0.6982     C
C       0.7426   0.5166   0.6888     C
H       0.7525   0.1835   0.2244     H
H       0.7528   0.5142   0.7924     H
C       0.7529   0.0173    0.236     C
H       0.7593   0.5205    0.596     H
H       0.7617   0.2069    0.567     H
C       0.7714    0.151   0.2462     C
C       0.7813   0.5169    0.764     C
H       0.7835   0.0549    0.732     H
C       0.7852   0.5208   0.6464     C
H       0.7931   0.2383    0.433     H
H       0.8053   0.3601    0.567     H
C       0.8126   0.1538   0.6788     C
H       0.8165   0.2475   0.7756     H
O       0.8169   0.9275   0.3082     O
Cd     0.81701  0.81701  0.30802    Cd
C       0.8262    0.295   0.4642     C
C       0.8278   0.0538   0.3112     C
C       0.8308    0.362   0.5358     C
H       0.8367   0.0755    0.596     H
C       0.8462   0.1874   0.3212     C
C        0.849   0.2286   0.7538     C
C       0.8612   0.1256   0.6464     C
C       0.8616   0.0026   0.3492     C
C       0.8623   0.5211   0.7964     C
C       0.8662    0.525   0.6788     C
C       0.8744   0.1388   0.3536     C
O        0.883   0.5182    0.907     O
C        0.887   0.4326   0.5438     C
Cl      0.8877   0.8877   0.4712    Cl
C       0.8888   0.3432   0.4562     C
C       0.8945   0.2861   0.3872     C
C       0.8989   0.5073   0.6128     C
C       0.9048   0.5252   0.7538     C
O       0.9093   0.3753   0.9028     O
Cd     0.91332  0.47028      0.0    Cd
H       0.9245   0.1633    0.404     H
C       0.9253   0.5229   0.8746     C
O       0.9275   0.8169   0.3082     O
O       0.9285   0.0337   0.4164     O
N       0.9333   0.4333      0.5     N
C       0.9341   0.2753   0.7964     C
C       0.9436   0.3214   0.3678     C
H       0.9451   0.2165    0.268     H
C       0.9462   0.1722   0.6888     C
H       0.9485   0.6771    0.732     H
C       0.9493   0.3517   0.8746     C
C       0.9536   0.5758   0.6322     C
H       0.9591   0.5281   0.7756     H
H       0.9604   0.7218   0.2076     H
O       0.9663   0.0715   0.5836     O
C       0.9664    0.274   0.3018     C
C       0.9722   0.6646   0.6982     C
O        0.976   0.6112    0.093     O
C       0.9827   0.2471    0.764     C
O       0.9935   0.5275   0.9028     O
N       0.9971   0.5909    0.588     N
C       0.9974   0.1384   0.6508     C
Cd         1.0     -0.0      0.5    Cd
Mn         1.0      0.5      0.5    Mn
