data_I
_chemical_name_common  '/home/zhangsd/repos/MofS-CGCNN/ML/data/TSD/clean_cifs/MEJZEI_clean'
_cell_length_a 15.26880
_cell_length_b 15.35520
_cell_length_c 15.40300
_cell_angle_alpha 106.78700
_cell_angle_beta  117.05900
_cell_angle_gamma 103.19500
_space_group_name_H-M_alt      'P 1'


loop_
_space_group_symop_operation_xyz
  'x, y, z' 

loop_
_atom_site_label
_atom_site_fract_x
_atom_site_fract_y
_atom_site_fract_z
_atom_site_type_symbol
O       0.0034   0.3219   0.4505     O
O       0.0236   0.0253   0.2338     O
H       0.0308   0.5246   0.5831     H
O       0.0361   0.7655   0.8044     O
O       0.0469   0.0803   0.6288     O
La     0.05702  0.19746  0.36576    La
O       0.0571   0.9111   0.5974     O
H       0.0674   0.6114   0.6931     H
La     0.08488  0.85361  0.43676    La
C         0.09   0.6947   0.5658     C
C       0.0935   0.5776   0.6532     C
H       0.0957   0.1665   0.8149     H
O       0.0969   0.2926   0.6772     O
H       0.1123   0.4786   0.7193     H
O       0.1138    0.919    0.315     O
P       0.1175   0.0251   0.6439     P
P       0.1259   0.0168    0.309     P
C        0.129   0.8105    0.831     C
O       0.1304   0.7432   0.5311     O
H       0.1351   0.6877   0.9232     H
H       0.1432   0.3198   0.9509     H
O       0.1484   0.8592   0.7834     O
C       0.1572   0.6512   0.6344     C
H       0.1587   0.4378   0.5958     H
C       0.1594   0.5308   0.7168     C
H       0.1611   0.5546   0.5126     H
H       0.1646   0.1721   0.9308     H
C       0.1671   0.2002   0.8826     C
H       0.1728   0.9899   0.1834     H
O       0.1753    0.256   0.5624     O
H       0.1776   0.0354   0.8175     H
O       0.1822   0.0391   0.5928     O
O       0.1839   0.3754   0.4278     O
O       0.1867   0.1083   0.4215     O
H       0.1929   0.3371   0.8845     H
C       0.1959   0.3101    0.935     C
P       0.1967   0.3066   0.6756     P
O        0.202   0.2588   0.3243     O
C       0.2055   0.7339   0.9559     C
C       0.2112   0.0405   0.2585     C
N       0.2116   0.4865   0.6638     N
C       0.2121   0.0736   0.7927     C
H       0.2142   0.7076   0.7065     H
C       0.2145   0.6072   0.5868     C
H       0.2151   0.5815   0.7913     H
H       0.2221   0.1051   0.2582     H
C       0.2235   0.8059   0.9224     C
C       0.2262   0.3502   0.3777     C
N        0.248   0.1817   0.8592     N
H       0.2542   0.2141   0.8206     H
H        0.262   0.6591   0.5844     H
H       0.2637   0.8904   0.2752     H
H       0.2713   0.5424   0.4393     H
C       0.2752   0.4406   0.7279     C
H       0.2758   0.0616   0.8062     H
O       0.2766   0.5072   0.1117     O
H        0.278    0.683   0.0622     H
O       0.2792   0.2777   0.7498     O
C       0.2806   0.5642   0.6558     C
O       0.2875   0.9033   0.5388     O
C       0.2917     0.73   0.0378     C
H       0.2933   0.5247   0.1767     H
H       0.2983   0.9203   0.2026     H
H       0.2993   0.4756   0.8036     H
C       0.3062   0.4279   0.3805     C
H       0.3091    0.345    0.095     H
C       0.3111   0.3677   0.0423     C
H        0.315   0.5352   0.6232     H
C       0.3163   0.5273   0.4181     C
C       0.3183   0.9394   0.2771     C
N        0.321   0.0403   0.3233     N
La     0.32161  0.18393  0.61665    La
C       0.3288   0.8698   0.9673     C
H       0.3373   0.6177   0.7285     H
H       0.3376   0.0549   0.3914     H
H       0.3391   0.4496   0.7258     H
C       0.3394   0.4797   0.0897     C
H       0.3419   0.9147   0.9404     H
H        0.349   0.1972   0.0102     H
C       0.3547   0.2266    0.964     C
O       0.3647   0.0447   0.5392     O
H       0.3689   0.3433   0.3269     H
C       0.3692   0.9753   0.5668     C
C       0.3738   0.4082   0.3504     C
H       0.3891   0.1044   0.2594     H
C       0.3921    0.603    0.424     C
C       0.3932   0.3419    0.023     C
H       0.3963   0.6678   0.4473     H
C        0.397   0.7934   0.0845     C
H       0.4042   0.3715    0.979     H
H       0.4049   0.1829   0.3631     H
C        0.405   0.1183   0.3319     C
O        0.407   0.3612   0.6407     O
H       0.4073   0.2125   0.9505     H
C       0.4157   0.8678   0.0521     C
O       0.4166   0.1407   0.7755     O
O       0.4198   0.5319    0.103     O
H       0.4251   0.8745   0.3085     H
C       0.4275   0.9391   0.3446     C
H       0.4294   0.8273    0.595     H
H       0.4418   0.9476   0.4154     H
O       0.4439   0.2493   0.5558     O
C       0.4493   0.4814   0.3536     C
C       0.4589    0.337   0.6002     C
C       0.4618   0.5821   0.3951     C
H       0.4621   0.3704   0.0926     H
H        0.464   0.8569   0.5223     H
O       0.4749   0.7279    0.208     O
C        0.479   0.9778   0.6383     C
C       0.4827   0.8773   0.5965     C
H       0.4857   0.9158   0.0871     H
C       0.4907   0.7924   0.1762     C
H       0.4914   0.4648   0.3288     H
H       0.4915   0.9929   0.7104     H
H       0.5085   0.0071   0.2896     H
H       0.5086   0.5352   0.6712     H
C       0.5093   0.2076   0.8238     C
H       0.5143   0.0842   0.9129     H
C       0.5173   0.1227   0.4035     C
C        0.521   0.0222   0.3617     C
O       0.5251   0.2721    0.792     O
H        0.536   0.1431   0.4777     H
H       0.5379   0.6296   0.9074     H
C       0.5382   0.4179   0.6049     C
C       0.5411    0.663   0.3998     C
C       0.5507   0.5186   0.6464     C
O       0.5561   0.7507   0.4442     O
H       0.5582   0.0524   0.5846     H
H       0.5706   0.1727    0.405     H
C       0.5725   0.0609   0.6554     C
H       0.5749   0.1255   0.6915     H
O       0.5802   0.4681    0.897     O
O       0.5834   0.8593   0.2245     O
C       0.5843   0.1322   0.9479     C
H       0.5927   0.7875   0.0495     H
O        0.593   0.6388   0.3593     O
C        0.595   0.8817   0.6681     C
H       0.5951   0.8171   0.6369     H
H       0.5958   0.6285    0.021     H
C        0.603   0.2066   0.9155     C
H       0.6037   0.3322   0.5527     H
C       0.6068   0.6581    0.977     C
C       0.6079    0.397    0.576     C
H       0.6109   0.8956   0.7406     H
C       0.6262   0.5918   0.6496     C
C       0.6308   0.0247   0.4332     C
H       0.6311   0.6567   0.6731     H
O       0.6353   0.9553   0.4608     O
C       0.6453   0.7734    0.036     C
H        0.651   0.8028   0.9898     H
H       0.6581   0.0853   0.0596     H
C       0.6606   0.5203   0.9103     C
H       0.6609   0.5504   0.2742     H
H       0.6624   0.9451   0.6086     H
H       0.6627   0.3823   0.2715     H
C       0.6712   0.1302   0.0327     C
La     0.67839  0.81607  0.38335    La
N        0.679   0.9597   0.6767     N
C       0.6817   0.0606   0.7229     C
C       0.6837   0.4727   0.5819     C
H        0.685   0.4648   0.3768     H
C       0.6889   0.6323   0.9577     C
H       0.6909    0.655    0.905     H
C       0.6938   0.5721   0.6195     C
H       0.7007   0.5244   0.1964     H
H       0.7017   0.0797   0.7974     H
H       0.7067   0.4753   0.8233     H
C       0.7083     0.27   0.9622     C
O       0.7125   0.0967   0.4612     O
C       0.7194   0.4358   0.3442     C
O       0.7208   0.7223   0.2502     O
H        0.722    0.317   0.9378     H
O       0.7234   0.4928   0.8883     O
H       0.7242   0.9384   0.1938     H
C       0.7248   0.5594   0.2721     C
H       0.7287   0.4576   0.5607     H
H       0.7363   0.1096   0.7248     H
H        0.738   0.3409   0.4156     H
H       0.7458   0.7859   0.1794     H
N        0.752   0.8183   0.1408     N
C       0.7738   0.6498   0.6223     C
C       0.7765   0.1941   0.0776     C
H       0.7779   0.8949   0.7418     H
H       0.7849   0.4185   0.2087     H
C       0.7855   0.3928   0.4132     C
H       0.7858   0.2924   0.2935     H
C       0.7879   0.9264   0.2073     C
N       0.7884   0.5135   0.3362     N
C       0.7888   0.9595   0.7415     C
C       0.7945   0.2661   0.0441     C
O        0.798   0.7412   0.6757     O
P       0.8033   0.6934   0.3244     P
C       0.8041   0.6899    0.065     C
H       0.8071   0.6629   0.1155     H
O       0.8133   0.8917   0.5785     O
O       0.8161   0.6246   0.5722     O
O       0.8178   0.9609   0.4072     O
H       0.8224   0.9646   0.1825     H
O       0.8247    0.744   0.4376     O
H       0.8272   0.0101   0.8166     H
C       0.8329   0.7998   0.1174     C
H       0.8354   0.8279   0.0692     H
H       0.8389   0.4454   0.4874     H
C       0.8406   0.4692   0.2832     C
H       0.8413   0.5622   0.4042     H
C       0.8428   0.3488   0.3656     C
O       0.8516   0.1408   0.2166     O
H       0.8568   0.6802   0.0491     H
H       0.8649   0.3123   0.0768     H
O       0.8696   0.2568   0.4689     O
C        0.871   0.1895    0.169     C
P       0.8741   0.9832    0.691     P
P       0.8825   0.9749   0.3561     P
O       0.8862    0.081    0.685     O
H       0.8877   0.5214   0.2807     H
O       0.9031   0.7074   0.3228     O
H       0.9043   0.8335   0.1851     H
C       0.9065   0.4224   0.3468     C
C         0.91   0.3053   0.4342     C
La     0.91512  0.14639  0.56324    La
H       0.9326   0.3886   0.3069     H
O       0.9429   0.0889   0.4026     O
La     0.94298  0.80254  0.63424    La
O       0.9531   0.9197   0.3712     O
O       0.9639   0.2345   0.1956     O
H       0.9692   0.4754   0.4169     H
O       0.9764   0.9747   0.7662     O
O       0.9966   0.6781   0.5495     O
