data_I
_chemical_name_common  '/home/zhangsd/repos/MofS-CGCNN/ML/data/TSD/clean_cifs/METYIU_clean'
_cell_length_a 17.35040
_cell_length_b 17.35040
_cell_length_c 17.35040
_cell_angle_alpha 64.97300
_cell_angle_beta  81.14640
_cell_angle_gamma 115.02700
_space_group_name_H-M_alt      'P 1'


loop_
_space_group_symop_operation_xyz
  'x, y, z' 

loop_
_atom_site_label
_atom_site_fract_x
_atom_site_fract_y
_atom_site_fract_z
_atom_site_type_symbol
C       0.0058   0.7374   0.2918     C
H       0.0144   0.2396    0.675     H
H       0.0331   0.3554   0.7483     H
H        0.054    0.892   0.0158     H
C       0.0559   0.3361   0.7126     C
N       0.0605   0.0374   0.1617     N
O        0.076   0.1257   0.8833     O
H       0.0783    0.954   0.1181     H
C       0.0873   0.8792   0.9809     C
Cd     0.09048  0.03852   0.7958    Cd
C       0.1061   0.7839   0.2454     C
C       0.1062   0.0091   0.1241     C
N       0.1066   0.9151   0.8917     N
H        0.114   0.1542   0.1818     H
H       0.1148   0.7919   0.0711     H
N        0.121    0.823   0.0144     N
H       0.1223   0.2351   0.9542     H
C       0.1263   0.1192   0.1587     C
O       0.1347   0.1774   0.6389     O
O       0.1389   0.7736   0.1837     O
C        0.155   0.3892   0.6676     C
C        0.158   0.8812    0.868     C
O       0.1608   0.8354   0.2722     O
C       0.1613    0.176   0.8469     C
H        0.164   0.3458   0.0402     H
C       0.1676   0.8226   0.9432     C
O       0.1746    0.067   0.6608     O
H        0.175   0.6894   0.0854     H
H       0.1771   0.3141   0.6148     H
H       0.1777   0.2814   0.4669     H
C       0.1778   0.1485   0.6061     C
H       0.1832    0.896   0.8086     H
C       0.1859   0.2771   0.9174     C
N       0.1975   0.0695   0.0958     N
N        0.202   0.3646    0.621     N
H       0.2046    0.396   0.2872     H
O       0.2069   0.1602   0.7979     O
C       0.2082   0.7024   0.0292     C
C       0.2126   0.7685   0.9513     C
C       0.2127   0.1419   0.1168     C
H       0.2128   0.5082   0.6832     H
C       0.2188   0.2595   0.8593     C
C       0.2198   0.2685   0.4441     C
C       0.2221   0.3808   0.9929     C
C       0.2232    0.474    0.658     C
O       0.2278    0.567   0.1076     O
C       0.2316   0.2024   0.5058     C
H       0.2397   0.0645   0.0692     H
C       0.2413   0.3581   0.9292     C
H       0.2483   0.7814   0.8963     H
C       0.2492   0.3812   0.2768     C
C       0.2546   0.6485   0.0293     C
C       0.2658   0.3226    0.345     C
H       0.2748   0.1894   0.4856     H
H       0.2825   0.3015   0.8226     H
C       0.2919   0.4318   0.5873     C
Cd      0.2958  0.88628  0.16568    Cd
O       0.2979   0.0048   0.0419     O
N       0.3009   0.4626   0.9769     N
C       0.3055   0.2229   0.0912     C
N       0.3068   0.4151   0.1915     N
N       0.3085   0.5017   0.6066     N
H       0.3086   0.9918   0.2954     H
H       0.3107   0.2649   0.1128     H
O       0.3163   0.6774   0.9573     O
H       0.3182   0.7042    0.336     H
H       0.3226   0.1051   0.8759     H
H       0.3248   0.1911   0.7397     H
Cd     0.33432  0.53852  0.05196    Cd
N       0.3347   0.4305    0.872     N
N       0.3374    0.323    0.298     N
H        0.338   0.4302    0.554     H
N       0.3383   0.7778   0.1991     N
C       0.3413    0.715   0.2779     C
C       0.3469   0.0082   0.9771     C
C       0.3593   0.0781   0.8812     C
C       0.3601   0.3792   0.2081     C
H        0.363   0.2919   0.3229     H
H       0.3663   0.4355   0.8248     H
C       0.3668   0.4909   0.9029     C
C        0.368    0.026   0.2508     C
N        0.372   0.2067   0.6975     N
H       0.3757   0.3036   0.5783     H
H       0.3759   0.1985    0.019     H
C       0.3759   0.7697   0.1332     C
C       0.3812   0.2405   0.0407     C
H       0.3819   0.8036   0.0721     H
C       0.3832   0.6705   0.2587     C
O       0.3833   0.9593    0.991     O
H       0.3872   0.5765   0.3777     H
N       0.3917   0.9983   0.1932     N
O       0.3924   0.6646   0.6746     O
H       0.3963   0.1446   0.3223     H
C       0.4029   0.2697   0.6062     C
N       0.4042   0.7067   0.1653     N
H       0.4078    0.392    0.162     H
C       0.4088   0.6033   0.3141     C
H       0.4146   0.7396   0.7748     H
C       0.4174   0.1033   0.8055     C
H       0.4279    0.546   0.8757     H
H       0.4289   0.8141    0.863     H
C       0.4292   0.1705   0.7127     C
H       0.4308   0.6911   0.1337     H
C       0.4432   0.1108   0.2342     C
Cd     0.44804  0.61372  0.59048    Cd
O       0.4503   0.4593    0.424     O
C       0.4513   0.1639   0.2802     C
O       0.4533   0.4952   0.7069     O
H       0.4542   0.0765   0.8107     H
O       0.4573   0.2736   0.3653     O
O       0.4581   0.6602   0.0467     O
C       0.4593   0.5781   0.2812     C
H       0.4598   0.7958    0.386     H
C       0.4707   0.7161   0.6778     C
C       0.4708   0.7626   0.7316     C
N       0.4769   0.2778   0.5605     N
C       0.4771    0.324   0.0147     C
C       0.4809   0.0682   0.1399     C
H        0.481   0.6051   0.2175     H
H       0.4842   0.9302   0.9078     H
C       0.4853   0.5082   0.3387     C
N       0.4856   0.8646   0.8374     N
O        0.491   0.3743   0.0497     O
C       0.4929    0.215   0.6263     C
C       0.5071    0.785   0.3737     C
O        0.509   0.6257   0.9503     O
N       0.5144   0.1354   0.1626     N
C       0.5147   0.4918   0.6613     C
H       0.5158   0.0698   0.0922     H
H        0.519   0.3949   0.7825     H
C       0.5191   0.9318   0.8601     C
C       0.5229    0.676   0.9853     C
N       0.5231   0.7222   0.4395     N
C       0.5292   0.2374   0.2684     C
C       0.5293   0.2839   0.3222     C
H       0.5402   0.2042    0.614     H
C       0.5407   0.4219   0.7188     C
O       0.5419   0.3398   0.9533     O
O       0.5427   0.7264   0.6347     O
H       0.5458   0.9235   0.1893     H
O       0.5467   0.5048   0.2931     O
C       0.5487   0.8361   0.7198     C
O       0.5497   0.5407    0.576     O
Cd     0.55196  0.38628  0.40952    Cd
C       0.5568   0.8892   0.7658     C
H       0.5692   0.3089   0.8663     H
C       0.5708   0.8295   0.2873     C
H       0.5711   0.1859    0.137     H
H       0.5721    0.454   0.1243     H
C       0.5826   0.8967   0.1945     C
H       0.5854   0.2604   0.2252     H
C       0.5912   0.3967   0.6859     C
H       0.5922    0.608    0.838     H
N       0.5958   0.2933   0.8347     N
C       0.5971   0.7303   0.3938     C
H       0.6037   0.8554   0.6777     H
O       0.6076   0.3354   0.3254     O
N       0.6083   0.0017   0.8068     N
H       0.6128   0.4235   0.6223     H
O       0.6167   0.0407    0.009     O
C       0.6168   0.3295   0.7413     C
H       0.6181   0.1964   0.9279     H
C       0.6188   0.7595   0.9593     C
C       0.6241   0.2303   0.8668     C
H       0.6241   0.8015    0.981     H
H       0.6243   0.6964   0.4217     H
N        0.628   0.7933   0.3025     N
C        0.632    0.974   0.7492     C
C       0.6332   0.5091   0.0971     C
H       0.6337   0.5645   0.1752     H
H        0.637   0.7081   0.6771     H
C       0.6399   0.6208   0.7919     C
C       0.6407   0.9219   0.1188     C
C       0.6531   0.9918   0.0229     C
C       0.6587    0.285   0.7221     C
N       0.6617   0.2222   0.8009     N
H        0.662   0.5698    0.446     H
N       0.6626    0.677    0.702     N
N       0.6653   0.5695    0.128     N
Cd     0.66568  0.46148  0.94804    Cd
H       0.6752   0.8089   0.2603     H
H       0.6774   0.8949   0.1241     H
H       0.6818   0.2958    0.664     H
O       0.6837   0.3226   0.0427     O
H       0.6893   0.7351   0.8872     H
H       0.6914   0.0082   0.7046     H
N       0.6915   0.4983   0.3934     N
N       0.6932   0.5849   0.8085     N
C       0.6945   0.7771   0.9088     C
N       0.6991   0.5374   0.0231     N
O       0.7021   0.9952   0.9581     O
Cd      0.7042  0.11372  0.83432    Cd
C       0.7081   0.5682   0.4127     C
H       0.7175   0.6985   0.1774     H
H       0.7252   0.8106   0.5144     H
C       0.7342   0.6774    0.655     C
C       0.7454   0.3515   0.9707     C
C       0.7508   0.6188   0.7232     C
H       0.7517   0.2186   0.1037     H
C       0.7587   0.6419   0.0708     C
H       0.7603   0.9355   0.9308     H
C       0.7684   0.7976   0.4942     C
O       0.7722    0.433   0.8924     O
C       0.7768    0.526    0.342     C
C       0.7779   0.6192   0.0071     C
C       0.7802   0.7315   0.5559     C
C       0.7812   0.7405   0.1407     C
H       0.7872   0.4918   0.3168     H
C       0.7873   0.8581   0.8832     C
C       0.7874   0.2315   0.0487     C
C       0.7918   0.2976   0.9708     C
O       0.7931   0.8398   0.2021     O
H       0.7954    0.604   0.7128     H
N        0.798   0.6354    0.379     N
N       0.8025   0.9305   0.9042     N
C       0.8141   0.7229   0.0826     C
H       0.8168    0.104   0.1914     H
C       0.8222   0.8515   0.3939     C
H       0.8223   0.7186   0.5331     H
H       0.8229   0.6859   0.3852     H
H        0.825   0.3106   0.9146     H
O       0.8254    0.933   0.3392     O
C       0.8324   0.1774   0.0568     C
H        0.836   0.6542   0.9598     H
C       0.8387    0.824   0.1531     C
O       0.8392   0.1646   0.7278     O
C        0.842   0.1188    0.132     C
C        0.845   0.6108   0.3324     C
O       0.8611   0.2264   0.8163     O
O       0.8653   0.8226   0.3611     O
C       0.8737   0.8808   0.8413     C
H       0.8777   0.7649   0.0458     H
N        0.879    0.177   0.9856     N
H       0.8852   0.2081   0.9289     H
H        0.886   0.8458   0.8182     H
N       0.8934   0.0849   0.1083     N
C       0.8938   0.9909   0.8759     C
C       0.8939   0.2161   0.7546     C
Cd     0.90952  0.96148   0.2042    Cd
C       0.9127   0.1208   0.0191     C
H       0.9217    0.046   0.8819     H
O        0.924   0.8743   0.1167     O
N       0.9395   0.9626   0.8383     N
C       0.9441   0.6639   0.2874     C
H        0.946    0.108   0.9842     H
H       0.9669   0.6446   0.2517     H
H       0.9856   0.7604    0.325     H
C       0.9942   0.2626   0.7082     C
