data_I
_chemical_name_common  '/home/zhangsd/repos/MofS-CGCNN/ML/data/TSD/clean_cifs/MIDCAF_clean'
_cell_length_a 12.78330
_cell_length_b 25.55990
_cell_length_c 25.55990
_cell_angle_alpha 90.00000
_cell_angle_beta  90.00000
_cell_angle_gamma 90.00000
_space_group_name_H-M_alt      'P 1'


loop_
_space_group_symop_operation_xyz
  'x, y, z' 

loop_
_atom_site_label
_atom_site_fract_x
_atom_site_fract_y
_atom_site_fract_z
_atom_site_type_symbol
Zn         0.0  0.12514  0.12514    Zn
Zn         0.0  0.87486  0.87486    Zn
C        0.002   0.1517   0.0076     C
C        0.002   0.8483   0.9924     C
O       0.0028   0.1223   0.0425     O
O       0.0028   0.8777   0.9575     O
N       0.0067   0.4257   0.3061     N
N       0.0067   0.5743   0.6939     N
O       0.0073   0.1223   0.2064     O
O       0.0073   0.8777   0.7936     O
H       0.0099   0.4284    0.515     H
H       0.0099   0.5716    0.485     H
C        0.016   0.2826    0.168     C
C        0.016   0.7174    0.832     C
C         0.02    0.347   0.4572     C
C         0.02    0.653   0.5428     C
C        0.034   0.2499   0.3484     C
C        0.034   0.7501   0.6516     C
C        0.044   0.4747   0.5951     C
C        0.044   0.5253   0.4049     C
O       0.0546   0.1876    0.995     O
O       0.0546   0.8124    0.005     O
C        0.055   0.2466   0.1266     C
C        0.055   0.7534   0.8734     C
C        0.057   0.2944   0.3836     C
C        0.057   0.3572    0.222     C
C        0.057   0.6428    0.778     C
C        0.057   0.7056   0.6164     C
C        0.059    0.498   0.3581     C
C        0.059    0.502   0.6419     C
C        0.075   0.1958   0.2751     C
C        0.075   0.8042   0.7249     C
H       0.0812   0.0766   0.8015     H
H       0.0812   0.9234   0.1985     H
C        0.084    0.322   0.1829     C
C        0.084    0.678   0.8171     C
C        0.092   0.0338    0.869     C
C        0.092   0.9662    0.131     C
H        0.095   0.4131   0.5519     H
H        0.095   0.5869   0.4481     H
H       0.0993   0.3869   0.2286     H
H       0.0993   0.6131   0.7714     H
C        0.102   0.2351   0.3089     C
C        0.102   0.7649   0.6911     C
N        0.103   0.3788   0.4443     N
N        0.103   0.6212   0.5557     N
C        0.107   0.4325   0.5829     C
C        0.107   0.5675   0.4171     C
C        0.118   0.0727   0.8335     C
C        0.118   0.9273   0.1665     C
H       0.1201   0.1875   0.2466     H
H       0.1201   0.8125   0.7534     H
H       0.1241    0.001    0.939     H
H       0.1241    0.999    0.061     H
O       0.1305   0.2557   0.0979     O
O       0.1305   0.7443   0.9021     O
C        0.137   0.4862   0.6759     C
C        0.137   0.5138   0.3241     C
N        0.138   0.3265   0.3693     N
N        0.138   0.6735   0.6307     N
C        0.144   0.0281   0.9156     C
C        0.144   0.9719   0.0844     C
H       0.1442   0.4973    0.291     H
H       0.1442   0.5027    0.709     H
H       0.1499   0.3246   0.1663     H
H       0.1499   0.6754   0.8337     H
Zn      0.1605  0.20515  0.04442    Zn
Zn      0.1605  0.79485  0.95558    Zn
O       0.1655   0.1276   0.1298     O
O       0.1655   0.8724   0.8702     O
H       0.1668   0.2525   0.3052     H
H       0.1668   0.7475   0.6948     H
C        0.167   0.3646   0.4042     C
C        0.167   0.6354   0.5958     C
C        0.189   0.4186   0.6154     C
C        0.189   0.5814   0.3846     C
C          0.2   0.1061   0.8459     C
C          0.2   0.8939   0.1541     C
C        0.203   0.4462   0.6612     C
C        0.203   0.5538   0.3388     C
H       0.2241    0.132    0.822     H
H       0.2241    0.868    0.178     H
C        0.225   0.0611    0.929     C
C        0.225   0.9389    0.071     C
H       0.2368   0.4431   0.4605     H
H       0.2368   0.5569   0.5395     H
H       0.2396   0.0625   0.1833     H
H       0.2396   0.9375   0.8167     H
O       0.2414   0.3478   0.5619     O
O       0.2414   0.6522   0.4381     O
C        0.242   0.1237   0.0966     C
C        0.242   0.8763   0.9034     C
C        0.246      0.1    0.894     C
C        0.246      0.9    0.106     C
C        0.254      0.4    0.394     C
C        0.254      0.6    0.606     C
C        0.258   0.3763   0.5966     C
C        0.258   0.6237   0.4034     C
O       0.2586   0.1522   0.0619     O
O       0.2586   0.8478   0.9381     O
H       0.2604   0.4375   0.6833     H
H       0.2604   0.5625   0.3167     H
H       0.2632   0.0569   0.9605     H
H       0.2632   0.9431   0.0395     H
C        0.275   0.4389    0.429     C
C        0.275   0.5611    0.571     C
H       0.2759    0.368    0.322     H
H       0.2759    0.632    0.678     H
C        0.297   0.0538   0.1612     C
C        0.297   0.9462   0.8388     C
C          0.3   0.3939   0.3459     C
C          0.3   0.6061   0.6541     C
C        0.311   0.0814   0.1154     C
C        0.311   0.9186   0.8846     C
C        0.333   0.1354   0.9042     C
C        0.333   0.8646   0.0958     C
H       0.3332   0.2475   0.8052     H
H       0.3332   0.7525   0.1948     H
O       0.3345   0.3724   0.6298     O
O       0.3345   0.6276   0.3702     O
Zn      0.3395  0.29485  0.54442    Zn
Zn      0.3395  0.70515  0.45558    Zn
H       0.3501   0.1754   0.6663     H
H       0.3501   0.8246   0.3337     H
H       0.3558   0.0027    0.791     H
H       0.3558   0.9973    0.209     H
C        0.356   0.4719   0.4156     C
C        0.356   0.5281   0.5844     C
N        0.362   0.1735   0.8693     N
N        0.362   0.8265   0.1307     N
C        0.363   0.0138   0.1759     C
C        0.363   0.9862   0.8241     C
O       0.3695   0.2443   0.5979     O
O       0.3695   0.7557   0.4021     O
H       0.3759    0.499    0.439     H
H       0.3759    0.501    0.561     H
H       0.3799   0.3125   0.7466     H
H       0.3799   0.6875   0.2534     H
C        0.382   0.4273   0.3335     C
C        0.382   0.5727   0.6665     C
C        0.393   0.0675   0.0829     C
C        0.393   0.9325   0.9171     C
N        0.397   0.1212   0.9443     N
N        0.397   0.8788   0.0557     N
C        0.398   0.2649   0.8089     C
C        0.398   0.7351   0.1911     C
H       0.4007   0.1131   0.7286     H
H       0.4007   0.8869   0.2714     H
H        0.405   0.0869   0.0519     H
H        0.405   0.9131   0.9481     H
C        0.408   0.4662    0.369     C
C        0.408   0.5338    0.631     C
C        0.416    0.178   0.6829     C
C        0.416    0.822   0.3171     C
H       0.4188   0.4234   0.3015     H
H       0.4188   0.5766   0.6985     H
C        0.425   0.3042   0.7751     C
C        0.425   0.6958   0.2249     C
C        0.441    0.002   0.8581     C
C        0.441    0.998   0.1419     C
C        0.443   0.1428    0.722     C
C        0.443   0.2056   0.8836     C
C        0.443   0.7944   0.1164     C
C        0.443   0.8572    0.278     C
C        0.445   0.2534   0.6266     C
C        0.445   0.7466   0.3734     C
O       0.4454   0.3124    0.495     O
O       0.4454   0.6876    0.505     O
C        0.456   0.0253   0.0951     C
C        0.456   0.9747   0.9049     C
C        0.466   0.2501   0.8484     C
C        0.466   0.7499   0.1516     C
C         0.48    0.153   0.9572     C
C         0.48    0.847   0.0428     C
C        0.484   0.2174    0.668     C
C        0.484   0.7826    0.332     C
H       0.4901   0.0716    0.015     H
H       0.4901   0.9284    0.985     H
O       0.4927   0.3777   0.7064     O
O       0.4927   0.6223   0.2936     O
N       0.4933   0.0743   0.8061     N
N       0.4933   0.9257   0.1939     N
O       0.4972   0.3777   0.5425     O
O       0.4972   0.6223   0.4575     O
C        0.498   0.3483   0.5076     C
C        0.498   0.6517   0.4924     C
Zn         0.5  0.37486  0.62514    Zn
Zn         0.5  0.62514  0.37486    Zn
C        0.502   0.4924   0.6517     C
C        0.502   0.5076   0.3483     C
O       0.5028   0.4575   0.6223     O
O       0.5028   0.5425   0.3777     O
N       0.5067   0.1939   0.9257     N
N       0.5067   0.8061   0.0743     N
O       0.5073   0.2936   0.6223     O
O       0.5073   0.7064   0.3777     O
H       0.5099    0.015   0.0716     H
H       0.5099    0.985   0.9284     H
C        0.516    0.332   0.7826     C
C        0.516    0.668   0.2174     C
C         0.52   0.0428    0.847     C
C         0.52   0.9572    0.153     C
C        0.534   0.1516   0.7499     C
C        0.534   0.8484   0.2501     C
C        0.544   0.0951   0.0253     C
C        0.544   0.9049   0.9747     C
O       0.5546    0.495   0.3124     O
O       0.5546    0.505   0.6876     O
C        0.555   0.3734   0.7466     C
C        0.555   0.6266   0.2534     C
C        0.557   0.1164   0.7944     C
C        0.557    0.278   0.8572     C
C        0.557    0.722   0.1428     C
C        0.557   0.8836   0.2056     C
C        0.559   0.1419    0.998     C
C        0.559   0.8581    0.002     C
C        0.575   0.2249   0.6958     C
C        0.575   0.7751   0.3042     C
H       0.5812   0.3015   0.4234     H
H       0.5812   0.6985   0.5766     H
C        0.584   0.3171    0.822     C
C        0.584   0.6829    0.178     C
C        0.592    0.369   0.4662     C
C        0.592    0.631   0.5338     C
H        0.595   0.0519   0.0869     H
H        0.595   0.9481   0.9131     H
H       0.5993   0.2714   0.8869     H
H       0.5993   0.7286   0.1131     H
C        0.602   0.1911   0.7351     C
C        0.602   0.8089   0.2649     C
N        0.603   0.0557   0.8788     N
N        0.603   0.9443   0.1212     N
C        0.607   0.0829   0.0675     C
C        0.607   0.9171   0.9325     C
C        0.618   0.3335   0.4273     C
C        0.618   0.6665   0.5727     C
H       0.6201   0.2534   0.6875     H
H       0.6201   0.7466   0.3125     H
H       0.6241    0.439    0.499     H
H       0.6241    0.561    0.501     H
O       0.6305   0.4021   0.7557     O
O       0.6305   0.5979   0.2443     O
C        0.637   0.1759   0.0138     C
C        0.637   0.8241   0.9862     C
N        0.638   0.1307   0.8265     N
N        0.638   0.8693   0.1735     N
C        0.644   0.4156   0.4719     C
C        0.644   0.5844   0.5281     C
H       0.6442    0.209   0.9973     H
H       0.6442    0.791   0.0027     H
H       0.6499   0.3337   0.8246     H
H       0.6499   0.6663   0.1754     H
Zn      0.6605  0.45558  0.70515    Zn
Zn      0.6605  0.54442  0.29485    Zn
O       0.6655   0.3702   0.6276     O
O       0.6655   0.6298   0.3724     O
H       0.6668   0.1948   0.7525     H
H       0.6668   0.8052   0.2475     H
C        0.667   0.0958   0.8646     C
C        0.667   0.9042   0.1354     C
C        0.689   0.1154   0.0814     C
C        0.689   0.8846   0.9186     C
C          0.7   0.3459   0.3939     C
C          0.7   0.6541   0.6061     C
C        0.703   0.1612   0.0538     C
C        0.703   0.8388   0.9462     C
H       0.7241    0.322    0.368     H
H       0.7241    0.678    0.632     H
C        0.725    0.429   0.4389     C
C        0.725    0.571   0.5611     C
H       0.7368   0.0395   0.9431     H
H       0.7368   0.9605   0.0569     H
H       0.7396   0.3167   0.5625     H
H       0.7396   0.6833   0.4375     H
O       0.7414   0.0619   0.1522     O
O       0.7414   0.9381   0.8478     O
C        0.742   0.4034   0.6237     C
C        0.742   0.5966   0.3763     C
C        0.746    0.394      0.4     C
C        0.746    0.606      0.6     C
C        0.754    0.106      0.9     C
C        0.754    0.894      0.1     C
C        0.758   0.0966   0.1237     C
C        0.758   0.9034   0.8763     C
O       0.7586   0.4381   0.6522     O
O       0.7586   0.5619   0.3478     O
H       0.7604   0.1833   0.0625     H
H       0.7604   0.8167   0.9375     H
H       0.7632   0.4605   0.4431     H
H       0.7632   0.5395   0.5569     H
C        0.775    0.071   0.9389     C
C        0.775    0.929   0.0611     C
H       0.7759    0.178    0.868     H
H       0.7759    0.822    0.132     H
C        0.797   0.3388   0.5538     C
C        0.797   0.6612   0.4462     C
C          0.8   0.1541   0.8939     C
C          0.8   0.8459   0.1061     C
C        0.811   0.3846   0.5814     C
C        0.811   0.6154   0.4186     C
C        0.833   0.4042   0.3646     C
C        0.833   0.5958   0.6354     C
H       0.8332   0.3052   0.2525     H
H       0.8332   0.6948   0.7475     H
O       0.8345   0.1298   0.1276     O
O       0.8345   0.8702   0.8724     O
Zn      0.8395  0.04442  0.20515    Zn
Zn      0.8395  0.95558  0.79485    Zn
H       0.8501   0.1663   0.3246     H
H       0.8501   0.8337   0.6754     H
H       0.8558    0.291   0.4973     H
H       0.8558    0.709   0.5027     H
C        0.856   0.0844   0.9719     C
C        0.856   0.9156   0.0281     C
N        0.862   0.3693   0.3265     N
N        0.862   0.6307   0.6735     N
C        0.863   0.3241   0.5138     C
C        0.863   0.6759   0.4862     C
O       0.8695   0.0979   0.2557     O
O       0.8695   0.9021   0.7443     O
H       0.8759    0.061    0.999     H
H       0.8759    0.939    0.001     H
H       0.8799   0.2466   0.1875     H
H       0.8799   0.7534   0.8125     H
C        0.882   0.1665   0.9273     C
C        0.882   0.8335   0.0727     C
C        0.893   0.4171   0.5675     C
C        0.893   0.5829   0.4325     C
N        0.897   0.4443   0.3788     N
N        0.897   0.5557   0.6212     N
C        0.898   0.3089   0.2351     C
C        0.898   0.6911   0.7649     C
H       0.9007   0.2286   0.3869     H
H       0.9007   0.7714   0.6131     H
H        0.905   0.4481   0.5869     H
H        0.905   0.5519   0.4131     H
C        0.908    0.131   0.9662     C
C        0.908    0.869   0.0338     C
C        0.916   0.1829    0.322     C
C        0.916   0.8171    0.678     C
H       0.9188   0.1985   0.9234     H
H       0.9188   0.8015   0.0766     H
C        0.925   0.2751   0.1958     C
C        0.925   0.7249   0.8042     C
C        0.941   0.3581    0.498     C
C        0.941   0.6419    0.502     C
C        0.943    0.222   0.3572     C
C        0.943   0.3836   0.2944     C
C        0.943   0.6164   0.7056     C
C        0.943    0.778   0.6428     C
C        0.945   0.1266   0.2466     C
C        0.945   0.8734   0.7534     C
O       0.9454    0.005   0.8124     O
O       0.9454    0.995   0.1876     O
C        0.956   0.4049   0.5253     C
C        0.956   0.5951   0.4747     C
C        0.966   0.3484   0.2499     C
C        0.966   0.6516   0.7501     C
C         0.98   0.4572    0.347     C
C         0.98   0.5428    0.653     C
C        0.984    0.168   0.2826     C
C        0.984    0.832   0.7174     C
H       0.9901    0.485   0.5716     H
H       0.9901    0.515   0.4284     H
O       0.9927   0.2064   0.1223     O
O       0.9927   0.7936   0.8777     O
N       0.9933   0.3061   0.4257     N
N       0.9933   0.6939   0.5743     N
O       0.9972   0.0425   0.1223     O
O       0.9972   0.9575   0.8777     O
C        0.998   0.0076   0.1517     C
C        0.998   0.9924   0.8483     C
