data_I
_chemical_name_common  '/home/zhangsd/repos/MofS-CGCNN/ML/data/TSD/clean_cifs/MIFKUJ_clean'
_cell_length_a 12.02390
_cell_length_b 13.48200
_cell_length_c 14.04140
_cell_angle_alpha 70.49100
_cell_angle_beta  77.14100
_cell_angle_gamma 89.31200
_space_group_name_H-M_alt      'P 1'


loop_
_space_group_symop_operation_xyz
  'x, y, z' 

loop_
_atom_site_label
_atom_site_fract_x
_atom_site_fract_y
_atom_site_fract_z
_atom_site_type_symbol
C       0.0016   0.9594   0.4203     C
C        0.006   0.0892   0.6599     C
C       0.0068   0.9328   0.1598     C
O       0.0081   0.8313   0.0124     O
C       0.0144   0.9755   0.2345     C
H       0.0226   0.9764   0.0888     H
C       0.0237   0.1735   0.8126     C
C       0.0296   0.2196   0.8953     C
H       0.0334   0.0489   0.2151     H
C        0.037   0.1936   0.6344     C
C       0.0455   0.2357   0.7104     C
H       0.0529    0.238   0.5636     H
C        0.056   0.9525   0.5776     C
C       0.0582   0.9129   0.4987     C
H       0.0663   0.7308   0.6477     H
H       0.0667   0.3087   0.6911     H
O       0.0721   0.3137   0.8638     O
Zn     0.07234  0.35811  0.98387    Zn
O       0.0828  0.59474  0.98651     O
H       0.0946   0.9187   0.6308     H
O       0.1186   0.2881   0.1197     O
C       0.1227   0.7346    0.587     C
C       0.1327   0.8205   0.4993     C
H        0.138   0.7863   0.8643     H
H       0.1416   0.2272   0.3179     H
C       0.1564   0.5779   0.9153     C
O       0.1726  0.48784   0.9087     O
H       0.1903   0.5876   0.6462     H
C       0.1954    0.651   0.5889     C
C       0.1962   0.2572   0.0935     C
C       0.2036   0.7712   0.8207     C
C       0.2134   0.2005   0.2983     C
C        0.218   0.8335   0.4096     C
H       0.2249   0.8968   0.3519     H
C        0.232   0.6676   0.8359     C
H       0.2431   0.1478   0.4445     H
O       0.2497   0.2575   0.0079     O
H       0.2522   0.9233   0.7277     H
C       0.2549   0.2099   0.1947     C
C       0.2729   0.8527   0.7403     C
C       0.2732   0.1533   0.3743     C
C       0.2832   0.6771   0.4858     C
C       0.2899   0.7585   0.4037     C
H       0.3049   0.9678   0.5268     H
C       0.3322   0.6482   0.7729     C
H       0.3442    0.765    0.341     H
H       0.3522   0.5777   0.7828     H
C       0.3528   0.1733   0.1715     C
C       0.3706   0.8326    0.679     C
C       0.3775   0.1147   0.3452     C
H       0.3822   0.1796   0.1009     H
C       0.3851   0.9804   0.5158     C
C       0.4013   0.7296   0.6975     C
C       0.4191   0.1252    0.242     C
C       0.4391   0.9201   0.5907     C
C        0.443   0.0598   0.4239     C
H       0.4706   0.7155   0.6577     H
H        0.491   0.1002   0.2197     H
H        0.509   0.8998   0.7803     H
H       0.5294   0.2845   0.3423     H
C        0.557   0.9402   0.5761     C
C       0.5609   0.0799   0.4093     C
C       0.5809   0.8748    0.758     C
C       0.5987   0.2704   0.3025     C
C       0.6149   0.0196   0.4842     C
H       0.6178   0.8204   0.8991     H
C       0.6225   0.8853   0.6548     C
C       0.6294   0.1674    0.321     C
C       0.6472   0.8267   0.8285     C
H       0.6478   0.4223   0.2172     H
H       0.6558    0.235    0.659     H
C       0.6678   0.3518   0.2271     C
H       0.6951   0.0322   0.4732     H
C       0.7101   0.2415   0.5963     C
C       0.7168   0.3229   0.5142     C
C       0.7268   0.8467   0.6257     C
C       0.7271   0.1473   0.2597     C
C       0.7451   0.7901   0.8053     C
H       0.7478   0.0767   0.2723     H
O       0.7503   0.7425   0.9921     O
H       0.7569   0.8522   0.5555     H
C        0.768   0.3324   0.1641     C
H       0.7751   0.1032   0.6481     H
C        0.782   0.1665   0.5904     C
C       0.7866   0.7995   0.7017     C
C       0.7964   0.2288   0.1793     C
C       0.8038   0.7428   0.9065     C
C       0.8046    0.349   0.4111     C
H       0.8097   0.4124   0.3538     H
O       0.8274  0.51216   0.0913     O
C       0.8436   0.4221   0.0847     C
H       0.8584   0.7728   0.6821     H
H        0.862   0.2137   0.1357     H
C       0.8673   0.1795   0.5007     C
C       0.8773   0.2654    0.413     C
O       0.8814   0.7119   0.8803     O
H       0.9054   0.0813   0.3692     H
O       0.9172  0.40526  0.01349     O
Zn     0.92766  0.64189  0.01613    Zn
O       0.9279   0.6863   0.1362     O
H       0.9333   0.6913   0.3089     H
H       0.9337   0.2692   0.3523     H
C       0.9418   0.0871   0.5013     C
C        0.944   0.0475   0.4224     C
H       0.9471    0.762   0.4364     H
C       0.9545   0.7643   0.2896     C
C        0.963   0.8064   0.3656     C
H       0.9666   0.9511   0.7849     H
C       0.9704   0.7804   0.1047     C
C       0.9763   0.8265   0.1874     C
H       0.9774   0.0236   0.9112     H
C       0.9856   0.0245   0.7655     C
O       0.9919   0.1687   0.9876     O
C       0.9932   0.0672   0.8402     C
C        0.994   0.9108   0.3401     C
C       0.9984   0.0406   0.5797     C
