data_I
_chemical_name_common  '/home/zhangsd/repos/MofS-CGCNN/ML/data/TSD/clean_cifs/MIFSAX_clean'
_cell_length_a 11.23670
_cell_length_b 32.96820
_cell_length_c 32.96820
_cell_angle_alpha 88.33570
_cell_angle_beta  80.18790
_cell_angle_gamma 80.18770
_space_group_name_H-M_alt      'P 1'


loop_
_space_group_symop_operation_xyz
  'x, y, z' 

loop_
_atom_site_label
_atom_site_fract_x
_atom_site_fract_y
_atom_site_fract_z
_atom_site_type_symbol
C       0.0004   0.1231   0.6599     C
H       0.0004   0.4939   0.0639     H
H       0.0015   0.3733   0.2903     H
C       0.0023    0.623   0.6816     C
C       0.0055   0.9597   0.9421     C
O       0.0061   0.0868   0.8422     O
N       0.0069    0.263    0.808     N
N       0.0091   0.6128    0.599     N
C       0.0092   0.1006   0.8082     C
O       0.0095   0.4493   0.5965     O
C       0.0104   0.0911   0.1777     C
C       0.0116   0.9751   0.5667     C
O      0.01176  0.07202  0.21086     O
O      0.01212   0.0033  0.86806     O
Pr      0.0122  0.17134  0.52862    Pr
C       0.0133   0.9333   0.9751     C
C        0.014   0.8121   0.0697     C
C       0.0153   0.7027   0.2135     C
N       0.0154   0.6904   0.5578     N
O      0.01542  0.36806   0.9967     O
H       0.0156   0.9254   0.3718     H
O      0.01784  0.66055  0.89997     O
H       0.0191   0.9407   0.5165     H
N         0.02   0.8534   0.3054     N
C        0.021   0.3404   0.8358     C
C       0.0218   0.6625   0.2001     C
C       0.0221   0.7738    0.091     C
H       0.0237   0.4407   0.0165     H
H       0.0278    0.366   0.8452     H
H       0.0279   0.7059   0.2403     H
C       0.0302    0.913    0.346     C
H       0.0304   0.6577   0.3673     H
C       0.0343   0.7361   0.6099     C
C       0.0348   0.5579   0.9597     C
C        0.035   0.2674    0.846     C
Pr     0.03591  0.47408  0.67314    Pr
C       0.0361   0.5787   0.3865     C
H       0.0402   0.9835   0.9407     H
H       0.0423   0.1345   0.6367     H
H       0.0445   0.5332   0.5582     H
H       0.0445   0.7126   0.4064     H
Co     0.04593  0.62893  0.53641    Co
C       0.0472   0.6535   0.3939     C
H       0.0473   0.2443   0.1281     H
C       0.0483   0.2294     0.87     C
C       0.0524   0.9421   0.5403     C
H       0.0528   0.6395   0.2145     H
C       0.0534   0.5249   0.9333     C
C       0.0545   0.0495   0.0891     C
C       0.0556    0.686   0.4168     C
C       0.0567   0.3034   0.8596     C
C       0.0568    0.154    0.913     C
H       0.0582   0.0061   0.4361     H
H       0.0586   0.8135   0.0435     H
H        0.059   0.1282   0.9254     H
O      0.05922  0.58277  0.34659     O
C       0.0593   0.0984   0.0208     C
H       0.0628   0.0033   0.6137     H
O       0.0636   0.4146    0.726     O
C        0.064   0.6139   0.4103     C
H       0.0643   0.9361   0.9939     H
H       0.0661   0.1137   0.9967     H
N       0.0681   0.5684   0.5098     N
C       0.0692   0.0179   0.1231     C
H       0.0709    0.187   0.0866     H
O       0.0753   0.0937   0.5573     O
O      0.07836  0.83945  0.60003     O
C       0.0788   0.7021   0.5847     C
C       0.0801   0.9792   0.5984     C
H       0.0803   0.7443   0.6281     H
C       0.0812   0.2428    0.393     C
C       0.0813   0.6788   0.4572     C
C       0.0816   0.5333   0.5307     C
C       0.0817     0.87   0.2706     C
O      0.08219  0.89997  0.83945     O
C       0.0837   0.8596   0.1966     C
C       0.0837   0.9303   0.3121     C
O      0.08378  0.71086  0.92798     O
H       0.0848   0.7011   0.4733     H
C       0.0871   0.6231   0.9821     C
O       0.0929   0.3422   0.9132     O
O       0.0936    0.089   0.7784     O
O       0.0938   0.7235   0.0399     O
C       0.0954   0.3696   0.3764     C
C       0.0959   0.2881   0.4445     C
C       0.0983   0.6084   0.4498     C
N       0.1003   0.6416   0.4728     N
C       0.1015   0.6777   0.9089     C
H       0.1021   0.9565   0.3135     H
C       0.1023   0.3641   0.3361     C
C        0.104   0.5891   0.9505     C
C       0.1087   0.6005   0.6163     C
C       0.1098   0.3082   0.8994     C
C       0.1104   0.6049   0.6583     C
C       0.1111   0.0834   0.0848     C
C       0.1131    0.909   0.2738     C
H       0.1132   0.2198   0.3764     H
C       0.1166   0.7388    0.071     C
N       0.1173   0.1068   0.0504     N
C        0.119    0.846   0.2326     C
C       0.1197   0.2361   0.1099     C
O      0.11982  0.86806   0.4967     O
H        0.121   0.5445   0.2097     H
C       0.1235   0.1599   0.8769     C
C       0.1264   0.1049   0.1583     C
C       0.1264   0.5686     0.47     C
N       0.1266   0.1946   0.8534     N
H        0.127   0.8452    0.134     H
H       0.1279   0.4565   0.8135     H
O        0.128   0.7784    0.411     O
O      0.13081  0.22521  0.50717     O
O       0.1337   0.9601   0.2235     O
C       0.1344   0.2021   0.0847     C
N       0.1347   0.3477   0.4765     N
H       0.1424   0.5374    0.139     H
C       0.1432   0.8358   0.1596     C
C       0.1436   0.9109   0.5495     C
C       0.1446    0.429   0.7388     C
C       0.1501   0.4962    0.513     C
C       0.1503   0.2549   0.4199     C
O       0.1517   0.8422   0.4132     O
H       0.1533   0.4717   0.5277     H
H       0.1555    0.687   0.5866     H
C       0.1557   0.3058   0.4756     C
H       0.1575   0.9134    0.687     H
C       0.1577   0.5208   0.9016     C
O      0.15789  0.52237  0.28265     O
H        0.165   0.3611   0.3883     H
H       0.1651   0.1267   0.2097     H
O      0.16628  0.01514   0.1379     O
N       0.1677   0.9496   0.6068     N
O        0.169   0.0573   0.9063     O
C       0.1739   0.4303   0.8121     C
C       0.1745   0.1005   0.1163     C
H       0.1753   0.3518     0.32     H
H       0.1754   0.8719   0.7443     H
H       0.1768   0.1367   0.8655     H
H       0.1798   0.4967   0.8863     H
C       0.1801   0.0905   0.5365     C
H       0.1801   0.3961   0.5005     H
O      0.18068  0.51514   0.6379     O
O      0.18142   0.6379  0.98486     O
O       0.1826   0.2784    0.911     O
C       0.1826   0.8082   0.3994     C
O       0.1827   0.4601   0.7235     O
Pr     0.18354  0.02862  0.82866    Pr
N       0.1851    0.808    0.237     N
C       0.1871   0.5267   0.1955     C
H       0.1872   0.4254   0.8718     H
C       0.1876    0.929   0.2388     C
C       0.1881   0.8223   0.5911     C
C       0.1923   0.8769   0.5179     C
C       0.1931    0.123   0.1816     C
C       0.1942   0.3674   0.5002     C
C       0.1945   0.5848   0.9166     C
C       0.1959   0.9152   0.5834     C
C       0.2011    0.534     0.45     C
C       0.2021   0.5236   0.1532     C
C       0.2041    0.409   0.7738     C
O      0.20536  0.57202  0.71086     O
H       0.2094   0.2802   0.1236     H
O       0.2104    0.726   0.0854     O
C       0.2108    0.413    0.846     C
C       0.2113   0.4978   0.4736     C
Pr     0.21216  0.32866  0.97138    Pr
H       0.2141   0.0267   0.7011     H
O      0.21558  0.42133  0.24991     O
O       0.2159  0.11967  0.51393     O
C        0.217   0.2572    0.107     C
C       0.2191   0.9153   0.7021     C
C       0.2207   0.5834   0.5848     C
C       0.2208   0.5911   0.6777     C
C       0.2219   0.7999   0.1625     C
O      0.22262  0.78914  0.57202     O
N       0.2241   0.5504   0.8932     N
N       0.2255   0.6068   0.5504     N
O       0.2263   0.4063   0.9427     O
C       0.2267   0.2834   0.5034     C
C       0.2272   0.2377   0.5111     C
C       0.2288   0.7865   0.2027     C
C       0.2296   0.8901   0.7361     C
C       0.2313   0.6583   0.8951     C
N       0.2364   0.1904   0.0578     N
C       0.2399   0.0428   0.6788     C
H       0.2408   0.2011   0.9733     H
H       0.2429   0.0936   0.7126     H
H       0.2579   0.5866    0.813     H
N       0.2581   0.0272   0.6416     N
C       0.2584   0.0832    0.686     C
H        0.261    0.866   0.3452     H
H       0.2613    0.474    0.462     H
C       0.2617   0.5111   0.2623     C
H       0.2647    0.038    0.474     H
C       0.2649     0.05    0.534     C
H       0.2662   0.2597   0.7059     H
H       0.2673   0.7855   0.1395     H
H       0.2682   0.7597   0.2059     H
N       0.2699    0.308    0.737     N
C       0.2699   0.5034   0.2166     C
O      0.27017  0.51393  0.38033     O
C       0.2706   0.0365   0.9095     C
C       0.2743   0.3468   0.5236     C
C        0.275   0.6163   0.8995     C
H       0.2767    0.462    0.026     H
C       0.2773   0.2307   0.4207     C
C       0.2777     0.37   0.7706     C
N       0.2791   0.1128    0.099     N
C       0.2803   0.8034   0.3596     C
H       0.2814    0.861   0.0374     H
C        0.282   0.2865   0.7027     C
C       0.2827   0.1788   0.9572     C
C       0.2834   0.3769   0.8401     C
C       0.2834   0.5365   0.4095     C
C       0.2847   0.8417   0.6049     C
N       0.2853   0.1416   0.9728     N
O      0.28612  0.19185  0.42231     O
C       0.2862   0.3045   0.5267     C
Co     0.28873  0.12893  0.03641    Co
C       0.2898   0.5179   0.6231     C
C       0.2908   0.8837   0.6005     C
C       0.2909   0.0264   0.4978     C
Pr     0.29094  0.67315  0.02592    Pr
O      0.29157  0.42231  0.30815     O
H       0.2916   0.6281   0.7557     H
H       0.2918   0.7097   0.8733     H
C       0.2933   0.0502   0.6084     C
N       0.2942   0.9422   0.6904     N
O       0.2958   0.9146    0.226     O
C       0.2993   0.1061   0.6535     C
C        0.302   0.4207   0.2693     C
C       0.3024    0.346   0.7326     C
C       0.3025   0.1359   0.1639     C
H       0.3027    0.974    0.962     H
C       0.3028   0.8404   0.3358     C
O      0.30418   0.8621  0.51514     O
C        0.305     0.03   0.5686     C
C       0.3056   0.5002   0.1326     C
C       0.3069   0.5495   0.5891     C
C       0.3071   0.4095   0.9635     C
H       0.3077   0.2855   0.6395     H
H       0.3119   0.1327   0.6577     H
H       0.3135   0.3655   0.8633     H
C       0.3149    0.034     0.95     C
C       0.3151   0.4736   0.0022     C
C       0.3157   0.2999   0.6625     C
C       0.3161   0.6816    0.877     C
Pr     0.31687  0.97408  0.17314    Pr
C       0.3173   0.9978   0.9736     C
H       0.3188   0.9626    0.361     H
H        0.319   0.5277   0.0283     H
H       0.3194   0.5005   0.1039     H
O      0.31974  0.21735  0.52237     O
H       0.3202    0.361   0.5374     H
H        0.321   0.6367   0.3655     H
N       0.3212   0.3534   0.8054     N
C       0.3215   0.5984   0.5208     C
O      0.32161  0.60003  0.66055     O
C       0.3221   0.0897   0.6139     C
H       0.3235   0.6137   0.4967     H
C        0.324    0.893   0.7572     C
C       0.3251   0.2451   0.0801     C
Co     0.32514  0.96359  0.62893    Co
N       0.3254   0.6946   0.3534     N
C       0.3285   0.2119   0.0555     C
H       0.3307   0.7903   0.0445     H
H        0.333   0.8764   0.7802     H
H       0.3345   0.2903   0.5445     H
C        0.335   0.0686     0.97     C
O      0.33557  0.01393  0.88033     O
H       0.3365   0.2126   0.9064     H
C       0.3365   0.5847   0.7979     C
C       0.3369    0.513   0.0038     C
C       0.3397   0.6599   0.3769     C
C       0.3407   0.9962    0.013     C
C       0.3414   0.1304   0.1236     C
C       0.3416    0.186   0.9168     C
C       0.3435   0.1084   0.9498     C
H       0.3471   0.1482     0.18     H
H       0.3473   0.9717   0.0277     H
C       0.3489     0.45    0.966     C
O       0.3495  0.38033  0.98607     O
C       0.3516   0.7674    0.346     C
C       0.3523   0.7294     0.37     C
N       0.3537   0.0684   0.0098     N
C       0.3537    0.987   0.4962     C
C       0.3544   0.0333   0.0307     C
C       0.3553   0.8468   0.0236     C
C       0.3558   0.6099   0.7639     C
O      0.35602  0.00717  0.77479     O
O       0.3572   0.7765   0.4601     O
O      0.35801  0.15341  0.58277     O
C       0.3601   0.3596   0.6966     C
C       0.3614   0.3358   0.6596     C
O      0.36202  0.50717  0.27479     O
O      0.36309  0.25009  0.42133     O
O      0.36319  0.27479  0.99283     O
N       0.3635   0.9902   0.5684     N
H       0.3641   0.0332   0.0582     H
O       0.3674   0.5573   0.4063     O
C       0.3687   0.4756   0.1942     C
C       0.3747   0.8184    0.623     C
H       0.3748   0.7903   0.6267     H
H        0.375   0.9723   0.4717     H
H       0.3752   0.9555   0.2903     H
C       0.3762    0.654    0.413     C
N       0.3781    0.901   0.6128     N
C       0.3789   0.9764   0.3468     C
C       0.3826   0.8045   0.0267     C
O      0.38348   0.4967  0.63194     O
C        0.384   0.9445   0.7119     C
C       0.3844   0.8375   0.2999     C
C       0.3851   0.9693   0.5333     C
C       0.3852   0.1135   0.5787     C
O      0.38682  0.07867  0.25009     O
C       0.3869   0.7262    0.409     C
H       0.3874   0.6282   0.4254     H
C       0.3877   0.5307   0.9667     C
N       0.3888   0.4765   0.1523     N
N       0.3919    0.599   0.8872     N
H       0.3938   0.3452    0.634     H
O        0.394   0.5965   0.0507     O
C       0.3958   0.6879   0.4303     C
H       0.3973   0.5582   0.9668     H
H       0.3977   0.6327   0.1577     H
O      0.40028  0.30815  0.07769     O
C       0.4036     0.47   0.9314     C
C       0.4052   0.9199   0.7451     C
C       0.4054   0.1535   0.8939     C
O      0.40581  0.65341  0.08277     O
H       0.4068   0.8605   0.2855     H
C       0.4073   0.5403   0.5579     C
C       0.4093   0.9733   0.3045     C
C       0.4118   0.1139   0.9103     C
H       0.4144   0.1389   0.1117     H
H       0.4156   0.6865   0.4565     H
Co     0.41766  0.53641  0.87107    Co
C        0.418   0.3994   0.6918     C
C       0.4217   0.5667   0.5249     C
N       0.4221   0.5098   0.9316     N
N       0.4221    0.763    0.308     N
H       0.4223   0.9418   0.5332     H
C       0.4226   0.6135   0.0787     C
H       0.4233   0.8961   0.0005     H
H       0.4238   0.9995   0.3961     H
C       0.4264   0.7612    0.429     C
N       0.4268   0.5578   0.8096     N
N       0.4269   0.4728   0.8584     N
C       0.4287   0.2693   0.0793     C
C       0.4298   0.4199   0.2451     C
C       0.4315   0.7973   0.2865     C
O       0.4351   0.4132   0.6578     O
C       0.4371   0.1942   0.0244     C
C       0.4382   0.8674   0.0002     C
C       0.4384   0.6639   0.8641     C
C       0.4384   0.9998   0.3674     C
O      0.44054  0.71735  0.02237     O
C       0.4411   0.6061   0.1535     C
H       0.4419   0.4733   0.7989     H
H       0.4446   0.1577   0.8673     H
O       0.4447   0.9493   0.0965     O
H       0.4467   0.3883   0.1389     H
H       0.4509   0.5936   0.2126     H
C       0.4519   0.4498   0.8916     C
O       0.4588   0.0965   0.5507     O
N       0.4589   0.1523   0.0235     N
Pr     0.45918  0.52862  0.32866    Pr
C       0.4596   0.4445   0.2119     C
O        0.461    0.411   0.7216     O
C       0.4615   0.4572   0.8212     C
C       0.4615   0.9756   0.6942     C
O      0.46291  0.97763  0.21735     O
H       0.4644   0.5165   0.5593     H
C       0.4649   0.0111   0.7623     C
C        0.465   0.8764   0.6304     C
O      0.46549  0.75009  0.92133     O
C       0.4664   0.8361   0.6359     C
C       0.4718   0.6236   0.8696     C
C       0.4724   0.5832    0.186     C
H       0.4729     0.18   0.3518     H
H       0.4739   0.1117   0.3611     H
H       0.4741   0.7941   0.2597     H
C       0.4742    0.607   0.7428     C
C       0.4743   0.5897   0.1139     C
C        0.476   0.2623   0.9889     C
O      0.47797  0.92231  0.80815     O
O       0.4782    0.226   0.5854     O
N       0.4824   0.9765   0.6523     N
C       0.4865   0.7834   0.0034     C
O      0.48858  0.91723  0.15341     O
H       0.4896   0.6236   0.7198     H
C       0.4899   0.9966   0.2834     C
Pr     0.49002  0.82685  0.47408    Pr
C        0.492   0.0793   0.2307     C
H       0.4943   0.5639   0.5061     H
H       0.4953     0.68   0.8518     H
C       0.4987   0.0787   0.8865     C
C       0.5013   0.9213   0.1135     C
H       0.5047     0.32   0.1482     H
H       0.5057   0.4361   0.4939     H
C        0.508   0.9207   0.7693     C
Pr     0.50998  0.17315  0.52592    Pr
C       0.5101   0.0034   0.7166     C
H       0.5104   0.3764   0.2802     H
O      0.51142  0.08277  0.84659     O
C       0.5135   0.2166   0.9966     C
N       0.5176   0.0235   0.3477     N
O       0.5218    0.774   0.4146     O
O      0.52203  0.07769  0.19185     O
C        0.524   0.7377   0.0111     C
C       0.5257   0.4103   0.8861     C
C       0.5258    0.393   0.2572     C
H       0.5259   0.2059   0.7403     H
H       0.5261   0.8883   0.6389     H
H       0.5271     0.82   0.6482     H
C       0.5276   0.4168    0.814     C
C       0.5282   0.3764   0.1304     C
C       0.5336   0.1639   0.3641     C
O      0.53451  0.24991  0.07867     O
C        0.535   0.1236   0.3696     C
C       0.5351   0.9889   0.2377     C
H       0.5356   0.4835   0.4407     H
O      0.53709  0.02237  0.78265     O
C       0.5385   0.0244   0.3058     C
C       0.5385   0.5428   0.1788     C
O        0.539    0.589   0.2784     O
C       0.5404   0.5555   0.7881     C
Pr     0.54082  0.47138  0.67134    Pr
N       0.5411   0.8477   0.9765     N
O       0.5412   0.9035   0.4493     O
C       0.5481   0.5502   0.1084     C
H       0.5491   0.4064   0.7874     H
H       0.5533   0.6117   0.8611     H
O       0.5553   0.0507   0.9035     O
H       0.5554   0.8423   0.1327     H
H       0.5581   0.5267   0.2011     H
C       0.5589   0.3939   0.8465     C
O      0.55946  0.28265  0.97763     O
C       0.5616   0.0002   0.6326     C
C       0.5616   0.3361   0.1359     C
C       0.5618   0.1326   0.9998     C
C       0.5629   0.8058   0.9756     C
O       0.5649   0.5868   0.3422     O
C       0.5685   0.2027   0.7135     C
C       0.5702   0.5801   0.7549     C
C       0.5713   0.7307   0.9207     C
N       0.5731   0.5272   0.1416     N
N       0.5732   0.4422   0.1904     N
C       0.5736   0.2388    0.571     C
H       0.5762   0.0005   0.6039     H
H       0.5767   0.1039   0.9995     H
C       0.5774   0.3865   0.9213     C
H       0.5777   0.0582   0.4668     H
N       0.5779    0.237    0.692     N
N       0.5779   0.4902   0.0684     N
C       0.5783   0.4333   0.4751     C
C        0.582   0.6006   0.3082     C
Co     0.58234  0.46359  0.12893    Co
H       0.5844   0.3135   0.5435     H
H       0.5856   0.8611   0.8883     H
C       0.5882   0.8861   0.0897     C
C       0.5907   0.0267   0.6955     C
C       0.5927   0.4597   0.4421     C
H       0.5932   0.1395   0.7145     H
O      0.59419  0.34659  0.91723     O
C       0.5946   0.8465   0.1061     C
C       0.5948   0.0801   0.2549     C
C       0.5964     0.53   0.0686     C
O      0.59972  0.69185  0.92231     O
H       0.6023   0.3673   0.8423     H
H       0.6027   0.4418   0.0332     H
C       0.6042   0.3121   0.5697     C
O        0.606   0.4035   0.9493     O
H       0.6062   0.6548    0.366     H
N       0.6081    0.401   0.1128     N
N       0.6112   0.5235   0.8477     N
C       0.6123   0.4693   0.0333     C
H       0.6126   0.3718   0.5746     H
C       0.6131   0.2738    0.591     C
O      0.61318  0.92133  0.74991     O
C       0.6148   0.8865   0.4213     C
C       0.6149   0.0307   0.4667     C
C       0.6156   0.1625   0.7001     C
C        0.616   0.0555   0.2881     C
O      0.61652   0.5033  0.36806     O
C       0.6174   0.1955   0.9733     C
C       0.6211   0.0236   0.6532     C
N       0.6219    0.099   0.3872     N
C       0.6238    0.346    0.587     C
H       0.6248   0.0445   0.7097     H
H        0.625   0.0277   0.5283     H
H       0.6252   0.2097   0.3733     H
C       0.6253   0.1816    0.377     C
C       0.6313   0.5244   0.8058     C
O       0.6326   0.4427   0.5937     O
H       0.6359   0.9668   0.9418     H
N       0.6365   0.0098   0.4316     N
O      0.63681  0.72521  0.00717     O
O      0.63691  0.74991  0.57867     O
O      0.63798  0.49283  0.72521     O
C       0.6386   0.6642   0.3404     C
C       0.6399   0.6404   0.3034     C
O      0.64199  0.84659  0.41723     O
O       0.6428   0.2235   0.5399     O
O      0.64398  0.99283  0.22521     O
C       0.6442   0.3901   0.2361     C
C       0.6447   0.1532   0.9764     C
C       0.6456   0.9667   0.9693     C
C       0.6463    0.013   0.5038     C
N       0.6463   0.9316   0.9902     N
C       0.6477   0.2706     0.63     C
C       0.6484   0.2326    0.654     C
O       0.6505  0.61967  0.01393     O
C       0.6511     0.55    0.034     C
H       0.6527   0.0283   0.9723     H
H       0.6529   0.8518     0.82     H
C       0.6565   0.8916   0.0502     C
C       0.6584    0.814   0.0832     C
C       0.6586   0.8696   0.8764     C
C       0.6593   0.0038    0.987     C
C       0.6603   0.3401   0.6231     C
C       0.6631    0.487   0.9962     C
C       0.6635   0.4153   0.2021     C
H       0.6635   0.7874   0.0936     H
O      0.66443  0.98607  0.11967     O
C        0.665   0.9314     0.03     C
H       0.6655   0.7097   0.4555     H
H        0.667   0.1236   0.2198     H
H       0.6693   0.2097   0.9555     H
C       0.6715   0.7881   0.9445     C
N       0.6746   0.3054   0.6466     N
Co     0.67486  0.03641  0.37107    Co
C       0.6749   0.7549   0.9199     C
C        0.676    0.107   0.2428     C
H       0.6765   0.3863   0.5033     H
C       0.6779   0.9103   0.3861     C
O      0.67839  0.39997  0.33945     O
C       0.6785   0.4016   0.4792     C
N       0.6788   0.6466   0.1946     N
H        0.679   0.3633   0.6345     H
H       0.6798    0.639   0.4626     H
O      0.68026  0.78265  0.47763     O
H       0.6806   0.4995   0.8961     H
H        0.681   0.4723   0.9717     H
H       0.6812   0.0374    0.639     H
C       0.6827   0.0022   0.0264     C
Pr     0.68313  0.02592  0.82686    Pr
C       0.6839   0.3184    0.123     C
C       0.6843   0.7001   0.3375     C
C       0.6849   0.5264   0.9978     C
C       0.6851    0.966     0.05     C
H       0.6865   0.6345   0.1367     H
H       0.6881   0.8673   0.3423     H
H       0.6923   0.7145   0.3605     H
C       0.6929   0.5905   0.0365     C
C       0.6931   0.4505   0.4109     C
C       0.6944   0.4998   0.8674     C
C        0.695     0.97   0.4314     C
O      0.69582   0.1379  0.48486     O
C       0.6972   0.1596   0.6642     C
H       0.6973    0.026    0.038     H
C       0.6975   0.8641   0.8361     C
C       0.6976    0.654   0.2674     C
C        0.698   0.5793   0.7307     C
C       0.7007   0.8939   0.3465     C
O       0.7042   0.0854    0.774     O
N       0.7058   0.0578   0.3096     N
C       0.7067   0.9498   0.3916     C
H       0.7082   0.2903   0.1267     H
H       0.7084   0.3719   0.2443     H
O      0.70843  0.57769  0.69185     O
Pr     0.70906  0.32685  0.97408    Pr
C       0.7091   0.9736   0.5022     C
C       0.7092   0.1163   0.3995     C
C       0.7102   0.4821   0.3769     C
Co     0.71127  0.87107  0.96359    Co
C       0.7138   0.6955   0.4733     C
O      0.71388  0.80815  0.57769     O
N       0.7147   0.8584   0.0272     N
C       0.7153   0.1583   0.3951     C
C       0.7166   0.4635   0.5905     C
C       0.7166   0.6231   0.1599     C
C       0.7173   0.8212   0.0428     C
C        0.718   0.7135   0.2973     C
H       0.7186    0.139   0.9626     H
C       0.7197   0.1966   0.6404     C
N       0.7209   0.8872    0.901     N
C       0.7223     0.63   0.2294     C
C       0.7227   0.7693   0.5793     C
H       0.7233    0.538    0.974     H
C        0.725   0.3837   0.1005     C
C       0.7257   0.6532   0.4764     C
C       0.7294   0.9635   0.0905     C
O      0.72983  0.48607  0.61967     O
C       0.7301   0.4966   0.7834     C
N       0.7301    0.692    0.263     N
H       0.7318   0.2403   0.7941     H
H       0.7327   0.2145   0.8605     H
H       0.7338   0.7403   0.2941     H
C       0.7351     0.95    0.466     C
H       0.7353    0.962    0.526     H
C       0.7383   0.4889   0.7377     C
H       0.7387    0.526    0.538     H
H        0.739    0.134   0.6548     H
C       0.7416   0.9168    0.314     C
N       0.7419   0.9728   0.3584     N
H       0.7421   0.4134    0.187     H
H       0.7571   0.9064   0.2874     H
H       0.7592   0.7989   0.0267     H
C       0.7601   0.9572   0.3212     C
N       0.7636   0.8096   0.9422     N
C       0.7687   0.3417   0.1049     C
C       0.7704   0.1099   0.2639     C
C       0.7712   0.2135   0.7973     C
C       0.7728   0.7623   0.4889     C
C       0.7733   0.7166   0.4966     C
O       0.7737   0.5937   0.0573     O
N       0.7745   0.3932   0.4496     N
N       0.7759   0.4496   0.1068     N
O      0.77738  0.21086  0.42798     O
C       0.7781   0.2001   0.8375     C
C       0.7792   0.4089   0.3223     C
C       0.7793   0.4166   0.4152     C
C       0.7809   0.0847   0.2979     C
C        0.783   0.7428    0.893     C
O       0.7841  0.88033  0.48607     O
O      0.78442  0.57867  0.75009     O
H       0.7859   0.9733   0.2989     H
Pr     0.78784  0.67134  0.02862    Pr
C       0.7887   0.5022   0.5264     C
C       0.7892    0.587    0.154     C
O       0.7896    0.274   0.9146     O
H       0.7906   0.7198   0.8764     H
O      0.79464  0.42798  0.28914     O
C       0.7959    0.591   0.2262     C
C       0.7979   0.4764   0.8468     C
C       0.7989    0.466     0.55     C
C       0.8041   0.0848   0.4166     C
C       0.8055   0.4152   0.0834     C
C       0.8058   0.6326   0.4998     C
C       0.8069    0.877   0.8184     C
C       0.8077   0.1231   0.4821     C
C       0.8119   0.1777   0.4089     C
C       0.8124    0.071   0.7612     C
H       0.8128   0.5746   0.1282     H
C       0.8129   0.4733   0.8045     C
N       0.8149    0.192    0.763     N
Pr     0.81646  0.97138  0.17134    Pr
O       0.8173   0.5399   0.2765     O
C       0.8174   0.1918   0.6006     C
O       0.8174   0.7216    0.089     O
O      0.81858   0.3621  0.01514     O
O      0.81932  0.48486   0.3621     O
H       0.8199   0.6039   0.4995     H
C       0.8199   0.9095   0.4635     C
H       0.8202   0.5033   0.1137     H
H       0.8232   0.8633   0.1345     H
H       0.8246   0.1281   0.2557     H
H       0.8247   0.6482     0.68     H
C       0.8255   0.8995   0.8837     C
C       0.8261   0.5697   0.1879     C
O        0.831   0.9427   0.0937     O
N       0.8323   0.0504   0.3932     N
O      0.83372  0.98486   0.8621     O
H       0.8349   0.8733   0.7903     H
H        0.835   0.6389   0.6117     H
O      0.84211  0.47763  0.71735     O
C       0.8423   0.4792   0.0984     C
H       0.8425   0.0866    0.313     H
C       0.8443   0.6942   0.5244     C
H       0.8445    0.313   0.4134     H
H       0.8467   0.5283   0.4723     H
O       0.8483   0.1578   0.5868     O
C       0.8497   0.7451   0.5801     C
C       0.8499   0.5038    0.487     C
C       0.8554    0.571   0.2612     C
C       0.8564   0.0891   0.4505     C
C       0.8568   0.1642   0.8404     C
H       0.8576   0.4626    0.861     H
N       0.8653   0.6523   0.5235     N
C       0.8656   0.7979   0.9153     C
O       0.8663   0.0399   0.7765     O
O      0.86919  0.77479  0.49283     O
O        0.872   0.2216    0.589     O
H       0.8721   0.5435   0.1865     H
H        0.873   0.1548    0.866     H
N       0.8734   0.8054   0.1466     N
C       0.8736   0.4314     0.53     C
C       0.8736   0.8951   0.8417     C
C       0.8765   0.8401   0.1231     C
H        0.879   0.4555   0.7903     H
O      0.88018  0.13194   0.5033     O
C       0.8803   0.7639   0.8901     C
C        0.881    0.154   0.7674     C
N       0.8827   0.8932   0.9496     N
C       0.8834   0.2612    0.929     C
H       0.8868   0.7802   0.6236     H
C       0.8869    0.091   0.7262     C
C       0.8889   0.9166   0.9152     C
C       0.8896   0.3951   0.3417     C
C       0.8902   0.6918   0.1006     C
C       0.8913   0.3995   0.3837     C
C        0.896   0.4109   0.0495     C
C       0.8977   0.6359   0.6639     C
H       0.8979   0.0435   0.6865     H
C       0.8985   0.3223   0.0911     C
N       0.8997   0.3584   0.5272     N
C       0.9017   0.3916   0.5502     C
C       0.9041   0.7119   0.5555     C
C       0.9046   0.6304   0.6236     C
O       0.9062   0.2765   0.9601     O
O       0.9064    0.911   0.2216     O
O       0.9071   0.6578   0.0868     O
C       0.9129   0.3769   0.0179     C
H       0.9152   0.2989   0.5267     H
O      0.91622  0.28914  0.07202     O
C       0.9163   0.0697   0.6879     C
C       0.9163   0.1404   0.8034     C
O      0.91781  0.10003  0.16055     O
C       0.9183     0.13   0.7294     C
C       0.9184   0.4667   0.4693     C
C       0.9187   0.3212   0.5428     C
C       0.9188   0.7572    0.607     C
H       0.9197   0.2557   0.3719     H
C       0.9199   0.0208   0.4016     C
C       0.9212   0.2979   0.4153     C
O      0.92164  0.16055  0.39997     O
O       0.9247   0.9063   0.4427     O
H       0.9291    0.813   0.9134     H
C       0.9308   0.9821   0.8769     C
N       0.9319   0.4316   0.4902     N
H       0.9339   0.8863   0.0033     H
H       0.9357   0.0639   0.0061     H
C        0.936   0.3861   0.5897     C
O       0.9364   0.5854    0.274     O
H       0.9372   0.9967   0.3863     H
C       0.9407   0.9016   0.9792     C
O      0.94078  0.41723  0.65341     O
H        0.941   0.8718   0.0746     H
H       0.9414   0.1865   0.9565     H
H       0.9418   0.9939   0.5639     H
C       0.9432    0.846    0.087     C
C       0.9433   0.6966   0.1404     C
C       0.9444    0.314   0.5832     C
C       0.9455   0.9505   0.9109     C
C       0.9466   0.4751   0.0667     C
H       0.9472   0.3605   0.7855     H
C       0.9476   0.0579   0.4597     C
C       0.9517   0.7706     0.13     C
H       0.9527   0.7557   0.8719     H
C       0.9528   0.3465   0.6061     C
Co     0.95407  0.37107  0.46359    Co
H       0.9555   0.2874   0.5936     H
H       0.9555   0.4668   0.4418     H
H       0.9577   0.8655   0.3633     H
H       0.9598   0.0165   0.0593     H
C       0.9639   0.4213   0.6135     C
Pr     0.96409  0.52592  0.32686    Pr
C        0.965   0.7326    0.154     C
C       0.9652   0.4421   0.0403     C
C       0.9657   0.2639   0.3901     C
H       0.9696   0.3423   0.6327     H
C       0.9698    0.087    0.654     C
H       0.9721   0.2941   0.7597     H
H       0.9722    0.634   0.1548     H
H       0.9763   0.5593   0.9835     H
C       0.9779   0.2262    0.909     C
C       0.9782   0.3375   0.7999     C
C        0.979   0.6596   0.1642     C
N         0.98   0.1466   0.6946     N
H       0.9809   0.0593   0.4835     H
O      0.98216  0.33945  0.10003     O
H       0.9844   0.0746   0.6282     H
O      0.98458  0.63194   0.0033     O
N       0.9846   0.3096   0.4422     N
C       0.9847   0.2973   0.7865     C
C        0.986   0.1879   0.9303     C
C       0.9867   0.0667   0.0249     C
Pr      0.9878  0.82866  0.47138    Pr
O      0.98788   0.9967  0.13194     O
O      0.98824  0.92798  0.78914     O
C       0.9884   0.0249   0.4333     C
C       0.9896   0.9089   0.8223     C
O       0.9905   0.5507   0.4035     O
C       0.9908   0.8994   0.1918     C
N       0.9909   0.3872    0.401     N
N       0.9931    0.737    0.192     N
O       0.9939   0.9132   0.1578     O
C       0.9945   0.0403   0.0579     C
C       0.9977    0.377   0.3184     C
H       0.9985   0.6267   0.7097     H
H       0.9996   0.5061   0.9361     H
C       0.9996   0.8769   0.3401     C
