data_I
_chemical_name_common  '/home/zhangsd/repos/MofS-CGCNN/ML/data/TSD/clean_cifs/MIFTEC_clean'
_cell_length_a 11.18340
_cell_length_b 32.98290
_cell_length_c 32.98290
_cell_angle_alpha 88.35300
_cell_angle_beta  80.23930
_cell_angle_gamma 80.23930
_space_group_name_H-M_alt      'P 1'


loop_
_space_group_symop_operation_xyz
  'x, y, z' 

loop_
_atom_site_label
_atom_site_fract_x
_atom_site_fract_y
_atom_site_fract_z
_atom_site_type_symbol
H       0.0002   0.4937   0.0631     H
C       0.0007   0.8778   0.3414     C
N      0.00081   0.2615  0.81148     N
C      0.00167  0.37653  0.31853     C
H       0.0048   0.3729   0.2905     H
N      0.00657  0.61367  0.59879     N
O      0.00871  0.00371  0.86707     O
O      0.00943  0.08508  0.84126     O
H       0.0097    0.937   0.5194     H
C      0.01013  0.97402  0.56712     C
C      0.01121  0.95837  0.93981     C
Sm     0.01128  0.17079  0.52799    Sm
C      0.01196  0.09109  0.17819     C
O      0.01242  0.36707  0.99629     O
O      0.01288  0.44936  0.59508     O
C      0.01395  0.10013  0.80717     C
H       0.0157   0.9273   0.3717     H
C      0.01585  0.93288  0.97402     C
O      0.01645  0.07143  0.21087     O
N      0.01783  0.69052  0.55722     N
C       0.0194    0.665   0.1988     C
C      0.01985  0.81195  0.06775     C
O         0.02  0.66088  0.90012     O
N       0.0223  0.85555  0.30605     N
C        0.023   0.7048   0.2108     C
H       0.0237   0.6569   0.3683     H
C       0.0268   0.3372   0.8376     C
C       0.0279  0.77392  0.08888     C
C      0.03042  0.56019  0.95837     C
C       0.0316  0.91445  0.34615     C
C      0.03297  0.26633  0.84813     C
Sm     0.03346  0.47477  0.67363    Sm
H       0.0339    0.437   0.0194     H
C      0.03392  0.57844  0.38652     C
C      0.03586  0.73538   0.6099     C
H       0.0394   0.3625   0.8461     H
H       0.0399   0.1337   0.6353     H
H       0.0414    0.712   0.4062     H
H       0.0437   0.7081   0.2365     H
C      0.04387  0.22813  0.87313     C
C      0.04394  0.65271  0.39441     C
H       0.0446   0.5327   0.5573     H
H       0.0458   0.6417   0.2137     H
H       0.0463    0.243   0.1284     H
Co     0.04646  0.62906   0.5361    Co
C      0.04898  0.93981  0.54163     C
C      0.05127  0.52598  0.93288     C
C        0.052  0.09819  0.02241     C
H       0.0527   0.0013   0.6143     H
C      0.05317  0.68555  0.41691     C
H       0.0533   0.9806    0.937     H
C      0.05395  0.15385  0.91445     C
H        0.054   0.1143   0.9987     H
C      0.05506  0.30226  0.86162     C
C      0.05592  0.04915  0.09001     C
H        0.057   0.0063   0.4369     H
H        0.057   0.1283   0.9273     H
O      0.05738  0.58077  0.34747     O
O       0.0618  0.41611  0.72569     O
H       0.0633   0.9369   0.9937     H
C      0.06423  0.61325  0.40969     C
H       0.0651   0.8136   0.0416     H
H       0.0685   0.1878   0.0864     H
N       0.0714  0.56806  0.50894     N
O       0.0723  0.09351  0.55589     O
C      0.07363  0.01792  0.12322     C
C      0.07441  0.97759  0.59819     C
C      0.07884  0.24309  0.39243     C
C      0.07986  0.70267  0.58461     C
O      0.07988  0.90012  0.83912     O
C      0.08018  0.67884   0.4562     C
O        0.081  0.83912  0.59988     O
H       0.0823    0.743   0.6284     H
C        0.083  0.87313  0.27187     C
C      0.08332  0.86162  0.19774     C
C      0.08352  0.53288  0.53008     C
H        0.084   0.7013   0.4721     H
C       0.0876  0.93225  0.31195     C
O      0.08788  0.71087  0.92857     O
C      0.09155  0.62322  0.98208     C
O      0.09451  0.34126  0.91492     O
C       0.0946  0.28793  0.44547     C
O      0.09539  0.08696  0.77786     O
O      0.09708  0.72296  0.03768     O
C      0.09736  0.36916  0.37712     C
C      0.09824  0.60829  0.44883     C
N      0.10089  0.64135  0.47207     N
C      0.10305  0.67819  0.90891     C
C      0.10507  0.59001  0.95085     C
C      0.10525   0.3637    0.336     C
C      0.10624  0.60529  0.65783     C
C      0.10669  0.60011  0.61611     C
H       0.1067   0.9584   0.3136     H
H       0.1115   0.2208    0.375     H
C      0.11275  0.08385  0.08525     C
C      0.11408  0.30717  0.89987     C
H       0.1145   0.8461   0.1375     H
N      0.11537  0.10678  0.05088     N
C      0.11678  0.91112  0.27392     C
C      0.11784  0.73852   0.0696     C
C      0.11886  0.23538   0.1099     C
C       0.1189  0.84813  0.23367     C
H       0.1202   0.5444   0.2106     H
H       0.1213   0.4584   0.8136     H
C       0.1215   0.1586   0.8778     C
N      0.12215  0.19395  0.85555     N
O      0.12422  0.86707  0.49629     O
C      0.12629  0.56824  0.46918     C
O      0.12675  0.77786  0.41304     O
O      0.12785  0.22419  0.50771     O
C      0.13064  0.10529  0.15783     C
C      0.13286  0.20267  0.08461     C
O      0.13476  0.96232  0.22296     O
C       0.1356   0.8376   0.1628     C
N      0.13611   0.3467  0.47668     N
H       0.1433   0.5387   0.1403     H
C      0.14364   0.4304  0.73852     C
C      0.14593  0.90999  0.54915     C
C      0.14678  0.25422  0.42062     C
O      0.14931  0.84126  0.41492     O
C      0.15019  0.52241  0.90181     C
C      0.15117   0.4972  0.51306     C
H       0.1547   0.4729   0.5281     H
H       0.1549   0.9136   0.6878     H
C      0.15588  0.30513  0.47651     C
H       0.1573   0.6878   0.5864     H
O      0.15997  0.52255  0.28351     O
O      0.16581  0.05589  0.90649     O
N      0.16625  0.94912  0.60678     N
H       0.1671   0.3606    0.389     H
H       0.1682   0.1271   0.2095     H
C       0.1682  0.43225  0.81195     C
H       0.1683   0.4987   0.8857     H
O      0.17186  0.01462  0.13726     O
H       0.1736   0.1353   0.8663     H
H       0.1747   0.8716    0.743     H
O      0.17626  0.51462  0.63726     O
C      0.17686  0.09023  0.53525     C
C      0.17709  0.10011  0.11611     C
H       0.1788   0.3516     0.32     H
C      0.17888  0.80717  0.39987     C
O      0.17996  0.46232  0.72296     O
H       0.1809   0.3945   0.5009     H
Sm     0.18207    0.028   0.8292    Sm
O      0.18235  0.27786  0.91304     O
H       0.1853   0.4273   0.8717     H
O      0.18648  0.63726  0.98538     O
C      0.18719  0.52688  0.19634     C
C      0.18744   0.9304  0.23852     C
N      0.18771  0.81148   0.2385     N
C      0.19015  0.82181  0.59109     C
C      0.19463  0.36595  0.50059     C
C       0.1966  0.58525  0.91615     C
C      0.19673  0.12347  0.18147     C
C      0.19685  0.87678  0.51792     C
C        0.198  0.91475  0.58385     C
C      0.19818  0.41112  0.77392     C
O      0.20125  0.57143  0.71087     O
C      0.20225  0.52435  0.15455     C
C      0.20453  0.53396  0.45098     C
H       0.2073   0.2792    0.125     H
C       0.2078  0.41445  0.84615     C
Sm     0.21006  0.32921  0.97201    Sm
O       0.2114  0.11955  0.51385     O
O      0.21251  0.72569  0.08389     O
C      0.21343  0.49775  0.47379     C
C      0.21436  0.25691  0.10757     C
H       0.2147   0.0279   0.7013     H
C      0.21747  0.91539  0.70267     C
C      0.21815  0.58385  0.58525     C
C       0.2182   0.8012    0.165     C
O      0.21852   0.4217  0.25046     O
C      0.21876  0.59109  0.67819     C
O       0.2217  0.40649  0.94411     O
N      0.22215  0.55088  0.89322     N
C       0.2249  0.23688  0.51152     C
C      0.22533  0.28228  0.50346     C
N      0.22697  0.60678  0.55088     N
O      0.22732  0.78913  0.57143     O
C      0.22876   0.8901  0.73538     C
C       0.2338   0.7892   0.2048     C
N      0.23443  0.19052  0.05722     N
C      0.23593  0.65783  0.89471     C
C      0.24098   0.0438  0.67884     C
H       0.2426   0.2013   0.9721     H
H       0.2466   0.0938    0.712     H
H       0.2482   0.2635   0.7081     H
H        0.252   0.8625   0.3461     H
H       0.2563   0.5864   0.8122     H
N      0.25776  0.02793  0.64135     N
H       0.2595   0.7863   0.1417     H
C      0.26128  0.08309  0.68555     C
C      0.26151  0.04902  0.53396     C
H       0.2621   0.4738   0.4622     H
N      0.26231  0.31148   0.7385     N
C      0.26358  0.51152  0.26312     C
H       0.2641   0.0378   0.4738     H
C      0.26709  0.03525  0.90977     C
C      0.27121  0.50346  0.21772     C
C        0.272  0.37313  0.77187     C
C       0.2722   0.2892   0.7048     C
C       0.2734  0.34545  0.52435     C
C      0.27457  0.22947  0.42159     C
O      0.27475  0.51385  0.38045     O
H       0.2757   0.4622   0.0262     H
C       0.2772  0.61611  0.89989     C
C       0.2801   0.3778   0.8414     C
H       0.2802   0.7635   0.2081     H
N      0.28097  0.11367  0.09879     N
C      0.28106  0.80226  0.36162     C
O      0.28224   0.1915  0.42302     O
H       0.2836   0.8597   0.0387     H
C      0.28478  0.17884   0.9562     C
C      0.28523  0.51792  0.62322     C
N      0.28569  0.14135  0.97207     N
C      0.28593  0.30366  0.52688     C
C      0.28789  0.53525  0.40977     C
Co     0.28838  0.12906   0.0361    Co
C      0.28847  0.84217  0.60529     C
C      0.28882  0.02621  0.49775     C
H       0.2893   0.6284    0.757     H
N      0.29165  0.94278  0.69052     N
Sm     0.29291  0.67363  0.02523    Sm
C       0.2932  0.88389  0.60011     C
C      0.29347  0.05117  0.60829     C
O      0.29474  0.42302   0.3085     O
H       0.2953   0.7095   0.8729     H
O       0.2964  0.91611  0.22569     O
C       0.2984   0.8372   0.3376     C
C       0.2993  0.34813  0.73367     C
H       0.3019   0.9738   0.9622     H
C      0.30234  0.40977  0.96475     C
C      0.30335  0.10559  0.65271     C
C      0.30384  0.42159  0.27053     C
C      0.30478  0.50059  0.13405     C
C      0.30492  0.54915  0.59001     C
C      0.30495   0.1363    0.164     C
C      0.30547  0.03082  0.56824     C
H       0.3089   0.3663   0.8647     H
O      0.30912  0.86274  0.51462     O
C      0.31053  0.03396  0.95098     C
H       0.3125   0.2863   0.6417     H
C      0.31278  0.47379  0.00225     C
C      0.31503  0.99775  0.97379     C
C       0.3156   0.3012    0.665     C
N       0.3161  0.35555  0.80605     N
H       0.3172   0.5281   0.0271     H
O      0.31748  0.21649  0.52255     O
H        0.318   0.3597   0.5387     H
Sm     0.31814  0.97477  0.17363    Sm
H       0.3182   0.5009   0.1055     H
O      0.31912  0.59988  0.66088     O
H       0.3194   0.1317   0.6569     H
C       0.3202  0.68147  0.87653     C
C      0.32162  0.24578  0.07938     C
C      0.32193  0.89243  0.75691     C
H       0.3223   0.9613   0.3597     H
C      0.32252  0.09031  0.61325     C
Co     0.32448  0.96391  0.62905    Co
H       0.3248   0.6353   0.3663     H
C       0.3274  0.59819  0.52241     C
C        0.328  0.21207  0.05453     C
N      0.32835  0.69395  0.35555     N
H       0.3308   0.7894   0.0444     H
O      0.33095  0.01385  0.88045     O
H       0.3323    0.875   0.7792     H
H        0.333   0.6143   0.4987     H
H       0.3354   0.2894   0.5444     H
C      0.33553  0.58461  0.79733     C
C      0.33577  0.51306   0.0028     C
C      0.33629  0.06824  0.96918     C
C      0.33857   0.9972  0.01306     C
H       0.3404    0.212   0.9062     H
C       0.3421   0.6586   0.3778     C
C      0.34364  0.13084  0.12288     C
H       0.3443   0.9729   0.0281     H
C      0.34437  0.18555  0.91691     C
C      0.34449  0.45098  0.96604     C
C      0.34464  0.10829  0.94883     C
O       0.3448  0.38045  0.98615     O
H       0.3504   0.1484     0.18     H
N       0.3516  0.06806  0.00894     N
C      0.35163  0.98694   0.4972     C
O      0.35204  0.00771  0.77581     O
C      0.35257  0.76633  0.34813     C
C      0.35352  0.03288  0.03008     C
C      0.35424   0.6099  0.76462     C
C      0.35487  0.72813  0.37313     C
C       0.3568  0.84545  0.02435     C
C      0.35732  0.36162  0.69774     C
O      0.35772  0.77704  0.46232     O
O      0.35975  0.27581  0.99229     O
O      0.35978  0.24954   0.4217     O
N      0.36054  0.99106  0.56806     N
O      0.36185  0.15253  0.58077     O
C        0.364   0.3376   0.6628     C
O      0.36444  0.50771  0.27581     O
H       0.3654   0.0327   0.0573     H
C      0.36761  0.47651  0.19487     C
O      0.37181  0.55589  0.40649     O
H       0.3724   0.9719   0.4729     H
H       0.3752   0.9556   0.2894     H
H       0.3777   0.7905   0.6271     H
C      0.37775  0.65385  0.41445     C
C       0.3782  0.81853  0.62347     C
O      0.37949  0.49629  0.63293     O
N      0.37976  0.90121  0.61367     N
C      0.38115  0.97565  0.34545     C
C      0.38253  0.94547  0.71207     C
C       0.3832    0.835   0.3012     C
C      0.38353  0.80366  0.02688     C
C       0.3836  0.96992  0.53288     C
C       0.3864  0.53008  0.96712     C
N      0.38721  0.47668   0.1533     N
H       0.3874   0.6283   0.4273     H
C      0.38764  0.11348  0.57844     C
O      0.39068   0.0783  0.24954     O
C       0.3907  0.72608  0.41112     C
H        0.392   0.6317   0.1569     H
O      0.39204  0.59508  0.05064     O
N      0.39464  0.59879  0.88633     N
O      0.39676   0.3085  0.07698     O
H       0.3981   0.5573   0.9673     H
C      0.39955  0.68805  0.43225     C
C        0.401  0.92062  0.74578     C
H       0.4012   0.8583   0.2863     H
H       0.4019   0.3461   0.6375     H
C      0.40453  0.46918  0.93176     C
O      0.40485  0.65253  0.08077     O
C      0.40894  0.15271  0.89441     C
C      0.40939  0.54163  0.56019     C
C      0.41041  0.97312  0.30366     C
C      0.41283  0.11325  0.90969     C
H       0.4167   0.1394    0.111     H
Co     0.41744  0.53609  0.87095    Co
N      0.41966  0.50894  0.93194     N
H       0.4203   0.6864   0.4584     H
C      0.42044  0.61348  0.07844     C
C      0.42125  0.39987  0.69283     C
H       0.4227   0.9427   0.5327     H
C      0.42275  0.56712  0.52598     C
H       0.4237   0.8945   0.0009     H
H       0.4246   0.9991   0.3945     H
N      0.42495  0.55722  0.80948     N
C      0.42563  0.27053  0.07841     C
C      0.42596  0.76148   0.4304     C
N      0.42621   0.7615  0.31148     N
N      0.42704  0.47207  0.85865     N
C       0.4326  0.42062  0.24578     C
O      0.43577  0.41492  0.65874     O
C      0.43752  0.19487  0.02349     C
C      0.43835  0.60559  0.15271     C
C       0.4386   0.7952   0.2892     C
C      0.43883  0.86595  0.00059     C
C      0.43942  0.99941  0.36595     C
C      0.44125    0.664   0.8637     C
O      0.44268  0.94936  0.09508     O
O      0.44348  0.71649  0.02255     O
H       0.4439    0.389   0.1394     H
H       0.4439   0.4721   0.7987     H
H       0.4476   0.5938    0.212     H
H       0.4511   0.1569   0.8683     H
C      0.45293  0.44883  0.89171     C
N      0.45949   0.1533  0.02332     N
C      0.45993  0.44547  0.21207     C
O      0.46021  0.41304  0.72214     O
Sm     0.46073    0.528   0.3292    Sm
C      0.46101  0.97651  0.69487     C
C      0.46178  0.01152  0.76312     C
O      0.46224  0.09508  0.55064     O
C      0.46362   0.4562  0.82116     C
O      0.46603  0.97745  0.21649     O
C      0.46652  0.87712  0.63084     C
C      0.46895    0.836   0.6363     C
O      0.46898  0.74954   0.9217     O
H       0.4696     0.18   0.3516     H
C      0.47008  0.58309  0.18555     C
H       0.4709   0.5194    0.563     H
C      0.47127  0.60757  0.74309     C
H       0.4723    0.111   0.3606     H
C       0.4733  0.26312  0.98848     C
O      0.47374  0.92302   0.8085     O
C      0.47392  0.59031  0.11325     C
C      0.47448  0.62288  0.86916     C
O      0.47791  0.22569  0.58389     O
N      0.48281  0.97668   0.6533     N
O      0.48562  0.91923  0.15253     O
H       0.4865    0.625   0.7208     H
H       0.4883   0.7919   0.2635     H
C      0.48893  0.78228  0.00346     C
Sm     0.49177  0.82637  0.47477    Sm
C      0.49239  0.99654  0.28228     C
H       0.4939   0.5631   0.5063     H
C      0.49596  0.07841  0.22947     C
H       0.4988     0.68   0.8516     H
C      0.49888  0.92156  0.11348     C
C      0.50112  0.07844  0.88652     C
H       0.5012     0.32   0.1484     H
C      0.50404  0.92159  0.77053     C
H       0.5061   0.4369   0.4937     H
C      0.50761  0.00346  0.71772     C
Sm     0.50823  0.17363  0.52523    Sm
C      0.51107  0.21772  0.99654     C
H       0.5117   0.2081   0.7365     H
H       0.5135    0.375   0.2792     H
O      0.51438  0.08077  0.84747     O
N      0.51719  0.02332   0.3467     N
O      0.52209  0.77431  0.41611     O
C      0.52552  0.37712  0.13084     C
C      0.52608  0.40969  0.88675     C
O      0.52626  0.07698   0.1915     O
C       0.5267  0.73688  0.01152     C
H       0.5277    0.889   0.6394     H
C      0.52873  0.39243  0.25691     C
H       0.5291   0.4806    0.437     H
C      0.52992  0.41691  0.81445     C
H       0.5304     0.82   0.6484     H
O      0.53102  0.25046   0.0783     O
C      0.53105    0.164   0.3637     C
C      0.53348  0.12288  0.36916     C
O      0.53397  0.02255  0.78351     O
C      0.53638   0.5438  0.17884     C
O      0.53776  0.90492  0.44936     O
C      0.53822  0.98848  0.23688     C
C      0.53899  0.02349  0.30513     C
Sm     0.53928    0.472  0.67079    Sm
O      0.53979  0.58696  0.27786     O
C      0.54007  0.55453  0.78793     C
N      0.54051   0.8467  0.97668     N
C      0.54707  0.55117  0.10829     C
H       0.5489   0.8431   0.1317     H
H       0.5524   0.4062    0.788     H
H       0.5561   0.5279   0.2013     H
H       0.5561    0.611   0.8606     H
O      0.55652  0.28351  0.97745     O
O      0.55732  0.05064  0.90492     O
C      0.55875    0.336   0.1363     C
C      0.56058  0.00059  0.63405     C
C      0.56117  0.13405  0.99941     C
C       0.5614   0.2048   0.7108     C
C      0.56165  0.39441  0.84729     C
C      0.56248  0.80513  0.97651     C
O      0.56423  0.58508  0.34126     O
C       0.5674  0.57938  0.75422     C
N      0.57296  0.52793  0.14135     N
N      0.57379   0.2385  0.68852     N
C      0.57404  0.23852   0.5696     C
C      0.57437  0.72947  0.92159     C
N      0.57505  0.44278  0.19052     N
H       0.5754   0.0009   0.6055     H
H       0.5763   0.1055   0.9991     H
C      0.57725  0.43288  0.47402     C
H       0.5773   0.0573   0.4673     H
C      0.57875  0.60013  0.30717     C
C      0.57956  0.38652  0.92156     C
H       0.5797   0.3136   0.5416     H
N      0.58034  0.49106  0.06806     N
Co     0.58256  0.46391  0.12905    Co
H       0.5833   0.8606    0.889     H
C      0.58717  0.88675  0.09031     C
C      0.58959  0.02688  0.69634     C
C      0.59061  0.45837  0.43981     C
C      0.59106  0.84729  0.10559     C
O      0.59515  0.34747  0.91923     O
C      0.59547  0.53082  0.06824     C
H       0.5981   0.6539   0.3625     H
H       0.5988   0.1417   0.7137     H
C        0.599  0.07938  0.25422     C
C      0.60045  0.31195  0.56775     C
H       0.6019   0.4427   0.0327     H
O      0.60324   0.6915  0.92302     O
N      0.60536  0.40121  0.11367     N
O      0.60796  0.40492  0.94936     O
H        0.608   0.3683   0.8431     H
C       0.6093  0.27392  0.58888     C
O      0.60932   0.9217  0.75046     O
C      0.61236  0.88652  0.42156     C
H       0.6126   0.3717   0.5727     H
N      0.61279  0.52332   0.8467     N
C       0.6136  0.46992  0.03288     C
C       0.6164  0.03008  0.46712     C
C      0.61647  0.19634  0.97312     C
C       0.6168    0.165   0.6988     C
C      0.61747  0.05453  0.28793     C
C      0.61885  0.02435  0.65455     C
N      0.62024  0.09879  0.38633     N
O      0.62051  0.50371  0.36707     O
C       0.6218  0.18147  0.37653     C
C      0.62225  0.34615  0.58555     C
H       0.6223   0.2095   0.3729     H
H       0.6248   0.0444   0.7106     H
H       0.6276   0.0281   0.5271     H
O      0.62819  0.44411  0.59351     O
C      0.63239  0.52349  0.80513     C
H       0.6346   0.9673   0.9427     H
O      0.63556  0.49229  0.72419     O
C        0.636   0.6624   0.3372     C
O      0.63815  0.84747  0.41923     O
N      0.63946  0.00894  0.43194     N
O      0.64022  0.75046   0.5783     O
O      0.64025  0.72419  0.00771     O
O      0.64228  0.22296  0.53768     O
C      0.64268  0.63838  0.30226     C
C       0.6432  0.15455  0.97565     C
C      0.64513  0.27187  0.62687     C
C      0.64576   0.3901  0.23538     C
C      0.64648  0.96712  0.96992     C
C      0.64743  0.23367  0.65187     C
O      0.64796  0.99229  0.22419     O
C      0.64837  0.01306   0.5028     C
N       0.6484  0.93194  0.99106     N
H       0.6496   0.8516     0.82     H
O       0.6552  0.61955  0.01385     O
C      0.65536  0.89171  0.05117     C
C      0.65551  0.54902  0.03396     C
C      0.65563  0.81445  0.08309     C
H       0.6557   0.0271   0.9719     H
C      0.65636  0.86916  0.87712     C
C       0.6579   0.3414   0.6222     C
H       0.6596    0.788   0.0938     H
C      0.66143   0.0028  0.98694     C
C      0.66371  0.93176  0.03082     C
C      0.66423  0.48694   0.9972     C
C      0.66447  0.41539  0.20267     C
H       0.6646   0.7106   0.4556     H
H        0.667   0.3857   0.5013     H
H       0.6677    0.125   0.2208     H
O      0.66905  0.98615  0.11955     O
H       0.6692   0.2106   0.9556     H
N      0.67165  0.30605  0.64445     N
C        0.672  0.78793  0.94547     C
C       0.6726  0.40181  0.47759     C
H       0.6752   0.3647   0.6337     H
Co     0.67553  0.03609  0.37094    Co
C      0.67748  0.90969  0.38675     C
H       0.6777   0.0387   0.6403     H
C      0.67807  0.10757  0.24309     C
C      0.67838  0.75422  0.92062     C
C       0.6798  0.31853  0.12347     C
H       0.6806   0.8683   0.3431     H
O      0.68088  0.40012  0.33912     O
H       0.6818   0.4991   0.8945     H
Sm     0.68186  0.02523  0.82637    Sm
H        0.682   0.6403   0.4613     H
O      0.68252  0.78351  0.47745     O
H       0.6828   0.4719   0.9729     H
N       0.6839  0.64445  0.19395     N
C       0.6844   0.6988    0.335     C
C      0.68497  0.00225  0.02621     C
C      0.68722  0.52621  0.99775     C
H       0.6875   0.7137   0.3583     H
C      0.68947  0.96604  0.04902     C
O      0.69088  0.13726  0.48538     O
H       0.6911   0.6337   0.1353     H
C      0.69453  0.96918  0.43176     C
C      0.69505   0.8637    0.836     C
C      0.69508  0.45085  0.40999     C
C      0.69522  0.49941  0.86595     C
C      0.69616  0.57841  0.72947     C
C      0.69665  0.89441  0.34729     C
C      0.69766  0.59023  0.03525     C
H       0.6981   0.0262   0.0378     H
C       0.7007  0.65187  0.26633     C
C       0.7016   0.1628   0.6624     C
O       0.7036  0.08389  0.77431     O
H       0.7047   0.2905   0.1271     H
O      0.70526  0.57698   0.6915     O
C      0.70653  0.94883  0.39171     C
C       0.7068  0.11611  0.39989     C
Sm     0.70709  0.32637  0.97477    Sm
N      0.70835  0.05722  0.30948     N
H       0.7107   0.3716    0.243     H
C      0.71118  0.97379  0.50225     C
C      0.71153  0.15783  0.39471     C
Co     0.71162  0.87094  0.96391    Co
C      0.71211  0.46475  0.59023     C
C      0.71407  0.69634  0.47312     C
N      0.71431  0.85865  0.02793     N
C      0.71477  0.48208  0.37678     C
C      0.71522  0.82116   0.0438     C
H       0.7164   0.1403   0.9613     H
O      0.71776   0.8085  0.57698     O
C      0.71894  0.19774  0.63838     C
N      0.71903  0.88633  0.90121     N
H       0.7198   0.2365   0.7919     H
C       0.7199   0.6222   0.1586     C
C       0.7228  0.38389  0.10011     C
H       0.7243   0.5378   0.9738     H
O      0.72525  0.48615  0.61955     O
C      0.72543  0.77053  0.57841     C
C       0.7266  0.65455  0.47565     C
C       0.7278   0.7108   0.2952     C
C        0.728  0.62687  0.22813     C
C      0.72879  0.49654  0.78228     C
C      0.73291  0.96475  0.09023     C
H       0.7359   0.9622   0.5262     H
C      0.73642  0.48848  0.73688     C
N      0.73769  0.68852   0.2615     N
H       0.7379   0.5262   0.5378     H
C      0.73849  0.95098  0.46604     C
C      0.73872  0.91691  0.31445     C
H       0.7405   0.2137   0.8583     H
N      0.74224  0.97207  0.35865     N
H       0.7437   0.4136   0.1878     H
H        0.748   0.1375   0.6539     H
H       0.7518   0.7365   0.2919     H
H       0.7534   0.9062    0.288     H
H       0.7574   0.7987   0.0279     H
C      0.75902   0.9562  0.32116     C
C      0.76407  0.34217  0.10529     C
N      0.76557  0.80948  0.94278     N
C       0.7662   0.2108   0.7952     C
C      0.77124   0.1099  0.26462     C
O      0.77268  0.21087  0.42857     O
N      0.77303  0.39322  0.44912     N
C      0.77467  0.71772  0.49654     C
C       0.7751  0.76312  0.48848     C
N      0.77785  0.44912  0.10678     N
O       0.7783  0.59351  0.05589     O
C      0.78124  0.40891  0.32181     C
O      0.78148   0.5783  0.74954     O
C       0.7818   0.1988    0.835     C
C      0.78185  0.41615  0.41475     C
C      0.78253  0.08461  0.29733     C
H       0.7853   0.9721   0.2987     H
C      0.78564  0.74309  0.89243     C
C      0.78657  0.50225  0.52621     C
O      0.78749  0.27431  0.91611     O
O       0.7886  0.88045  0.48615     O
Sm     0.78994  0.67079    0.028    Sm
C       0.7922  0.58555  0.15385     C
H       0.7927   0.7208    0.875     H
C      0.79547  0.46604  0.54902     C
C      0.79775  0.47565  0.84545     C
O      0.79875  0.42857  0.28913     O
C      0.80182  0.58888  0.22608     C
C        0.802  0.08525  0.41615     C
C      0.80315  0.12322  0.48208     C
C      0.80327  0.87653  0.81853     C
C       0.8034  0.41475  0.08385     C
C      0.80537  0.63405  0.49941     C
C      0.80985  0.17819  0.40891     C
N      0.81229  0.18852   0.7615     N
C      0.81256   0.0696  0.76148     C
C      0.81281  0.47312  0.80366     C
O      0.81352  0.36274  0.01462     O
H       0.8147   0.5727   0.1283     H
O      0.81765  0.72214  0.08696     O
Sm     0.81794    0.972  0.17079    Sm
H       0.8191   0.6055   0.4991     H
O      0.82004  0.53768  0.27704     O
C      0.82112  0.19283  0.60013     C
H       0.8212   0.6484     0.68     H
C      0.82291  0.89989  0.88389     C
C      0.82314  0.90977  0.46475     C
O      0.82374  0.48538  0.36274     O
H       0.8253   0.1284    0.257     H
H       0.8264   0.8647   0.1337     H
O      0.82814  0.98538  0.86274     O
H       0.8317   0.5013   0.1143     H
C       0.8318  0.56775  0.18805     C
H       0.8318   0.8729   0.7905     H
H       0.8329   0.6394    0.611     H
N      0.83375  0.05088  0.39322     N
O      0.83419  0.94411  0.09351     O
O      0.84003  0.47745  0.71649     O
H       0.8427   0.3122   0.4136     H
C      0.84412  0.69487  0.52349     C
H       0.8451   0.0864   0.3122     H
H       0.8453   0.5271   0.4719     H
C      0.84883   0.5028  0.48694     C
C      0.84981  0.47759  0.09819     C
O      0.85069  0.15874  0.58508     O
C      0.85322  0.74578  0.57938     C
C      0.85407  0.09001  0.45085     C
C      0.85636   0.5696  0.26148     C
H       0.8567   0.4613   0.8597     H
N      0.86389   0.6533  0.52332     N
C       0.8644   0.1624   0.8372     C
O      0.86524  0.03768  0.77704     O
C      0.86714  0.79733  0.91539     C
C      0.86936  0.89471  0.84217     C
O      0.87215  0.77581  0.49229     O
O      0.87325  0.22214  0.58696     O
C      0.87371  0.43176  0.53082     C
O      0.87578  0.13293  0.50371     O
N      0.87785  0.80605  0.14445     N
C       0.8785   0.8414   0.1222     C
H       0.8787   0.5416   0.1864     H
H       0.8798   0.4556   0.7894     H
C       0.8811  0.15187  0.76633     C
C      0.88114  0.76462   0.8901     C
C      0.88216  0.26148   0.9304     C
C      0.88322  0.08888  0.72608     C
N      0.88463  0.89322  0.94912     N
H       0.8855   0.1539   0.8625     H
C      0.88592  0.69283  0.10013     C
C      0.88725  0.91615  0.91475     C
H       0.8885   0.7792    0.625     H
H       0.8933   0.0416   0.6864     H
C      0.89331  0.39989  0.38389     C
C      0.89376  0.39471  0.34217     C
C      0.89475   0.6363    0.664     C
C      0.89493  0.40999  0.04915     C
C      0.89695  0.32181  0.09109     C
N      0.89911  0.35865  0.52793     N
C      0.90176  0.39171  0.55117     C
C      0.90264  0.63084  0.62288     C
O      0.90292  0.27704  0.96232     O
O      0.90461  0.91304  0.22214     O
C       0.9054  0.71207  0.55453     C
O      0.90549  0.65874  0.08508     O
C      0.90845  0.37678  0.01792     C
O      0.91212  0.28913  0.07143     O
C       0.9124  0.06775  0.68805     C
H        0.916   0.2987   0.5279     H
C      0.91648  0.46712  0.46992     C
C      0.91668  0.13838  0.80226     C
C        0.917  0.12687  0.72813     C
H       0.9177    0.257   0.3716     H
O        0.919  0.16088  0.40012     O
C      0.91982  0.32116   0.5438     C
O      0.92012  0.09988  0.16088     O
C      0.92014  0.29733  0.41539     C
C      0.92116  0.75691  0.60757     C
C      0.92559  0.02241  0.40181     C
C      0.92637  0.98208  0.87678     C
O       0.9277  0.90649  0.44411     O
N       0.9286  0.43194  0.49106     N
H       0.9315   0.8122   0.9136     H
H       0.9349   0.1864   0.9584     H
C      0.93577  0.38675  0.59031     C
H       0.9367   0.0631   0.0063     H
O       0.9382  0.58389  0.27431     O
O      0.94262  0.41923  0.65253     O
H        0.943   0.8717   0.0727     H
H        0.943   0.9937   0.5631     H
C      0.94408  0.95085  0.90999     C
C      0.94494  0.69774  0.13838     C
H        0.946   0.8857   0.0013     H
C      0.94605  0.84615  0.08555     C
H       0.9467   0.0194    0.063     H
C      0.94683  0.31445  0.58309     C
H       0.9473   0.9987   0.3857     H
C        0.948  0.90181  0.97759     C
C      0.94873  0.47402  0.06712     C
C      0.95102  0.06019  0.45837     C
Co     0.95354  0.37094  0.46391    Co
H       0.9537    0.757   0.8716     H
H       0.9542   0.3583   0.7863     H
H       0.9554   0.4673   0.4427     H
C      0.95606  0.34729  0.60559     C
C      0.95613  0.77187  0.12687     C
H       0.9563   0.2919   0.7635     H
H       0.9586    0.288   0.5938     H
H       0.9601   0.8663   0.3647     H
H       0.9606   0.6375   0.1539     H
C      0.96414  0.26462   0.3901     C
C      0.96608  0.42156  0.61348     C
H       0.9661    0.563   0.9806     H
Sm     0.96654  0.52523  0.32637    Sm
C      0.96703  0.73367  0.15187     C
C       0.9684  0.08555  0.65385     C
C      0.96958  0.43981  0.04163     C
C       0.9721  0.22608  0.91112     C
C       0.9732   0.6628   0.1624     C
H       0.9763   0.3431   0.6317     H
C        0.977   0.2952   0.7892     C
N       0.9777  0.14445  0.69395     N
O         0.98  0.33912  0.09988     O
C      0.98015  0.18805  0.93225     C
C       0.9806    0.335   0.8012     C
N      0.98217  0.30948  0.44278     N
O      0.98355  0.92857  0.78913     O
C      0.98415  0.06712  0.02598     C
H       0.9843   0.0727   0.6283     H
C      0.98605  0.89987  0.19283     C
O      0.98712  0.55064  0.40492     O
O      0.98758  0.63293  0.00371     O
C      0.98804  0.90891  0.82181     C
Sm     0.98872  0.82921  0.47201    Sm
C      0.98879  0.04163  0.06019     C
C      0.98987  0.02598  0.43288     C
H       0.9903    0.063   0.4806     H
O      0.99057  0.91492  0.15874     O
O      0.99129  0.99629  0.13293     O
N      0.99343  0.38633  0.40121     N
H       0.9952   0.6271   0.7095     H
C      0.99833  0.62347  0.68147     C
N      0.99919   0.7385  0.18852     N
C       0.9993   0.1222   0.6586     C
H       0.9998   0.5063   0.9369     H
