data_I
_chemical_name_common  '/home/zhangsd/repos/MofS-CGCNN/ML/data/TSD/clean_cifs/MIHLEV_clean'
_cell_length_a  7.45950
_cell_length_b 11.47400
_cell_length_c 16.47670
_cell_angle_alpha 98.95110
_cell_angle_beta  90.98630
_cell_angle_gamma 91.31090
_space_group_name_H-M_alt      'P 1'


loop_
_space_group_symop_operation_xyz
  'x, y, z' 

loop_
_atom_site_label
_atom_site_fract_x
_atom_site_fract_y
_atom_site_fract_z
_atom_site_type_symbol
C       0.0023   0.2537     0.71     C
C       0.0225   0.7851   0.3738     C
O       0.0434   0.2343   0.0216     O
H       0.0531    0.994   0.3155     H
C        0.056   0.9789   0.6603     C
O       0.0631   0.3489  0.87358     O
O       0.0751   0.5898  0.95257     O
C       0.0825   0.7013   0.9568     C
H       0.0869   0.3588   0.5138     H
C       0.0891   0.6297    0.156     C
H       0.1001   0.8231   0.7033     H
H       0.1072   0.2329   0.7374     H
H       0.1096   0.4582   0.6641     H
C        0.123   0.1459    0.581     C
C       0.1252   0.6771   0.2456     C
C       0.1389   0.8795   0.6704     C
C       0.1642   0.0371   0.6054     C
C       0.1803   0.7567   0.4129     C
C       0.1809   0.3073   0.4954     C
H       0.1912    0.737   0.9424     H
H       0.1916   0.6016    0.585     H
C       0.1993   0.5162   0.6842     C
H       0.2002   0.7842   0.4698     H
O       0.2113    0.574  0.11698     O
C        0.216   0.1967   0.5221     C
Pr     0.24085  0.42356  0.99505    Pr
H       0.2457   0.4569   0.7928     H
C       0.2481   0.6014   0.6371     C
C       0.2803   0.5149   0.7603     C
C       0.2804   0.6489   0.2855     C
C       0.2986   0.8747   0.6217     C
C       0.3053   0.3256   0.4392     C
C       0.3082   0.6882   0.3683     C
N       0.3102    0.971  0.58218     N
H       0.3128   0.3913   0.4107     H
O       0.3618   0.3329   0.1118     O
N       0.3619   0.1507  0.48057     N
H       0.3679   0.6022   0.2556     H
C       0.3798   0.6872   0.6658     C
H       0.4093   0.0824   0.4851     H
C       0.4125   0.5991   0.7888     C
H       0.4146   0.6686   0.3951     H
C       0.4225   0.7834   0.6169     C
C       0.4232    0.228   0.4306     C
H       0.4457   0.2592   0.2389     H
O       0.4504    0.531  0.91934     O
C       0.4625   0.6841   0.7415     C
C       0.4952   0.4003   0.1299     C
C       0.5048   0.5997   0.8701     C
C       0.5375   0.3159   0.2585     C
O       0.5496    0.469  0.08066     O
H       0.5543   0.7408   0.7611     H
C       0.5768    0.772   0.5694     C
C       0.5775   0.2166   0.3831     C
H       0.5854   0.3314   0.6049     H
C       0.5875   0.4009   0.2112     C
H       0.5907   0.9176   0.5149     H
C       0.6202   0.3128   0.3342     C
H       0.6321   0.3978   0.7444     H
N       0.6381   0.8493  0.51943     N
O       0.6382   0.6671   0.8882     O
H       0.6872   0.6087   0.5893     H
N       0.6898    0.029  0.41782     N
C       0.6918   0.3118   0.6317     C
C       0.6947   0.6744   0.5608     C
C       0.7014   0.1253   0.3783     C
C       0.7196   0.3511   0.7145     C
C       0.7197   0.4851   0.2397     C
C       0.7519   0.3986   0.3629     C
H       0.7543   0.5431   0.2072     H
Pr     0.75915  0.57644  0.00495    Pr
C        0.784   0.8033   0.4779     C
O       0.7887    0.426  0.88302     O
H       0.7998   0.2158   0.5302     H
C       0.8007   0.4838   0.3158     C
H       0.8084   0.3984    0.415     H
H       0.8088    0.263   0.0576     H
C       0.8191   0.6927   0.5046     C
C       0.8197   0.2433   0.5871     C
C       0.8358   0.9629   0.3946     C
C       0.8611   0.1205   0.3296     C
C       0.8748   0.3229   0.7544     C
C        0.877   0.8541    0.419     C
H       0.8904   0.5418   0.3359     H
H       0.8928   0.7671   0.2626     H
H       0.8999   0.1769   0.2967     H
C       0.9109   0.3703    0.844     C
H       0.9131   0.6412   0.4862     H
C       0.9175   0.2987   0.0432     C
O       0.9249   0.4102  0.04743     O
O       0.9369   0.6511  0.12642     O
C        0.944   0.0211   0.3397     C
H       0.9469    0.006   0.6845     H
O       0.9566   0.7657   0.9784     O
C       0.9775   0.2149   0.6262     C
C       0.9977   0.7463     0.29     C
