data_I
_chemical_name_common  '/home/zhangsd/repos/MofS-CGCNN/ML/data/TSD/clean_cifs/MIMVEJ_clean'
_cell_length_a  6.91830
_cell_length_b 15.48870
_cell_length_c 15.48870
_cell_angle_alpha 87.14100
_cell_angle_beta  77.09510
_cell_angle_gamma 77.09510
_space_group_name_H-M_alt      'P 1'


loop_
_space_group_symop_operation_xyz
  'x, y, z' 

loop_
_atom_site_label
_atom_site_fract_x
_atom_site_fract_y
_atom_site_fract_z
_atom_site_type_symbol
C       0.0027   0.6191   0.7419     C
C        0.013   0.4575   0.7535     C
C       0.0165   0.9575   0.7465     C
C        0.026   0.2535   0.9575     C
H       0.0378   0.2474   0.4888     H
O      0.04034  0.89399  0.24913     O
C        0.056   0.2483   0.0437     C
O      0.06567  0.75087  0.89399     O
O      0.06654  0.74913  0.39399     O
N       0.0759   0.6147   0.2427     N
H       0.0927   0.7545   0.5509     H
H       0.0972   0.7455   0.0509     H
Zn     0.11423  0.26077  0.76077    Zn
Zn       0.125  0.76077  0.73923    Zn
Zn     0.13577  0.73923  0.23923    Zn
H       0.1528   0.4491   0.7545     H
H       0.1573   0.9491   0.7455     H
N       0.1741   0.2573   0.8853     N
O      0.18346  0.10601  0.75087     O
O      0.18433  0.60601  0.74913     O
C        0.194   0.4563   0.2517     C
O      0.20966  0.25087  0.60601     O
H       0.2122   0.0112   0.2526     H
C        0.224   0.5425   0.2465     C
C       0.2335   0.7535   0.5425     C
C        0.237   0.7465   0.0425     C
C       0.2473   0.7581   0.8809     C
C       0.2501   0.2496   0.0548     C
C       0.2554   0.7419   0.3809     C
H       0.2737   0.1525   0.2625     H
H       0.2765   0.2479   0.1125     H
N       0.3094   0.7573   0.6147     N
N       0.3167   0.7427   0.1147     N
O      0.32709  0.30441  0.27161     O
C        0.345   0.0179   0.2533     C
O      0.34689  0.77161  0.80441     O
C        0.348   0.7517   0.9563     C
C       0.3497   0.7483   0.4563     C
H       0.3564   0.5509   0.2455     H
C       0.3585   0.2583   0.8975     C
C       0.3637   0.3809   0.2581     C
O       0.3685  0.72839  0.30441     O
C       0.3782   0.2581   0.6191     C
C       0.3832   0.1025   0.2583     C
H       0.3981   0.2455   0.4491     H
O       0.4013  0.27161  0.69559     O
C       0.4017   0.2533   0.9821     C
H       0.4638   0.2625   0.8475     H
H       0.4734   0.4888   0.7526     H
H       0.4756   0.8875   0.2479     H
H        0.476   0.9888   0.7474     H
C       0.5003   0.9452   0.2496     C
C        0.506   0.7583   0.6025     C
C       0.5143   0.7417   0.1025     C
C       0.5295   0.2465   0.4575     C
H       0.5352   0.2526   0.9888     H
O      0.53947  0.39399  0.25087     O
C       0.5543   0.2517   0.5437     C
C       0.5545   0.7504   0.9452     C
C       0.5549   0.7496   0.4452     C
H       0.5613   0.7625   0.6525     H
N       0.5686   0.1147   0.2573     N
H       0.5738   0.7375   0.1525     H
H        0.611   0.1125   0.7521     H
C       0.6129   0.4821   0.7533     C
H       0.6131   0.6125   0.7479     H
C       0.6162   0.9821   0.7467     C
Zn       0.625  0.23923  0.26077    Zn
C       0.6338   0.7533   0.5179     C
H       0.6369   0.7521   0.8875     H
C       0.6371   0.7467   0.0179     C
H        0.639   0.7479   0.3875     H
H       0.6762   0.3475   0.7625     H
N       0.6814   0.2427   0.3853     N
H       0.6887   0.8475   0.7375     H
C       0.6951   0.0548   0.7504     C
C       0.6955   0.5548   0.7496     C
C       0.6957   0.9563   0.2483     C
O      0.71053  0.24913  0.10601     O
H       0.7148   0.5112   0.2474     H
C       0.7205   0.0425   0.2535     C
C       0.7357   0.3975   0.7583     C
C        0.744   0.8975   0.7417     C
C       0.7497   0.2504   0.5548     C
H        0.774   0.7526   0.5112     H
H       0.7744   0.2521   0.6125     H
H       0.7766   0.7474   0.0112     H
H       0.7862   0.6525   0.2375     H
C       0.8483   0.5179   0.2467     C
O       0.8487  0.80441  0.22839     O
H       0.8519   0.0509   0.2545     H
C       0.8668   0.2417   0.3975     C
C       0.8718   0.8809   0.2419     C
O       0.8815  0.19559  0.77161     O
C       0.8863   0.2419   0.1191     C
C       0.8915   0.6025   0.2417     C
H       0.8936   0.2545   0.9491     H
C       0.9003   0.0437   0.7517     C
C        0.902   0.5437   0.7483     C
O      0.90311  0.69559  0.72839     O
C        0.905   0.2467   0.4821     C
O      0.92291  0.22839  0.19559     O
N       0.9333   0.3853   0.7573     N
N       0.9406   0.8853   0.7427     N
H       0.9735   0.3875   0.2521     H
H       0.9763   0.2375   0.3475     H
C       0.9946   0.1191   0.7581     C
C       0.9999   0.4452   0.2504     C
