data_I
_chemical_name_common  '/home/zhangsd/repos/MofS-CGCNN/ML/data/TSD/clean_cifs/MINVOU01_clean'
_cell_length_a 17.34000
_cell_length_b 12.17800
_cell_length_c  6.82200
_cell_angle_alpha 90.00000
_cell_angle_beta  90.00000
_cell_angle_gamma 90.00000
_space_group_name_H-M_alt      'P 1'


loop_
_space_group_symop_operation_xyz
  'x, y, z' 

loop_
_atom_site_label
_atom_site_fract_x
_atom_site_fract_y
_atom_site_fract_z
_atom_site_type_symbol
Cr         0.0      0.0      0.0    Cr
Cr         0.0      0.0      0.5    Cr
O        0.002    0.922     0.75     O
O        0.073    0.888     0.09     O
O        0.073    0.888     0.41     O
O        0.089    0.089    0.587     O
O        0.089    0.089    0.913     O
C        0.108    0.857     0.25     C
C        0.123    0.117     0.75     C
C        0.171    0.787     0.25     C
C        0.191     0.18     0.75     C
C        0.205    0.764     0.08     C
C        0.205    0.764     0.42     C
C        0.229    0.198    0.578     C
C        0.229    0.198    0.922     C
C        0.271    0.698    0.078     C
C        0.271    0.698    0.422     C
C        0.295    0.264     0.58     C
C        0.295    0.264     0.92     C
C        0.309     0.68     0.25     C
C        0.329    0.287     0.75     C
C        0.377    0.617     0.25     C
C        0.392    0.357     0.75     C
O        0.411    0.589    0.087     O
O        0.411    0.589    0.413     O
O        0.427    0.388     0.59     O
O        0.427    0.388     0.91     O
O        0.498    0.422     0.25     O
Cr         0.5      0.5      0.0    Cr
Cr         0.5      0.5      0.5    Cr
O        0.502    0.578     0.75     O
O        0.573    0.612     0.09     O
O        0.573    0.612     0.41     O
O        0.589    0.411    0.587     O
O        0.589    0.411    0.913     O
C        0.608    0.643     0.25     C
C        0.623    0.383     0.75     C
C        0.671    0.713     0.25     C
C        0.691     0.32     0.75     C
C        0.705    0.736     0.08     C
C        0.705    0.736     0.42     C
C        0.729    0.302    0.578     C
C        0.729    0.302    0.922     C
C        0.771    0.802    0.078     C
C        0.771    0.802    0.422     C
C        0.795    0.236     0.58     C
C        0.795    0.236     0.92     C
C        0.809     0.82     0.25     C
C        0.829    0.213     0.75     C
C        0.877    0.883     0.25     C
C        0.892    0.143     0.75     C
O        0.911    0.911    0.087     O
O        0.911    0.911    0.413     O
O        0.927    0.112     0.59     O
O        0.927    0.112     0.91     O
O        0.998    0.078     0.25     O
