data_I
_chemical_name_common  '/home/zhangsd/repos/MofS-CGCNN/ML/data/TSD/clean_cifs/MOCKEV_clean'
_cell_length_a 14.89660
_cell_length_b 14.89660
_cell_length_c 14.89660
_cell_angle_alpha 78.24530
_cell_angle_beta  78.24530
_cell_angle_gamma 78.24530
_space_group_name_H-M_alt      'P 1'


loop_
_space_group_symop_operation_xyz
  'x, y, z' 

loop_
_atom_site_label
_atom_site_fract_x
_atom_site_fract_y
_atom_site_fract_z
_atom_site_type_symbol
N        0.017    0.504     0.02     N
N         0.02    0.017    0.504     N
H       0.0203   0.4967   0.8085     H
O       0.0219   0.4945   0.6447     O
O        0.022    0.643   0.5004     O
H       0.0292    0.812   0.4849     H
C       0.0355   0.1688   0.5113     C
C       0.0426   0.5081   0.1694     C
C        0.061   0.3344   0.5157     C
C       0.0678    0.519   0.3271     C
C       0.0766   0.5031   0.0783     C
C       0.0783   0.0766   0.5031     C
Cu     0.08127  0.51392  0.51389    Cu
C       0.0941   0.5193   0.2294     C
C       0.0942     0.23   0.5132     C
O       0.1203   0.5215   0.3831     O
O       0.1223   0.3802   0.5232     O
C       0.1688   0.5113   0.0355     C
C       0.1694   0.0426   0.5081     C
H        0.188   0.5151   0.9708     H
C       0.1896    0.194   0.5186     C
H       0.1915   0.9797   0.5033     H
C        0.194   0.5186   0.1896     C
H       0.2287   0.2349   0.5219     H
C       0.2294   0.0941   0.5193     C
C         0.23   0.5132   0.0942     C
H       0.2349   0.5219   0.2287     H
C       0.3271   0.0678    0.519     C
C       0.3344   0.5157    0.061     C
O       0.3553   0.9781   0.5055     O
O        0.357   0.4996    0.978     O
O       0.3802   0.5232   0.1223     O
O       0.3831   0.1203   0.5215     O
O       0.4768   0.8777   0.6198     O
H       0.4781   0.7713   0.7651     H
O       0.4785   0.6169   0.8797     O
C       0.4807   0.7706   0.9059     C
C        0.481   0.6729   0.9322     C
C       0.4814   0.8104    0.806     C
C       0.4843    0.939   0.6656     C
H       0.4849   0.0292    0.812     H
Cu     0.48608  0.48611  0.91873    Cu
Cu     0.48611  0.91873  0.48608    Cu
C       0.4868   0.9058     0.77     C
C       0.4887   0.9645   0.8312     C
C       0.4919   0.8306   0.9574     C
O       0.4945   0.6447   0.0219     O
N        0.496     0.98    0.983     N
H       0.4967   0.8085   0.0203     H
C       0.4969   0.9217   0.9234     C
O       0.4996    0.978    0.357     O
O       0.5004    0.022    0.643     O
C       0.5031   0.0783   0.0766     C
H       0.5033   0.1915   0.9797     H
N        0.504     0.02    0.017     N
O       0.5055   0.3553   0.9781     O
C       0.5081   0.1694   0.0426     C
C       0.5113   0.0355   0.1688     C
C       0.5132   0.0942     0.23     C
Cu     0.51389  0.08127  0.51392    Cu
Cu     0.51392  0.51389  0.08127    Cu
H       0.5151   0.9708    0.188     H
C       0.5157    0.061   0.3344     C
C       0.5186   0.1896    0.194     C
C        0.519   0.3271   0.0678     C
C       0.5193   0.2294   0.0941     C
O       0.5215   0.3831   0.1203     O
H       0.5219   0.2287   0.2349     H
O       0.5232   0.1223   0.3802     O
O       0.6169   0.8797   0.4785     O
O       0.6198   0.4768   0.8777     O
O        0.643   0.5004    0.022     O
O       0.6447   0.0219   0.4945     O
C       0.6656   0.4843    0.939     C
C       0.6729   0.9322    0.481     C
H       0.7651   0.4781   0.7713     H
C         0.77   0.4868   0.9058     C
C       0.7706   0.9059   0.4807     C
H       0.7713   0.7651   0.4781     H
C        0.806   0.4814   0.8104     C
H       0.8085   0.0203   0.4967     H
C       0.8104    0.806   0.4814     C
H        0.812   0.4849   0.0292     H
C       0.8306   0.9574   0.4919     C
C       0.8312   0.4887   0.9645     C
O       0.8777   0.6198   0.4768     O
O       0.8797   0.4785   0.6169     O
C       0.9058     0.77   0.4868     C
C       0.9059   0.4807   0.7706     C
Cu     0.91873  0.48608  0.48611    Cu
C       0.9217   0.9234   0.4969     C
C       0.9234   0.4969   0.9217     C
C       0.9322    0.481   0.6729     C
C        0.939   0.6656   0.4843     C
C       0.9574   0.4919   0.8306     C
C       0.9645   0.8312   0.4887     C
H       0.9708    0.188   0.5151     H
O        0.978    0.357   0.4996     O
O       0.9781   0.5055   0.3553     O
H       0.9797   0.5033   0.1915     H
N         0.98    0.983    0.496     N
N        0.983    0.496     0.98     N
