data_I
_chemical_name_common  '/home/zhangsd/repos/MofS-CGCNN/ML/data/TSD/clean_cifs/MOGNAY_clean'
_cell_length_a  6.72200
_cell_length_b 14.23900
_cell_length_c 22.88000
_cell_angle_alpha 90.00000
_cell_angle_beta  90.00000
_cell_angle_gamma 90.00000
_space_group_name_H-M_alt      'P 1'


loop_
_space_group_symop_operation_xyz
  'x, y, z' 

loop_
_atom_site_label
_atom_site_fract_x
_atom_site_fract_y
_atom_site_fract_z
_atom_site_type_symbol
O       0.0845   0.4245  0.87073     O
O       0.0845   0.9245  0.62927     O
O        0.087   0.4198  0.19661     O
O        0.087   0.9198  0.30339     O
H         0.25   0.0127   0.2053     H
C         0.25   0.0204   0.5066     C
C         0.25   0.0335   0.5675     C
Tb        0.25  0.04757  0.35956    Tb
C         0.25    0.078   0.2057     C
H         0.25   0.0926   0.1184     H
N         0.25   0.0934   0.4687     N
N         0.25   0.1243   0.2587     N
C         0.25   0.1259   0.1533     C
C         0.25   0.1261   0.5888     C
H         0.25   0.1378   0.6288     H
C         0.25   0.1805   0.4905     C
C         0.25   0.1994   0.5494     C
O         0.25   0.2112   0.3598     O
C         0.25   0.2192   0.2574     C
C         0.25     0.22   0.1523     C
H         0.25   0.2308   0.4646     H
H         0.25   0.2521   0.1169     H
H         0.25   0.2612   0.5626     H
C         0.25   0.2653   0.3163     C
C         0.25   0.2698   0.2053     C
O         0.25   0.3529    0.319     O
O         0.25   0.3548    0.987     O
C         0.25   0.3768   0.2028     C
O         0.25   0.4221   0.0767     O
C         0.25   0.4235   0.0206     C
C         0.25   0.4545   0.8888     C
H         0.25   0.5127   0.2947     H
C         0.25   0.5204   0.9934     C
C         0.25   0.5335   0.9325     C
Tb        0.25  0.54757  0.14044    Tb
C         0.25    0.578   0.2943     C
H         0.25   0.5926   0.3816     H
N         0.25   0.5934   0.0313     N
N         0.25   0.6243   0.2413     N
C         0.25   0.6259   0.3467     C
C         0.25   0.6261   0.9112     C
H         0.25   0.6378   0.8712     H
C         0.25   0.6805   0.0095     C
C         0.25   0.6994   0.9506     C
O         0.25   0.7112   0.1402     O
C         0.25   0.7192   0.2426     C
C         0.25     0.72   0.3477     C
H         0.25   0.7308   0.0354     H
H         0.25   0.7521   0.3831     H
H         0.25   0.7612   0.9374     H
C         0.25   0.7653   0.1837     C
C         0.25   0.7698   0.2947     C
O         0.25   0.8529    0.181     O
O         0.25   0.8548    0.513     O
C         0.25   0.8768   0.2972     C
O         0.25   0.9221   0.4233     O
C         0.25   0.9235   0.4794     C
C         0.25   0.9545   0.6112     C
O        0.413   0.4198  0.19661     O
O        0.413   0.9198  0.30339     O
O       0.4155   0.4245  0.87073     O
O       0.4155   0.9245  0.62927     O
O       0.5845   0.0755  0.37073     O
O       0.5845   0.5755  0.12927     O
O        0.587   0.0802  0.69661     O
O        0.587   0.5802  0.80339     O
C         0.75   0.0455   0.3888     C
C         0.75   0.0765   0.5206     C
O         0.75   0.0779   0.5767     O
C         0.75   0.1232   0.7028     C
O         0.75   0.1452    0.487     O
O         0.75   0.1471    0.819     O
C         0.75   0.2302   0.7053     C
C         0.75   0.2347   0.8163     C
H         0.75   0.2388   0.0626     H
H         0.75   0.2479   0.6169     H
H         0.75   0.2692   0.9646     H
C         0.75     0.28   0.6523     C
C         0.75   0.2808   0.7574     C
O         0.75   0.2888   0.8598     O
C         0.75   0.3006   0.0494     C
C         0.75   0.3195   0.9905     C
H         0.75   0.3622   0.1288     H
C         0.75   0.3739   0.0888     C
C         0.75   0.3741   0.6533     C
N         0.75   0.3757   0.7587     N
N         0.75   0.4066   0.9687     N
H         0.75   0.4074   0.6184     H
C         0.75    0.422   0.7057     C
Tb        0.75  0.45243  0.85956    Tb
C         0.75   0.4665   0.0675     C
C         0.75   0.4796   0.0066     C
H         0.75   0.4873   0.7053     H
C         0.75   0.5455   0.1112     C
C         0.75   0.5765   0.9794     C
O         0.75   0.5779   0.9233     O
C         0.75   0.6232   0.7972     C
O         0.75   0.6452    0.013     O
O         0.75   0.6471    0.681     O
C         0.75   0.7302   0.7947     C
C         0.75   0.7347   0.6837     C
H         0.75   0.7388   0.4374     H
H         0.75   0.7479   0.8831     H
H         0.75   0.7692   0.5354     H
C         0.75     0.78   0.8477     C
C         0.75   0.7808   0.7426     C
O         0.75   0.7888   0.6402     O
C         0.75   0.8006   0.4506     C
C         0.75   0.8195   0.5095     C
H         0.75   0.8622   0.3712     H
C         0.75   0.8739   0.4112     C
C         0.75   0.8741   0.8467     C
N         0.75   0.8757   0.7413     N
N         0.75   0.9066   0.5313     N
H         0.75   0.9074   0.8816     H
C         0.75    0.922   0.7943     C
Tb        0.75  0.95243  0.64044    Tb
C         0.75   0.9665   0.4325     C
C         0.75   0.9796   0.4934     C
H         0.75   0.9873   0.7947     H
O        0.913   0.0802  0.69661     O
O        0.913   0.5802  0.80339     O
O       0.9155   0.0755  0.37073     O
O       0.9155   0.5755  0.12927     O
