data_I
_chemical_name_common  '/home/zhangsd/repos/MofS-CGCNN/ML/data/TSD/clean_cifs/MOLKAB_clean'
_cell_length_a 14.22130
_cell_length_b 20.28300
_cell_length_c 19.83900
_cell_angle_alpha 110.32600
_cell_angle_beta  90.00000
_cell_angle_gamma 90.00000
_space_group_name_H-M_alt      'P 1'


loop_
_space_group_symop_operation_xyz
  'x, y, z' 

loop_
_atom_site_label
_atom_site_fract_x
_atom_site_fract_y
_atom_site_fract_z
_atom_site_type_symbol
C       0.0131   0.2763   0.2562     C
H       0.0142   0.3771   0.2611     H
H       0.0153   0.2193   0.7905     H
O       0.0242  0.09138  0.78278     O
C       0.0245  0.15215   0.2523     C
O       0.0331   0.4778  0.81094     O
C        0.037   0.5042   0.9364     C
C       0.0404   0.4813   0.4327     C
Ca      0.0436  0.56025  0.29633    Ca
C       0.0466   0.7808   0.2247     C
O      0.04967  0.99268   0.8868     O
H       0.0504   0.6784   0.2155     H
H       0.0514   0.7262   0.7375     H
C       0.0523   0.3382   0.2552     C
C       0.0542   0.5189   0.0617     C
C       0.0553   0.9095   0.2442     C
C       0.0557   0.5065   0.5597     C
Cd     0.05767  0.97432  0.75831    Cd
O      0.06286  0.85416  0.74887     O
H       0.0677   0.4686   0.3874     H
C       0.0686  0.21799   0.2481     C
O      0.07387  0.50982  0.67982     O
H       0.0748   0.0274    0.024     H
C       0.0764   0.5086   0.8671     C
O       0.0776   0.1033  0.25571     O
C       0.0861   0.7193   0.2282     C
H       0.0909   0.5316   0.1031     H
C       0.0913   0.5232   0.9989     C
C       0.0961   0.4878   0.4918     C
O       0.0988  0.96587  0.27368     O
C       0.0989   0.8421   0.2437     C
O       0.1029  0.95664  0.64369     O
H        0.114   0.9597   0.5153     H
C       0.1162    0.512   0.6232     C
C       0.1367   0.9941  0.89074     C
C       0.1376   0.0141   0.0222     C
O       0.1447  0.46534  0.26962     O
C       0.1488  0.34236   0.2452     C
H       0.1499   0.0283   0.1278     H
O       0.1515  0.54224  0.86961     O
H       0.1526   0.5389   0.9983     H
H       0.1604   0.4795   0.4862     H
C        0.164   0.2215   0.2363     C
O       0.1684  0.60093  0.24743     O
C       0.1766   0.9735   0.5173     C
C       0.1776   0.9911   0.6489     C
C       0.1784  0.71864   0.2504     C
C       0.1824   0.0139   0.0844     C
C       0.1858   0.9948   0.9579     C
H       0.1876   0.9631   0.4131     H
O      0.18777  0.99289  0.83764     O
C        0.192  0.41035   0.2482     C
C        0.192   0.8409   0.2638     C
O       0.1933  0.65201  0.77012     O
Ca     0.19711  0.06133  0.30959    Ca
Cd     0.19916   0.5312  0.75677    Cd
H       0.2017   0.1822   0.2296     H
O       0.2023  0.51774  0.62124     O
C       0.2037   0.2832   0.2346     C
H       0.2061   0.7799   0.7808     H
O        0.215   0.0252  0.70794     O
C       0.2209   0.9752   0.4561     C
C       0.2211  0.65384    0.257     C
O       0.2231  0.41165  0.73042     O
C       0.2252   0.9924   0.5821     C
H       0.2282   0.8815   0.2751     H
C       0.2313     0.78   0.2672     C
H       0.2322   0.2849   0.7261     H
H       0.2678   0.2849   0.2261     H
C       0.2687     0.78   0.7672     C
H       0.2718   0.8815   0.7751     H
C       0.2748   0.9924   0.0821     C
O       0.2769  0.41165  0.23042     O
C       0.2789  0.65384    0.757     C
C       0.2791   0.9752   0.9561     C
O        0.285   0.0252  0.20794     O
H       0.2939   0.7799   0.2808     H
C       0.2963   0.2832   0.7346     C
O       0.2977  0.51774  0.12124     O
H       0.2983   0.1822   0.7296     H
Cd     0.30084   0.5312  0.25677    Cd
Ca     0.30289  0.06133  0.80959    Ca
O       0.3067  0.65201  0.27012     O
C        0.308  0.41035   0.7482     C
C        0.308   0.8409   0.7638     C
O      0.31223  0.99289  0.33764     O
H       0.3124   0.9631   0.9131     H
C       0.3142   0.9948   0.4579     C
C       0.3176   0.0139   0.5844     C
C       0.3216  0.71864   0.7504     C
C       0.3224   0.9911   0.1489     C
C       0.3234   0.9735   0.0173     C
O       0.3316  0.60093  0.74743     O
C        0.336   0.2215   0.7363     C
H       0.3396   0.4795   0.9862     H
H       0.3474   0.5389   0.4983     H
O       0.3485  0.54224  0.36961     O
H       0.3501   0.0283   0.6278     H
C       0.3512  0.34236   0.7452     C
O       0.3553  0.46534  0.76962     O
C       0.3624   0.0141   0.5222     C
C       0.3633   0.9941  0.39074     C
C       0.3838    0.512   0.1232     C
H        0.386   0.9597   0.0153     H
O       0.3971  0.95664  0.14369     O
C       0.4011   0.8421   0.7437     C
O       0.4012  0.96587  0.77368     O
C       0.4039   0.4878   0.9918     C
C       0.4087   0.5232   0.4989     C
H       0.4091   0.5316   0.6031     H
C       0.4139   0.7193   0.7282     C
O       0.4224   0.1033  0.75571     O
C       0.4236   0.5086   0.3671     C
H       0.4252   0.0274    0.524     H
O      0.42613  0.50982  0.17982     O
C       0.4314  0.21799   0.7481     C
H       0.4323   0.4686   0.8874     H
O      0.43714  0.85416  0.24887     O
Cd     0.44233  0.97432  0.25831    Cd
C       0.4443   0.5065   0.0597     C
C       0.4447   0.9095   0.7442     C
C       0.4458   0.5189   0.5617     C
C       0.4477   0.3382   0.7552     C
H       0.4486   0.7262   0.2375     H
H       0.4496   0.6784   0.7155     H
O      0.45033  0.99268   0.3868     O
C       0.4534   0.7808   0.7247     C
Ca      0.4564  0.56025  0.79633    Ca
C       0.4596   0.4813   0.9327     C
C        0.463   0.5042   0.4364     C
O       0.4669   0.4778  0.31094     O
C       0.4755  0.15215   0.7523     C
O       0.4758  0.09138  0.28278     O
H       0.4847   0.2193   0.2905     H
H       0.4858   0.3771   0.7611     H
C       0.4869   0.2763   0.7562     C
C       0.5131   0.7237   0.2438     C
H       0.5142   0.6229   0.2389     H
H       0.5153   0.7807   0.7095     H
O       0.5242  0.90862  0.71722     O
C       0.5245  0.84785   0.2477     C
O       0.5331   0.5222  0.68906     O
C        0.537   0.4958   0.5636     C
C       0.5404   0.5187   0.0673     C
Ca      0.5436  0.43975  0.20367    Ca
C       0.5466   0.2192   0.2753     C
O      0.54967  0.00732   0.6132     O
H       0.5504   0.3216   0.2845     H
H       0.5514   0.2738   0.7625     H
C       0.5523   0.6618   0.2448     C
C       0.5542   0.4811   0.4383     C
C       0.5553   0.0905   0.2558     C
C       0.5557   0.4935   0.9403     C
Cd     0.55767  0.02568  0.74169    Cd
O      0.56286  0.14584  0.75113     O
H       0.5677   0.5314   0.1126     H
C       0.5686  0.78201   0.2519     C
O      0.57387  0.49018  0.82018     O
H       0.5748   0.9726    0.476     H
C       0.5764   0.4914   0.6329     C
O       0.5776   0.8967  0.24429     O
C       0.5861   0.2807   0.2718     C
H       0.5909   0.4684   0.3969     H
C       0.5913   0.4768   0.5011     C
C       0.5961   0.5122   0.0082     C
O       0.5988  0.03413  0.22632     O
C       0.5989   0.1579   0.2563     C
O       0.6029  0.04336  0.85631     O
H        0.614   0.0403   0.9847     H
C       0.6162    0.488   0.8768     C
C       0.6367   0.0059  0.60926     C
C       0.6376   0.9859   0.4778     C
O       0.6447  0.53466  0.23038     O
C       0.6488  0.65764   0.2548     C
H       0.6499   0.9717   0.3722     H
O       0.6515  0.45776  0.63039     O
H       0.6526   0.4611   0.5017     H
H       0.6604   0.5205   0.0138     H
C        0.664   0.7785   0.2637     C
O       0.6684  0.39907  0.25257     O
C       0.6766   0.0265   0.9827     C
C       0.6776   0.0089   0.8511     C
C       0.6784  0.28136   0.2496     C
C       0.6824   0.9861   0.4156     C
C       0.6858   0.0052   0.5421     C
H       0.6876   0.0369   0.0869     H
O      0.68777  0.00711  0.66236     O
C        0.692   0.1591   0.2362     C
C        0.692  0.58965   0.2518     C
O       0.6933  0.34799  0.72988     O
Ca     0.69711  0.93867  0.19041    Ca
Cd     0.69916   0.4688  0.74323    Cd
H       0.7017   0.8178   0.2704     H
O       0.7023  0.48226  0.87876     O
C       0.7037   0.7168   0.2654     C
H       0.7061   0.2201   0.7192     H
O        0.715   0.9748  0.79206     O
C       0.7209   0.0248   0.0439     C
C       0.7211  0.34616    0.243     C
O       0.7231  0.58835  0.76958     O
C       0.7252   0.0076   0.9179     C
H       0.7282   0.1185   0.2249     H
C       0.7313     0.22   0.2328     C
H       0.7322   0.7151   0.7739     H
H       0.7678   0.7151   0.2739     H
C       0.7687     0.22   0.7328     C
H       0.7718   0.1185   0.7249     H
C       0.7748   0.0076   0.4179     C
O       0.7769  0.58835  0.26958     O
C       0.7789  0.34616    0.743     C
C       0.7791   0.0248   0.5439     C
O        0.785   0.9748  0.29206     O
H       0.7939   0.2201   0.2192     H
C       0.7963   0.7168   0.7654     C
O       0.7977  0.48226  0.37876     O
H       0.7983   0.8178   0.7704     H
Cd     0.80084   0.4688  0.24323    Cd
Ca     0.80289  0.93867  0.69041    Ca
O       0.8067  0.34799  0.22988     O
C        0.808   0.1591   0.7362     C
C        0.808  0.58965   0.7518     C
O      0.81223  0.00711  0.16236     O
H       0.8124   0.0369   0.5869     H
C       0.8142   0.0052   0.0421     C
C       0.8176   0.9861   0.9156     C
C       0.8216  0.28136   0.7496     C
C       0.8224   0.0089   0.3511     C
C       0.8234   0.0265   0.4827     C
O       0.8316  0.39907  0.75257     O
C        0.836   0.7785   0.7637     C
H       0.8396   0.5205   0.5138     H
H       0.8474   0.4611   0.0017     H
O       0.8485  0.45776  0.13039     O
H       0.8501   0.9717   0.8722     H
C       0.8512  0.65764   0.7548     C
O       0.8553  0.53466  0.73038     O
C       0.8624   0.9859   0.9778     C
C       0.8633   0.0059  0.10926     C
C       0.8838    0.488   0.3768     C
H        0.886   0.0403   0.4847     H
O       0.8971  0.04336  0.35631     O
C       0.9011   0.1579   0.7563     C
O       0.9012  0.03413  0.72632     O
C       0.9039   0.5122   0.5082     C
C       0.9087   0.4768   0.0011     C
H       0.9091   0.4684   0.8969     H
C       0.9139   0.2807   0.7718     C
O       0.9224   0.8967  0.74429     O
C       0.9236   0.4914   0.1329     C
H       0.9252   0.9726    0.976     H
O      0.92613  0.49018  0.32018     O
C       0.9314  0.78201   0.7519     C
H       0.9323   0.5314   0.6126     H
O      0.93714  0.14584  0.25113     O
Cd     0.94233  0.02568  0.24169    Cd
C       0.9443   0.4935   0.4403     C
C       0.9447   0.0905   0.7558     C
C       0.9458   0.4811   0.9383     C
C       0.9477   0.6618   0.7448     C
H       0.9486   0.2738   0.2625     H
H       0.9496   0.3216   0.7845     H
O      0.95033  0.00732   0.1132     O
C       0.9534   0.2192   0.7753     C
Ca      0.9564  0.43975  0.70367    Ca
C       0.9596   0.5187   0.5673     C
C        0.963   0.4958   0.0636     C
O       0.9669   0.5222  0.18906     O
C       0.9755  0.84785   0.7477     C
O       0.9758  0.90862  0.21722     O
H       0.9847   0.7807   0.2095     H
H       0.9858   0.6229   0.7389     H
C       0.9869   0.7237   0.7438     C
