data_I
_chemical_name_common  '/home/zhangsd/repos/MofS-CGCNN/ML/data/TSD/clean_cifs/MOLRIP_clean'
_cell_length_a 14.56500
_cell_length_b 14.56500
_cell_length_c 18.04500
_cell_angle_alpha 69.83470
_cell_angle_beta  69.83470
_cell_angle_gamma 87.86640
_space_group_name_H-M_alt      'P 1'


loop_
_space_group_symop_operation_xyz
  'x, y, z' 

loop_
_atom_site_label
_atom_site_fract_x
_atom_site_fract_y
_atom_site_fract_z
_atom_site_type_symbol
C       0.0027   0.3361   0.5382     C
O       0.0032   0.4434   0.2265     O
Co     0.00445  0.70979  0.74399    Co
O       0.0069   0.7491   0.1689     O
C       0.0077   0.1775   0.4185     C
O       0.0098    0.158   0.2225     O
O       0.0112    0.103   0.8282     O
C       0.0149   0.2723   0.6201     C
H        0.021   0.0948   0.5297     H
C       0.0214   0.8386   0.1355     C
C       0.0234   0.8852   0.4981     C
Eu     0.02444  0.97556     0.25    Eu
N       0.0252    0.533   0.6054     N
O       0.0335   0.8095   0.3407     O
C       0.0401   0.1763   0.1422     C
O       0.0489   0.1113   0.1125     O
C       0.0512   0.4958    0.151     C
N       0.0513   0.3423   0.1296     N
N       0.0551   0.7947   0.6214     N
Eu     0.05624  0.40698    0.733    Eu
C       0.0629   0.4669   0.4043     C
C       0.0659   0.2833   0.0864     C
O       0.0703   0.3115   0.6426     O
O       0.0725   0.5833   0.1247     O
C        0.077   0.4388   0.0894     C
C       0.0791   0.4033   0.4742     C
C       0.0828   0.8776    0.043     C
C       0.0867   0.6667   0.4721     C
H       0.0902   0.7456   0.0252     H
H       0.0948    0.021   0.0297     H
C       0.0985   0.5993   0.5444     C
C       0.1008   0.3172   0.9982     C
O        0.103   0.0112   0.3282     O
H       0.1058   0.2746   0.9689     H
O       0.1061   0.6013   0.2754     O
O       0.1113   0.0489   0.6125     O
C       0.1116   0.2234   0.3643     C
C       0.1117   0.8121    0.999     C
C       0.1148   0.9766   0.0019     C
C       0.1177   0.4805   0.0026     C
O        0.121   0.2824   0.2896     O
C       0.1224   0.9172    0.457     C
C       0.1281   0.4181   0.9559     C
H       0.1377   0.5473   0.9758     H
H       0.1381   0.7125   0.4316     H
C       0.1383   0.5453   0.3327     C
O       0.1397   0.4149   0.8237     O
H       0.1407   0.4049   0.4788     H
C       0.1505   0.8279   0.5833     C
O        0.158   0.0098   0.7225     O
C       0.1614   0.9786   0.3645     C
O       0.1621   0.7207   0.7135     O
C       0.1656   0.4614   0.8603     C
C       0.1721   0.8495   0.9167     C
C       0.1763   0.0401   0.6422     C
O       0.1764   0.2062   0.3935     O
C       0.1775   0.0077   0.9185     C
O       0.1797   0.7067   0.8795     O
C       0.1879   0.8883    0.501     C
O       0.1905   0.9665   0.1593     O
O       0.1932   0.5186   0.6283     O
C       0.1943   0.5891   0.5607     C
N       0.2053   0.9449   0.8786     N
O       0.2062   0.1764   0.8935     O
C        0.207   0.7884   0.6417     C
C       0.2116    0.793   0.8583     C
O       0.2214   0.5368   0.8255     O
O        0.222   0.5522   0.3336     O
C       0.2234   0.1116   0.8643     C
O       0.2509   0.9931   0.3311     O
H       0.2544   0.9098   0.4748     H
O       0.2664   0.6462   0.5116     O
C       0.2723   0.0149   0.1201     C
H       0.2746   0.1058   0.4689     H
O       0.2793   0.8379   0.7865     O
O       0.2824    0.121   0.7896     O
C       0.2833   0.0659   0.5864     C
H       0.2875   0.8619   0.0684     H
Co     0.29021  0.99555  0.75601    Co
O       0.2933   0.8203   0.6205     O
O       0.3115   0.0703   0.1426     O
Eu     0.31333  0.68667     0.75    Eu
C       0.3172   0.1008   0.4982     C
C       0.3333   0.9133   0.0279     C
Co      0.3338   0.6662     0.25    Co
C       0.3361   0.0027   0.0382     C
N       0.3423   0.0513   0.6296     N
O       0.3538   0.7336   0.9884     O
O       0.3987   0.8939   0.2246     O
C       0.4007   0.9015   0.9556     C
C       0.4033   0.0791   0.9742     C
H       0.4049   0.1407   0.9788     H
Eu     0.40698  0.05624    0.233    Eu
C       0.4109   0.8057   0.9393     C
O       0.4149   0.1397   0.3237     O
O       0.4167   0.9275   0.3753     O
C       0.4181   0.1281   0.4559     C
C       0.4388    0.077   0.5894     C
O       0.4434   0.0032   0.7265     O
O       0.4478    0.778   0.1664     O
H       0.4527   0.8623   0.5242     H
C       0.4547   0.8617   0.1673     C
C       0.4614   0.1656   0.3603     C
O       0.4632   0.7786   0.6745     O
C       0.4669   0.0629   0.9043     C
N        0.467   0.9748   0.8946     N
C       0.4805   0.1177   0.5026     C
O       0.4814   0.8068   0.8717     O
C       0.4958   0.0512    0.651     C
C       0.5042   0.9488    0.349     C
O       0.5186   0.1932   0.1283     O
C       0.5195   0.8823   0.4974     C
N        0.533   0.0252   0.1054     N
C       0.5331   0.9371   0.0957     C
O       0.5368   0.2214   0.3255     O
C       0.5386   0.8344   0.6397     C
C       0.5453   0.1383   0.8327     C
H       0.5473   0.1377   0.4758     H
O       0.5522    0.222   0.8336     O
O       0.5566   0.9968   0.2735     O
C       0.5612    0.923   0.4106     C
C       0.5819   0.8719   0.5441     C
O       0.5833   0.0725   0.6247     O
O       0.5851   0.8603   0.6763     O
C       0.5891   0.1943   0.0607     C
Eu     0.59302  0.94376    0.767    Eu
H       0.5951   0.8593   0.0212     H
C       0.5967   0.9209   0.0258     C
C       0.5993   0.0985   0.0444     C
O       0.6013   0.1061   0.7754     O
O       0.6462   0.2664   0.0116     O
N       0.6577   0.9487   0.3704     N
C       0.6639   0.9973   0.9618     C
Co      0.6662   0.3338     0.75    Co
C       0.6667   0.0867   0.9721     C
C       0.6828   0.8992   0.5018     C
Eu     0.68667  0.31333     0.25    Eu
O       0.6885   0.9297   0.8574     O
O       0.7067   0.1797   0.3795     O
Co     0.70979  0.00445  0.24399    Co
H       0.7125   0.1381   0.9316     H
C       0.7167   0.9341   0.4136     C
O       0.7176    0.879   0.2104     O
O       0.7207   0.1621   0.2135     O
H       0.7254   0.8942   0.5311     H
C       0.7277   0.9851   0.8799     C
O       0.7336   0.3538   0.4884     O
H       0.7456   0.0902   0.5252     H
O       0.7491   0.0069   0.6689     O
C       0.7766   0.8884   0.1357     C
O        0.778   0.4478   0.6664     O
O       0.7786   0.4632   0.1745     O
C       0.7884    0.207   0.1417     C
C        0.793   0.2116   0.3583     C
O       0.7938   0.8236   0.1065     O
N       0.7947   0.0551   0.1214     N
C       0.8057   0.4109   0.4393     C
O       0.8068   0.4814   0.3717     O
O       0.8095   0.0335   0.8407     O
C       0.8121   0.1117    0.499     C
O       0.8203   0.2933   0.1205     O
C       0.8225   0.9923   0.0815     C
O       0.8236   0.7938   0.6065     O
C       0.8237   0.9599   0.3578     C
C       0.8279   0.1505   0.0833     C
C       0.8344   0.5386   0.1397     C
O       0.8379   0.2793   0.2865     O
C       0.8386   0.0214   0.6355     C
O        0.842   0.9902   0.2775     O
C       0.8495   0.1721   0.4167     C
H       0.8593   0.5951   0.5212     H
O       0.8603   0.5851   0.1763     O
C       0.8617   0.4547   0.6673     C
H       0.8619   0.2875   0.5684     H
H       0.8623   0.4527   0.0242     H
C       0.8719   0.5819   0.0441     C
C       0.8776   0.0828    0.543     C
O        0.879   0.7176   0.7104     O
C       0.8823   0.5195   0.9974     C
C       0.8852   0.0234   0.9981     C
C       0.8883   0.1879    0.001     C
C       0.8884   0.7766   0.6357     C
O       0.8887   0.9511   0.3875     O
O       0.8939   0.3987   0.7246     O
H       0.8942   0.7254   0.0311     H
O        0.897   0.9888   0.6718     O
C       0.8992   0.6828   0.0018     C
C       0.9015   0.4007   0.4556     C
H       0.9052    0.979   0.9703     H
H       0.9098   0.2544   0.9748     H
C       0.9133   0.3333   0.5279     C
C       0.9172   0.1224    0.957     C
C       0.9209   0.5967   0.5258     C
C        0.923   0.5612   0.9106     C
O       0.9275   0.4167   0.8753     O
O       0.9297   0.6885   0.3574     O
C       0.9341   0.7167   0.9136     C
C       0.9371   0.5331   0.5957     C
Eu     0.94376  0.59302    0.267    Eu
N       0.9449   0.2053   0.3786     N
N       0.9487   0.6577   0.8704     N
C       0.9488   0.5042    0.849     C
O       0.9511   0.8887   0.8875     O
C       0.9599   0.8237   0.8578     C
O       0.9665   0.1905   0.6593     O
N       0.9748    0.467   0.3946     N
Eu     0.97556  0.02444     0.75    Eu
C       0.9766   0.1148   0.5019     C
C       0.9786   0.1614   0.8645     C
H        0.979   0.9052   0.4703     H
C       0.9851   0.7277   0.3799     C
O       0.9888    0.897   0.1718     O
O       0.9902    0.842   0.7775     O
C       0.9923   0.8225   0.5815     C
O       0.9931   0.2509   0.8311     O
Co     0.99555  0.29021  0.25601    Co
O       0.9968   0.5566   0.7735     O
C       0.9973   0.6639   0.4618     C
