data_I
_chemical_name_common  '/home/zhangsd/repos/MofS-CGCNN/ML/data/TSD/clean_cifs/MOYMET_clean'
_cell_length_a  8.05760
_cell_length_b 22.11380
_cell_length_c 22.11380
_cell_angle_alpha 90.00000
_cell_angle_beta  90.00000
_cell_angle_gamma 90.00000
_space_group_name_H-M_alt      'P 1'


loop_
_space_group_symop_operation_xyz
  'x, y, z' 

loop_
_atom_site_label
_atom_site_fract_x
_atom_site_fract_y
_atom_site_fract_z
_atom_site_type_symbol
H       0.0004    0.169    0.415     H
H       0.0004    0.831    0.585     H
O      0.00779  0.21698    0.228     O
O      0.00779  0.78302    0.772     O
H       0.0078   0.1736   0.2342     H
H       0.0078   0.2226   0.1845     H
H       0.0078   0.7774   0.8155     H
H       0.0078   0.8264   0.7658     H
H       0.0108   0.4036   0.1768     H
H       0.0108   0.5964   0.8232     H
C      0.03363  0.49434  0.16582     C
C      0.03363  0.50566  0.83418     C
C      0.03968  0.18616  0.55974     C
C      0.03968  0.81384  0.44026     C
C      0.04604  0.18148  0.45158     C
C      0.04604  0.81852  0.54842     C
H        0.063   0.0304   0.6501     H
H        0.063   0.9696   0.3499     H
O      0.07862  0.25016   0.8933     O
O      0.07862  0.74984   0.1067     O
H       0.0877   0.4683   0.0496     H
H       0.0877   0.5317   0.9504     H
O       0.0956  0.23739  0.11778     O
O       0.0956  0.76261  0.88222     O
H        0.138   0.2436   0.0056     H
H        0.138   0.7564   0.9944     H
H       0.1452   0.4124   0.0877     H
H       0.1452   0.5876   0.9123     H
H       0.1482   0.0521   0.4132     H
H       0.1482   0.9479   0.5868     H
H        0.165   0.4287   0.9183     H
H        0.165   0.5713   0.0817     H
H       0.1652   0.0126   0.7078     H
H       0.1652   0.9874   0.2922     H
C       0.1683  0.03406  0.67005     C
C       0.1683  0.96594  0.32995     C
C       0.1742  0.45245  0.07487     C
C       0.1742  0.54755  0.92513     C
O       0.1745   0.2353  0.66645     O
O       0.1745   0.7647  0.33355     O
C       0.1855  0.21986  0.55999     C
C       0.1855  0.78014  0.44001     C
O       0.1888  0.22608  0.34441     O
O       0.1888  0.77392  0.65559     O
H       0.1916    0.076   0.6775     H
H       0.1916    0.924   0.3225     H
C      0.19272  0.21548  0.45116     C
C      0.19272  0.78452  0.54884     C
C      0.19557  0.49275  0.12979     C
C      0.19557  0.50725  0.87021     C
H       0.2237   0.0489   0.5525     H
H       0.2237   0.9511   0.4475     H
C      0.22466  0.26832  0.89235     C
C      0.22466  0.73168  0.10765     C
C      0.23635  0.26562  0.00563     C
C      0.23635  0.73438  0.99437     C
H       0.2383   0.0814   0.3576     H
H       0.2383   0.9186   0.6424     H
C      0.23874  0.25912  0.11848     C
C      0.23874  0.74088  0.88152     C
Co     0.24233   0.2552  0.75537    Co
Co     0.24233   0.7448  0.24464    Co
C       0.2484  0.44486   0.8918     C
C       0.2484  0.55514   0.1082     C
C       0.2516  0.05514   0.3918     C
C       0.2516  0.94486   0.6082     C
Co     0.25767   0.2448  0.25537    Co
Co     0.25767   0.7552  0.74463    Co
C      0.26126  0.24088  0.61848     C
C      0.26126  0.75912  0.38152     C
H       0.2617   0.4186   0.8576     H
H       0.2617   0.5814   0.1424     H
C      0.26365  0.23438  0.50563     C
C      0.26365  0.76562  0.49437     C
C      0.27534  0.23168  0.39235     C
C      0.27534  0.76832  0.60765     C
H       0.2763   0.4511   0.0525     H
H       0.2763   0.5489   0.9475     H
C      0.30443  0.00725  0.62979     C
C      0.30443  0.99275  0.37021     C
C      0.30728  0.28452  0.95116     C
C      0.30728  0.71548  0.04884     C
H       0.3084    0.424   0.1775     H
H       0.3084    0.576   0.8225     H
O       0.3112  0.27392  0.84441     O
O       0.3112  0.72608  0.15559     O
C       0.3145  0.28014  0.05999     C
C       0.3145  0.71986  0.94001     C
O       0.3255   0.2647  0.16645     O
O       0.3255   0.7353  0.83355     O
C       0.3258  0.04755  0.57487     C
C       0.3258  0.95245  0.42513     C
C       0.3317  0.46594  0.17005     C
C       0.3317  0.53406  0.82995     C
H       0.3348   0.4874   0.2078     H
H       0.3348   0.5126   0.7922     H
H        0.335   0.0713   0.4183     H
H        0.335   0.9287   0.5817     H
H       0.3518   0.4479   0.9132     H
H       0.3518   0.5521   0.0868     H
H       0.3548   0.0876   0.5877     H
H       0.3548   0.9124   0.4123     H
H        0.362   0.2564   0.5056     H
H        0.362   0.7436   0.4944     H
O       0.4044  0.26261  0.61778     O
O       0.4044  0.73739  0.38222     O
H       0.4123   0.0317   0.5496     H
H       0.4123   0.9683   0.4504     H
O      0.42138  0.24984   0.3933     O
O      0.42138  0.75016   0.6067     O
H        0.437   0.4696   0.1501     H
H        0.437   0.5304   0.8499     H
C      0.45396  0.31852  0.95158     C
C      0.45396  0.68148  0.04842     C
C      0.46032  0.31384  0.05974     C
C      0.46032  0.68616  0.94026     C
C      0.46637  0.00566  0.66582     C
C      0.46637  0.99434  0.33418     C
H       0.4892   0.0964   0.6768     H
H       0.4892   0.9036   0.3232     H
H       0.4922   0.2774   0.6845     H
H       0.4922   0.3264   0.7342     H
H       0.4922   0.6736   0.2658     H
H       0.4922   0.7226   0.3155     H
O      0.49221  0.28302    0.728     O
O      0.49221  0.71698    0.272     O
H       0.4996    0.331    0.915     H
H       0.4996    0.669    0.085     H
H       0.5004    0.085    0.331     H
H       0.5004    0.915    0.669     H
O      0.50779    0.272  0.28302     O
O      0.50779    0.728  0.71698     O
H       0.5078   0.2658   0.3264     H
H       0.5078   0.3155   0.2774     H
H       0.5078   0.6845   0.7226     H
H       0.5078   0.7342   0.6736     H
H       0.5108   0.3232   0.0964     H
H       0.5108   0.6768   0.9036     H
C      0.53363  0.33418  0.00566     C
C      0.53363  0.66582  0.99434     C
C      0.53968  0.05974  0.68616     C
C      0.53968  0.94026  0.31384     C
C      0.54604  0.04842  0.31852     C
C      0.54604  0.95158  0.68148     C
H        0.563   0.1501   0.5304     H
H        0.563   0.8499   0.4696     H
O      0.57862   0.3933  0.75016     O
O      0.57862   0.6067  0.24984     O
H       0.5877   0.4504   0.0317     H
H       0.5877   0.5496   0.9683     H
O       0.5956  0.38222  0.26261     O
O       0.5956  0.61778  0.73739     O
H        0.638   0.4944   0.2564     H
H        0.638   0.5056   0.7436     H
H       0.6452   0.4123   0.0876     H
H       0.6452   0.5877   0.9124     H
H       0.6482   0.0868   0.4479     H
H       0.6482   0.9132   0.5521     H
H        0.665   0.4183   0.9287     H
H        0.665   0.5817   0.0713     H
H       0.6652   0.2078   0.5126     H
H       0.6652   0.7922   0.4874     H
C       0.6683  0.17005  0.53406     C
C       0.6683  0.82995  0.46594     C
C       0.6742  0.42513  0.04755     C
C       0.6742  0.57487  0.95245     C
O       0.6745  0.16645   0.7353     O
O       0.6745  0.83355   0.2647     O
C       0.6855  0.05999  0.71986     C
C       0.6855  0.94001  0.28014     C
O       0.6888  0.15559  0.27392     O
O       0.6888  0.84441  0.72608     O
H       0.6916   0.1775    0.576     H
H       0.6916   0.8225    0.424     H
C      0.69272  0.04884  0.28452     C
C      0.69272  0.95116  0.71548     C
C      0.69557  0.37021  0.00725     C
C      0.69557  0.62979  0.99275     C
H       0.7237   0.0525   0.5489     H
H       0.7237   0.9475   0.4511     H
C      0.72466  0.39235  0.76832     C
C      0.72466  0.60765  0.23168     C
C      0.73635  0.49437  0.23438     C
C      0.73635  0.50563  0.76562     C
H       0.7383   0.1424   0.4186     H
H       0.7383   0.8576   0.5814     H
C      0.73874  0.38152  0.24088     C
C      0.73874  0.61848  0.75912     C
Co     0.74233  0.25537   0.7552    Co
Co     0.74233  0.74463   0.2448    Co
C       0.7484   0.3918  0.94486     C
C       0.7484   0.6082  0.05514     C
C       0.7516   0.1082  0.44486     C
C       0.7516   0.8918  0.55514     C
Co     0.75767  0.24464   0.2552    Co
Co     0.75767  0.75537   0.7448    Co
C      0.76126  0.11848  0.74088     C
C      0.76126  0.88152  0.25912     C
H       0.7617   0.3576   0.9186     H
H       0.7617   0.6424   0.0814     H
C      0.76365  0.00563  0.73438     C
C      0.76365  0.99437  0.26562     C
C      0.77534  0.10765  0.26832     C
C      0.77534  0.89235  0.73168     C
H       0.7763   0.4475   0.0489     H
H       0.7763   0.5525   0.9511     H
C      0.80443  0.12979  0.50725     C
C      0.80443  0.87021  0.49275     C
C      0.80728  0.45116  0.78452     C
C      0.80728  0.54884  0.21548     C
H       0.8084   0.3225    0.076     H
H       0.8084   0.6775    0.924     H
O       0.8112  0.34441  0.77392     O
O       0.8112  0.65559  0.22608     O
C       0.8145  0.44001  0.21986     C
C       0.8145  0.55999  0.78014     C
O       0.8255  0.33355   0.2353     O
O       0.8255  0.66645   0.7647     O
C       0.8258  0.07487  0.54755     C
C       0.8258  0.92513  0.45245     C
C       0.8317  0.32995  0.03406     C
C       0.8317  0.67005  0.96594     C
H       0.8348   0.2922   0.0126     H
H       0.8348   0.7078   0.9874     H
H        0.835   0.0817   0.4287     H
H        0.835   0.9183   0.5713     H
H       0.8518   0.4132   0.9479     H
H       0.8518   0.5868   0.0521     H
H       0.8548   0.0877   0.5876     H
H       0.8548   0.9123   0.4124     H
H        0.862   0.0056   0.7564     H
H        0.862   0.9944   0.2436     H
O       0.9044  0.11778  0.76261     O
O       0.9044  0.88222  0.23739     O
H       0.9123   0.0496   0.5317     H
H       0.9123   0.9504   0.4683     H
O      0.92138   0.1067  0.25016     O
O      0.92138   0.8933  0.74984     O
H        0.937   0.3499   0.0304     H
H        0.937   0.6501   0.9696     H
C      0.95396  0.45158  0.81852     C
C      0.95396  0.54842  0.18148     C
C      0.96032  0.44026  0.18616     C
C      0.96032  0.55974  0.81384     C
C      0.96637  0.16582  0.50566     C
C      0.96637  0.83418  0.49434     C
H       0.9892   0.1768   0.5964     H
H       0.9892   0.8232   0.4036     H
H       0.9922   0.1845   0.7774     H
H       0.9922   0.2342   0.8264     H
H       0.9922   0.7658   0.1736     H
H       0.9922   0.8155   0.2226     H
O      0.99221    0.228  0.78302     O
O      0.99221    0.772  0.21698     O
H       0.9996    0.415    0.831     H
H       0.9996    0.585    0.169     H
