data_I
_chemical_name_common  '/home/zhangsd/repos/MofS-CGCNN/ML/data/TSD/clean_cifs/MUGHED_clean'
_cell_length_a 17.92700
_cell_length_b 12.86900
_cell_length_c 11.05500
_cell_angle_alpha 90.00000
_cell_angle_beta  93.14000
_cell_angle_gamma 90.00000
_space_group_name_H-M_alt      'P 1'


loop_
_space_group_symop_operation_xyz
  'x, y, z' 

loop_
_atom_site_label
_atom_site_fract_x
_atom_site_fract_y
_atom_site_fract_z
_atom_site_type_symbol
Zn         0.0  0.39814     0.25    Zn
Zn         0.0  0.60186     0.75    Zn
O       0.0172   0.4146   0.4349     O
O       0.0172   0.5854   0.9349     O
H        0.038     0.36    0.467     H
H        0.038     0.64    0.967     H
Zn     0.08077  0.44815  0.00106    Zn
Zn     0.08077  0.55185  0.50106    Zn
O      0.08211   0.2877    0.239     O
O      0.08211   0.7123    0.739     O
N      0.09047   0.4824   0.7461     N
N      0.09047   0.5176   0.2461     N
N      0.12593   0.4687   0.6444     N
N      0.12593   0.5313   0.1444     N
N      0.12728   0.4352   0.8389     N
N      0.12728   0.5648   0.3389     N
C       0.1349   0.2744   0.1703     C
C       0.1349   0.7256   0.6703     C
O      0.14022    0.313   0.0669     O
O      0.14022    0.687   0.5669     O
H       0.1634   0.2078   0.3936     H
H       0.1634   0.7922   0.8936     H
C       0.1875   0.4101   0.6715     C
C       0.1875   0.5899   0.1715     C
C       0.1889   0.3884   0.7953     C
C       0.1889   0.6116   0.2953     C
C       0.1988    0.207    0.221     C
C       0.1988    0.793    0.721     C
C       0.2012   0.1831    0.347     C
C       0.2012   0.8169    0.847     C
H       0.2421     0.39   0.5167     H
H       0.2421     0.61   0.0167     H
C       0.2431   0.3747    0.599     C
C       0.2431   0.6253    0.099     C
C       0.2472   0.3292   0.8522     C
C       0.2472   0.6708   0.3522     C
H       0.2491   0.3154   0.9348     H
H       0.2491   0.6846   0.4348     H
H       0.2509   0.1846   0.0652     H
H       0.2509   0.8154   0.5652     H
C       0.2528   0.1708   0.1478     C
C       0.2528   0.8292   0.6478     C
C       0.2569   0.1253    0.401     C
C       0.2569   0.8747    0.901     C
H       0.2579     0.11   0.4833     H
H       0.2579     0.89   0.9833     H
C       0.2988   0.3169    0.653     C
C       0.2988   0.6831    0.153     C
C       0.3012    0.293    0.779     C
C       0.3012    0.707    0.279     C
C       0.3111   0.1116   0.2047     C
C       0.3111   0.8884   0.7047     C
C       0.3125   0.0899   0.3285     C
C       0.3125   0.9101   0.8285     C
H       0.3366   0.2922   0.6064     H
H       0.3366   0.7078   0.1064     H
O      0.35978    0.187   0.9331     O
O      0.35978    0.813   0.4331     O
C       0.3651   0.2256   0.8297     C
C       0.3651   0.7744   0.3297     C
N      0.37272   0.0648   0.1611     N
N      0.37272   0.9352   0.6611     N
N      0.37407   0.0313   0.3556     N
N      0.37407   0.9687   0.8556     N
N      0.40953   0.0176   0.2539     N
N      0.40953   0.9824   0.7539     N
O      0.41789   0.2123    0.761     O
O      0.41789   0.7877    0.261     O
Zn     0.41923  0.05185  0.99894    Zn
Zn     0.41923  0.94815  0.49894    Zn
H        0.462     0.14    0.533     H
H        0.462     0.86    0.033     H
O       0.4828   0.0854   0.5651     O
O       0.4828   0.9146   0.0651     O
Zn         0.5  0.10186     0.75    Zn
Zn         0.5  0.89814     0.25    Zn
O       0.5172   0.0854   0.9349     O
O       0.5172   0.9146   0.4349     O
H        0.538     0.14    0.967     H
H        0.538     0.86    0.467     H
Zn     0.58077  0.05185  0.50106    Zn
Zn     0.58077  0.94815  0.00106    Zn
O      0.58211   0.2123    0.739     O
O      0.58211   0.7877    0.239     O
N      0.59047   0.0176   0.2461     N
N      0.59047   0.9824   0.7461     N
N      0.62593   0.0313   0.1444     N
N      0.62593   0.9687   0.6444     N
N      0.62728   0.0648   0.3389     N
N      0.62728   0.9352   0.8389     N
C       0.6349   0.2256   0.6703     C
C       0.6349   0.7744   0.1703     C
O      0.64022    0.187   0.5669     O
O      0.64022    0.813   0.0669     O
H       0.6634   0.2922   0.8936     H
H       0.6634   0.7078   0.3936     H
C       0.6875   0.0899   0.1715     C
C       0.6875   0.9101   0.6715     C
C       0.6889   0.1116   0.2953     C
C       0.6889   0.8884   0.7953     C
C       0.6988    0.293    0.721     C
C       0.6988    0.707    0.221     C
C       0.7012   0.3169    0.847     C
C       0.7012   0.6831    0.347     C
H       0.7421     0.11   0.0167     H
H       0.7421     0.89   0.5167     H
C       0.7431   0.1253    0.099     C
C       0.7431   0.8747    0.599     C
C       0.7472   0.1708   0.3522     C
C       0.7472   0.8292   0.8522     C
H       0.7491   0.1846   0.4348     H
H       0.7491   0.8154   0.9348     H
H       0.7509   0.3154   0.5652     H
H       0.7509   0.6846   0.0652     H
C       0.7528   0.3292   0.6478     C
C       0.7528   0.6708   0.1478     C
C       0.7569   0.3747    0.901     C
C       0.7569   0.6253    0.401     C
H       0.7579     0.39   0.9833     H
H       0.7579     0.61   0.4833     H
C       0.7988   0.1831    0.153     C
C       0.7988   0.8169    0.653     C
C       0.8012    0.207    0.279     C
C       0.8012    0.793    0.779     C
C       0.8111   0.3884   0.7047     C
C       0.8111   0.6116   0.2047     C
C       0.8125   0.4101   0.8285     C
C       0.8125   0.5899   0.3285     C
H       0.8366   0.2078   0.1064     H
H       0.8366   0.7922   0.6064     H
O      0.85978    0.313   0.4331     O
O      0.85978    0.687   0.9331     O
C       0.8651   0.2744   0.3297     C
C       0.8651   0.7256   0.8297     C
N      0.87272   0.4352   0.6611     N
N      0.87272   0.5648   0.1611     N
N      0.87407   0.4687   0.8556     N
N      0.87407   0.5313   0.3556     N
N      0.90953   0.4824   0.7539     N
N      0.90953   0.5176   0.2539     N
O      0.91789   0.2877    0.261     O
O      0.91789   0.7123    0.761     O
Zn     0.91923  0.44815  0.49894    Zn
Zn     0.91923  0.55185  0.99894    Zn
H        0.962     0.36    0.033     H
H        0.962     0.64    0.533     H
O       0.9828   0.4146   0.0651     O
O       0.9828   0.5854   0.5651     O
