data_I
_chemical_name_common  '/home/zhangsd/repos/MofS-CGCNN/ML/data/TSD/clean_cifs/MUGQAI_clean'
_cell_length_a 14.69780
_cell_length_b 19.39330
_cell_length_c 10.35600
_cell_angle_alpha 90.00000
_cell_angle_beta  90.00000
_cell_angle_gamma 90.00000
_space_group_name_H-M_alt      'P 1'


loop_
_space_group_symop_operation_xyz
  'x, y, z' 

loop_
_atom_site_label
_atom_site_fract_x
_atom_site_fract_y
_atom_site_fract_z
_atom_site_type_symbol
Cu         0.0  0.00941     0.75    Cu
Cu         0.0  0.26499     0.25    Cu
Cu         0.0  0.73501     0.75    Cu
Cu         0.0  0.99059     0.25    Cu
N       0.0033  0.19355      0.1     N
N       0.0033  0.80645      0.6     N
N       0.0097  0.12976   0.9178     N
N       0.0097  0.87024   0.4178     N
C       0.0408   0.1851   0.9822     C
C       0.0408   0.8149   0.4822     C
C       0.0514   0.1049   0.4978     C
C       0.0514   0.8951   0.9978     C
N       0.0577  0.14023   0.3883     N
N       0.0577  0.85977   0.8883     N
N       0.0935  0.00304   0.6251     N
N       0.0935  0.99696   0.1251     N
N       0.0947  0.33589   0.3296     N
N       0.0947  0.66411   0.8296     N
H       0.1037   0.4045   0.1913     H
H       0.1037   0.5955   0.6913     H
H       0.1038    0.286   0.4921     H
H       0.1038    0.714   0.9921     H
C       0.1066   0.0431   0.5229     C
C       0.1066   0.9569   0.0229     C
C       0.1086   0.2319   0.9263     C
C       0.1086   0.7681   0.4263     C
H       0.1089   0.3053   0.0633     H
H       0.1089   0.6947   0.5633     H
C        0.126   0.3243   0.4481     C
C        0.126   0.6757   0.9481     C
C       0.1271   0.3929   0.2719     C
C       0.1271   0.6071   0.7719     C
H       0.1346   0.1749   0.7665     H
H       0.1346   0.8251   0.2665     H
C       0.1349   0.2923   0.9852     C
C       0.1349   0.7077   0.4852     C
C       0.1505    0.215   0.8104     C
C       0.1505    0.785   0.3104     C
Cu     0.15448  0.11785  0.25452    Cu
Cu     0.15448  0.88215  0.75452    Cu
N       0.1558  0.04998   0.1134     N
N       0.1558  0.95002   0.6134     N
N       0.1724  0.02242   0.4449     N
N       0.1724  0.97758   0.9449     N
C       0.1894   0.3653   0.5104     C
C       0.1894   0.6347   0.0104     C
C        0.193   0.4353   0.3247     C
C        0.193   0.5647   0.8247     C
C       0.2005   0.3339   0.9278     C
C       0.2005   0.6661   0.4278     C
C       0.2008   0.0358   0.0036     C
C       0.2008   0.9642   0.5036     C
H        0.207   0.3553   0.5946     H
H        0.207   0.6447   0.0946     H
H       0.2145    0.473   0.2783     H
H       0.2145    0.527   0.7783     H
C        0.216   0.2587   0.7614     C
C        0.216   0.7413   0.2614     C
H       0.2161    0.375   0.9683     H
H       0.2161    0.625   0.4683     H
C       0.2266   0.4216   0.4465     C
C       0.2266   0.5784   0.9465     C
N       0.2421   0.3177   0.8176     N
N       0.2421   0.6823   0.3176     N
H        0.244   0.2464   0.6842     H
H        0.244   0.7536   0.1842     H
H        0.256   0.2536   0.1842     H
H        0.256   0.7464   0.6842     H
N       0.2579   0.1823   0.3176     N
N       0.2579   0.8177   0.8176     N
C       0.2734   0.0784   0.9465     C
C       0.2734   0.9216   0.4465     C
H       0.2839    0.125   0.4683     H
H       0.2839    0.875   0.9683     H
C        0.284   0.2413   0.2614     C
C        0.284   0.7587   0.7614     C
H       0.2855    0.027   0.7783     H
H       0.2855    0.973   0.2783     H
H        0.293   0.1447   0.0946     H
H        0.293   0.8553   0.5946     H
C       0.2992   0.4642   0.5036     C
C       0.2992   0.5358   0.0036     C
C       0.2995   0.1661   0.4278     C
C       0.2995   0.8339   0.9278     C
C        0.307   0.0647   0.8247     C
C        0.307   0.9353   0.3247     C
C       0.3106   0.1347   0.0104     C
C       0.3106   0.8653   0.5104     C
N       0.3276  0.47758   0.9449     N
N       0.3276  0.52242   0.4449     N
N       0.3442  0.45002   0.6134     N
N       0.3442  0.54998   0.1134     N
Cu     0.34552  0.38215  0.75452    Cu
Cu     0.34552  0.61785  0.25452    Cu
C       0.3495    0.285   0.3104     C
C       0.3495    0.715   0.8104     C
C       0.3651   0.2077   0.4852     C
C       0.3651   0.7923   0.9852     C
H       0.3654   0.3251   0.2665     H
H       0.3654   0.6749   0.7665     H
C       0.3729   0.1071   0.7719     C
C       0.3729   0.8929   0.2719     C
C        0.374   0.1757   0.9481     C
C        0.374   0.8243   0.4481     C
H       0.3911   0.1947   0.5633     H
H       0.3911   0.8053   0.0633     H
C       0.3914   0.2681   0.4263     C
C       0.3914   0.7319   0.9263     C
C       0.3934   0.4569   0.0229     C
C       0.3934   0.5431   0.5229     C
H       0.3962    0.214   0.9921     H
H       0.3962    0.786   0.4921     H
H       0.3963   0.0955   0.6913     H
H       0.3963   0.9045   0.1913     H
N       0.4053  0.16411   0.8296     N
N       0.4053  0.83589   0.3296     N
N       0.4065  0.49696   0.1251     N
N       0.4065  0.50304   0.6251     N
N       0.4423  0.35977   0.8883     N
N       0.4423  0.64023   0.3883     N
C       0.4486   0.3951   0.9978     C
C       0.4486   0.6049   0.4978     C
C       0.4592   0.3149   0.4822     C
C       0.4592   0.6851   0.9822     C
N       0.4903  0.37024   0.4178     N
N       0.4903  0.62976   0.9178     N
N       0.4967  0.30645      0.6     N
N       0.4967  0.69355      0.1     N
Cu         0.5  0.23501     0.75    Cu
Cu         0.5  0.49059     0.25    Cu
Cu         0.5  0.50941     0.75    Cu
Cu         0.5  0.76499     0.25    Cu
N       0.5033  0.30645      0.9     N
N       0.5033  0.69355      0.4     N
N       0.5097  0.37024   0.0822     N
N       0.5097  0.62976   0.5822     N
C       0.5408   0.3149   0.0178     C
C       0.5408   0.6851   0.5178     C
C       0.5514   0.3951   0.5022     C
C       0.5514   0.6049   0.0022     C
N       0.5577  0.35977   0.6117     N
N       0.5577  0.64023   0.1117     N
N       0.5935  0.49696   0.3749     N
N       0.5935  0.50304   0.8749     N
N       0.5947  0.16411   0.6704     N
N       0.5947  0.83589   0.1704     N
H       0.6037   0.0955   0.8087     H
H       0.6037   0.9045   0.3087     H
H       0.6038    0.214   0.5079     H
H       0.6038    0.786   0.0079     H
C       0.6066   0.4569   0.4771     C
C       0.6066   0.5431   0.9771     C
C       0.6086   0.2681   0.0737     C
C       0.6086   0.7319   0.5737     C
H       0.6089   0.1947   0.9367     H
H       0.6089   0.8053   0.4367     H
C        0.626   0.1757   0.5519     C
C        0.626   0.8243   0.0519     C
C       0.6271   0.1071   0.7281     C
C       0.6271   0.8929   0.2281     C
H       0.6346   0.3251   0.2335     H
H       0.6346   0.6749   0.7335     H
C       0.6349   0.2077   0.0148     C
C       0.6349   0.7923   0.5148     C
C       0.6505    0.285   0.1896     C
C       0.6505    0.715   0.6896     C
Cu     0.65448  0.38215  0.74548    Cu
Cu     0.65448  0.61785  0.24548    Cu
N       0.6558  0.45002   0.8866     N
N       0.6558  0.54998   0.3866     N
N       0.6724  0.47758   0.5551     N
N       0.6724  0.52242   0.0551     N
C       0.6894   0.1347   0.4896     C
C       0.6894   0.8653   0.9896     C
C        0.693   0.0647   0.6753     C
C        0.693   0.9353   0.1753     C
C       0.7005   0.1661   0.0722     C
C       0.7005   0.8339   0.5722     C
C       0.7008   0.4642   0.9964     C
C       0.7008   0.5358   0.4964     C
H        0.707   0.1447   0.4054     H
H        0.707   0.8553   0.9054     H
H       0.7145    0.027   0.7217     H
H       0.7145    0.973   0.2217     H
C        0.716   0.2413   0.2386     C
C        0.716   0.7587   0.7386     C
H       0.7161    0.125   0.0317     H
H       0.7161    0.875   0.5317     H
C       0.7266   0.0784   0.5535     C
C       0.7266   0.9216   0.0535     C
N       0.7421   0.1823   0.1824     N
N       0.7421   0.8177   0.6824     N
H        0.744   0.2536   0.3158     H
H        0.744   0.7464   0.8158     H
H        0.756   0.2464   0.8158     H
H        0.756   0.7536   0.3158     H
N       0.7579   0.3177   0.6824     N
N       0.7579   0.6823   0.1824     N
C       0.7734   0.4216   0.0535     C
C       0.7734   0.5784   0.5535     C
H       0.7839    0.375   0.5317     H
H       0.7839    0.625   0.0317     H
C        0.784   0.2587   0.7386     C
C        0.784   0.7413   0.2386     C
H       0.7855    0.473   0.2217     H
H       0.7855    0.527   0.7217     H
H        0.793   0.3553   0.9054     H
H        0.793   0.6447   0.4054     H
C       0.7992   0.0358   0.4964     C
C       0.7992   0.9642   0.9964     C
C       0.7995   0.3339   0.5722     C
C       0.7995   0.6661   0.0722     C
C        0.807   0.4353   0.1753     C
C        0.807   0.5647   0.6753     C
C       0.8106   0.3653   0.9896     C
C       0.8106   0.6347   0.4896     C
N       0.8276  0.02242   0.0551     N
N       0.8276  0.97758   0.5551     N
N       0.8442  0.04998   0.3866     N
N       0.8442  0.95002   0.8866     N
Cu     0.84552  0.11785  0.24548    Cu
Cu     0.84552  0.88215  0.74548    Cu
C       0.8495    0.215   0.6896     C
C       0.8495    0.785   0.1896     C
C       0.8651   0.2923   0.5148     C
C       0.8651   0.7077   0.0148     C
H       0.8654   0.1749   0.7335     H
H       0.8654   0.8251   0.2335     H
C       0.8729   0.3929   0.2281     C
C       0.8729   0.6071   0.7281     C
C        0.874   0.3243   0.0519     C
C        0.874   0.6757   0.5519     C
H       0.8911   0.3053   0.4367     H
H       0.8911   0.6947   0.9367     H
C       0.8914   0.2319   0.5737     C
C       0.8914   0.7681   0.0737     C
C       0.8934   0.0431   0.9771     C
C       0.8934   0.9569   0.4771     C
H       0.8962    0.286   0.0079     H
H       0.8962    0.714   0.5079     H
H       0.8963   0.4045   0.3087     H
H       0.8963   0.5955   0.8087     H
N       0.9053  0.33589   0.1704     N
N       0.9053  0.66411   0.6704     N
N       0.9065  0.00304   0.8749     N
N       0.9065  0.99696   0.3749     N
N       0.9423  0.14023   0.1117     N
N       0.9423  0.85977   0.6117     N
C       0.9486   0.1049   0.0022     C
C       0.9486   0.8951   0.5022     C
C       0.9592   0.1851   0.5178     C
C       0.9592   0.8149   0.0178     C
N       0.9903  0.12976   0.5822     N
N       0.9903  0.87024   0.0822     N
N       0.9967  0.19355      0.4     N
N       0.9967  0.80645      0.9     N
