data_I
_chemical_name_common  '/home/zhangsd/repos/MofS-CGCNN/ML/data/TSD/clean_cifs/MUHNAG_clean'
_cell_length_a  9.25290
_cell_length_b 10.63550
_cell_length_c 11.04930
_cell_angle_alpha 63.62200
_cell_angle_beta  86.48900
_cell_angle_gamma 74.90700
_space_group_name_H-M_alt      'P 1'


loop_
_space_group_symop_operation_xyz
  'x, y, z' 

loop_
_atom_site_label
_atom_site_fract_x
_atom_site_fract_y
_atom_site_fract_z
_atom_site_type_symbol
N       0.0221   0.6615   0.5095     N
C       0.0546   0.5368   0.4982     C
H       0.1148   0.7866   0.6838     H
H       0.1485   0.9982   0.6727     H
C       0.1524   0.8496   0.6075     C
C       0.1608   0.6876   0.4976     C
C       0.1725    0.977   0.5996     C
C       0.1897   0.8172   0.4983     C
N       0.1945   0.4875   0.4787     N
Co     0.22196  0.27529  0.48166    Co
N       0.2251   0.0714   0.4916     N
C        0.247   0.9112   0.3897     C
C       0.2623   0.0374   0.3888     C
N       0.2656   0.5859   0.4787     N
H       0.2755   0.8907   0.3169     H
H          0.3   0.1016   0.3134     H
H       0.3098   0.3841   0.0697     H
O       0.3163   0.3339   0.3089     O
O       0.3242   0.1765   0.6608     O
H       0.3376   0.9631   0.8748     H
H        0.373   0.4682   0.8451     H
C       0.3866   0.4306   0.0417     C
C       0.4031   0.9779   0.9247     C
H        0.406   0.7976   0.0992     H
C       0.4166   0.2056    0.718     C
C       0.4212   0.3974   0.2799     C
C       0.4241   0.4813   0.9067     C
C       0.4435   0.8791   0.0596     C
C       0.4608   0.0985   0.8648     C
C       0.4629   0.4492   0.1343     C
O       0.4734    0.309   0.6677     O
O       0.4904   0.4171   0.3592     O
Co         0.5      0.5      0.5    Co
O       0.5096   0.5829   0.6408     O
O       0.5266    0.691   0.3323     O
C       0.5371   0.5508   0.8657     C
C       0.5392   0.9015   0.1352     C
C       0.5565   0.1209   0.9404     C
C       0.5759   0.5187   0.0933     C
C       0.5788   0.6026   0.7201     C
C       0.5834   0.7944    0.282     C
H        0.594   0.2024   0.9008     H
C       0.5969   0.0221   0.0753     C
C       0.6134   0.5694   0.9583     C
H        0.627   0.5318   0.1549     H
H       0.6624   0.0369   0.1252     H
O       0.6758   0.8235   0.3392     O
O       0.6837   0.6661   0.6911     O
H       0.6902   0.6159   0.9303     H
H          0.7   0.8984   0.6866     H
H       0.7245   0.1093   0.6831     H
N       0.7344   0.4141   0.5213     N
C       0.7377   0.9626   0.6112     C
C        0.753   0.0888   0.6103     C
N       0.7749   0.9286   0.5084     N
Co     0.77804  0.72471  0.51834    Co
N       0.8055   0.5125   0.5213     N
C       0.8103   0.1828   0.5017     C
C       0.8275    0.023   0.4004     C
C       0.8392   0.3124   0.5024     C
C       0.8476   0.1504   0.3925     C
H       0.8515   0.0018   0.3273     H
H       0.8852   0.2134   0.3162     H
C       0.9454   0.4632   0.5018     C
N       0.9779   0.3385   0.4905     N
