data_I
_chemical_name_common  '/home/zhangsd/repos/MofS-CGCNN/ML/data/TSD/clean_cifs/MUJPUE_clean'
_cell_length_a 18.19800
_cell_length_b 18.19800
_cell_length_c 28.87200
_cell_angle_alpha 90.00000
_cell_angle_beta  90.00000
_cell_angle_gamma 90.00000
_space_group_name_H-M_alt      'P 1'


loop_
_space_group_symop_operation_xyz
  'x, y, z' 

loop_
_atom_site_label
_atom_site_fract_x
_atom_site_fract_y
_atom_site_fract_z
_atom_site_type_symbol
C       0.0044   0.6041  0.21497     C
C       0.0044   0.8959  0.78503     C
Br     0.00474  0.60591  0.59616    Br
Br     0.00474  0.89409  0.40384    Br
C        0.005   0.0634  0.02703     C
C        0.005   0.4366  0.97297     C
H       0.0064   0.5929   0.1458     H
H       0.0064   0.9071   0.8542     H
C       0.0068   0.1218  0.17099     C
C       0.0068   0.3782  0.82901     C
C        0.009   0.1338  0.05424     C
C        0.009   0.3662  0.94576     C
C       0.0095   0.5457   0.5374     C
C       0.0095   0.9543   0.4626     C
H       0.0113    0.616   0.8458     H
H       0.0113    0.884   0.1542     H
H        0.015   0.5765   0.5642     H
H        0.015   0.9235   0.4358     H
H       0.0184   0.1781   0.4178     H
H       0.0184   0.3219   0.5822     H
C       0.0196   0.1753  0.38565     C
C       0.0196   0.3247  0.61435     C
N      0.02174  0.67992  0.90215     N
N      0.02174  0.82008  0.09785     N
C       0.0236   0.1655  0.29053     C
C       0.0236   0.3345  0.70947     C
N      0.02474  0.16033  0.24095     N
N      0.02474  0.33967  0.75905     N
H       0.0273    0.562   0.2261     H
H       0.0273    0.938   0.7739     H
C       0.0312   0.6291   0.3146     C
C       0.0312   0.8709   0.6854     C
C       0.0317   0.6338  0.36215     C
C       0.0317   0.8662  0.63785     C
C       0.0377   0.6263  0.87262     C
C       0.0377   0.8737  0.12738     C
N      0.04091  0.18984  0.16802     N
N      0.04091  0.31016  0.83198     N
C       0.0457   0.5095   0.0374     C
C       0.0457   0.9905   0.9626     C
O      0.04873  0.65894  0.07136     O
O      0.04873  0.84106  0.92864     O
C        0.051   0.2112  0.21087     C
C        0.051   0.2888  0.78913     C
C       0.0516   0.0528  0.98939     C
C       0.0516   0.4472  0.01061     C
C       0.0528   0.0516  0.51061     C
C       0.0528   0.4484  0.48939     C
Zn     0.05531  0.24231  0.10742    Zn
Zn     0.05531  0.25769  0.89258    Zn
H        0.062   0.5273   0.7261     H
H        0.062   0.9727   0.2739     H
C       0.0634    0.005  0.47297     C
C       0.0634    0.495  0.52703     C
H       0.0668    0.602    0.299     H
H       0.0668    0.898    0.701     H
O       0.0697   0.1648  0.05926     O
O       0.0697   0.3352  0.94074     O
C       0.0726  0.21256  0.36077     C
C       0.0726  0.28744  0.63923     C
H       0.0731   0.2449   0.7805     H
H       0.0731   0.2551   0.2195     H
C       0.0734   0.6757  0.93674     C
C       0.0734   0.8243  0.06326     C
H       0.0757   0.7066   0.9623     H
H       0.0757   0.7934   0.0377     H
C       0.0759   0.2069  0.31288     C
C       0.0759   0.2931  0.68712     C
H       0.0765    0.515   0.0642     H
H       0.0765    0.985   0.9358     H
H       0.0869    0.088   0.9823     H
H       0.0869    0.412   0.0177     H
H        0.088   0.0869   0.5177     H
H        0.088   0.4131   0.4823     H
N      0.08885  0.59739   0.3867     N
N      0.08885  0.90261   0.6133     N
H       0.0929   0.5064   0.6458     H
H       0.0929   0.9936   0.3542     H
N      0.09739  0.58885   0.8867     N
N      0.09739  0.91115   0.1133     N
H        0.102   0.5668    0.799     H
H        0.102   0.9332    0.201     H
C       0.1041   0.5044  0.71497     C
C       0.1041   0.9956  0.28503     C
H       0.1056   0.6596   0.4463     H
H       0.1056   0.8404   0.5537     H
Br     0.10591  0.50474  0.09616    Br
Br     0.10591  0.99526  0.90384    Br
H       0.1128   0.2306   0.2963     H
H       0.1128   0.2694   0.7037     H
H        0.116   0.5113   0.3458     H
H        0.116   0.9887   0.6542     H
H       0.1189   0.2273   0.4534     H
H       0.1189   0.2727   0.5466     H
C         0.12   0.6202   0.9281     C
C         0.12   0.8798   0.0719     C
C       0.1202     0.62   0.4281     C
C       0.1202     0.88   0.5719     C
C       0.1218   0.0068  0.32901     C
C       0.1218   0.4932  0.67099     C
N      0.12373  0.24129   0.6156     N
N      0.12373  0.25871   0.3844     N
C       0.1263   0.5377  0.37262     C
C       0.1263   0.9623  0.62738     C
C       0.1291   0.5312   0.8146     C
C       0.1291   0.9688   0.1854     C
C       0.1338    0.009  0.44576     C
C       0.1338    0.491  0.55424     C
C       0.1338   0.5317  0.86215     C
C       0.1338   0.9683  0.13785     C
C       0.1383   0.2411  0.56885     C
C       0.1383   0.2589  0.43115     C
N      0.15069  0.20112  0.89704     N
N      0.15069  0.29888  0.10296     N
O      0.15894  0.54873  0.57136     O
O      0.15894  0.95127  0.42864     O
H       0.1596   0.6056   0.9463     H
H       0.1596   0.8944   0.0537     H
N      0.16033  0.02474  0.25905     N
N      0.16033  0.47526  0.74095     N
H       0.1617   0.1732   0.6652     H
H       0.1617   0.3268   0.3348     H
C       0.1624   0.1855  0.63395     C
C       0.1624   0.3145  0.36605     C
O       0.1648   0.0697  0.44074     O
O       0.1648   0.4303  0.55926     O
C       0.1655   0.0236  0.20947     C
C       0.1655   0.4764  0.79053     C
H       0.1732   0.1617   0.8348     H
H       0.1732   0.3383   0.1652     H
H       0.1741   0.2065   0.9667     H
H       0.1741   0.2935   0.0333     H
C       0.1753   0.0196  0.11435     C
C       0.1753   0.4804  0.88565     C
C       0.1757   0.5734  0.43674     C
C       0.1757   0.9266  0.56326     C
H       0.1781   0.0184   0.0822     H
H       0.1781   0.4816   0.9178     H
N      0.17992  0.52174  0.40215     N
N      0.17992  0.97826  0.59785     N
C       0.1855   0.1624  0.86605     C
C       0.1855   0.3376  0.13395     C
C       0.1862   0.1864  0.56185     C
C       0.1862   0.3136  0.43815     C
C       0.1864   0.1862  0.93815     C
C       0.1864   0.3138  0.06185     C
N      0.18984  0.04091  0.33198     N
N      0.18984  0.45909  0.66802     N
N      0.20112  0.15069  0.60296     N
N      0.20112  0.34931  0.39704     N
H       0.2065   0.1741   0.5333     H
H       0.2065   0.3259   0.4667     H
H       0.2066   0.5757   0.4623     H
H       0.2066   0.9243   0.5377     H
C       0.2069   0.0759  0.18712     C
C       0.2069   0.4241  0.81288     C
C       0.2112    0.051  0.28913     C
C       0.2112    0.449  0.71087     C
C      0.21256   0.0726  0.13923     C
C      0.21256   0.4274  0.86077     C
H       0.2273   0.1189   0.0466     H
H       0.2273   0.3811   0.9534     H
H       0.2306   0.1128   0.2037     H
H       0.2306   0.3872   0.7963     H
C       0.2411   0.1383  0.93115     C
C       0.2411   0.3617  0.06885     C
N      0.24129  0.12373   0.8844     N
N      0.24129  0.37627   0.1156     N
Zn     0.24231  0.05531  0.39258    Zn
Zn     0.24231  0.44469  0.60742    Zn
H       0.2449   0.0731   0.7195     H
H       0.2449   0.4269   0.2805     H
H       0.2551   0.0731   0.2805     H
H       0.2551   0.4269   0.7195     H
Zn     0.25769  0.05531  0.60742    Zn
Zn     0.25769  0.44469  0.39258    Zn
N      0.25871  0.12373   0.1156     N
N      0.25871  0.37627   0.8844     N
C       0.2589   0.1383  0.06885     C
C       0.2589   0.3617  0.93115     C
H       0.2694   0.1128   0.7963     H
H       0.2694   0.3872   0.2037     H
H       0.2727   0.1189   0.9534     H
H       0.2727   0.3811   0.0466     H
C      0.28744   0.0726  0.86077     C
C      0.28744   0.4274  0.13923     C
C       0.2888    0.051  0.71087     C
C       0.2888    0.449  0.28913     C
C       0.2931   0.0759  0.81288     C
C       0.2931   0.4241  0.18712     C
H       0.2934   0.5757   0.5377     H
H       0.2934   0.9243   0.4623     H
H       0.2935   0.1741   0.4667     H
H       0.2935   0.3259   0.5333     H
N      0.29888  0.15069  0.39704     N
N      0.29888  0.34931  0.60296     N
N      0.31016  0.04091  0.66802     N
N      0.31016  0.45909  0.33198     N
C       0.3136   0.1862  0.06185     C
C       0.3136   0.3138  0.93815     C
C       0.3138   0.1864  0.43815     C
C       0.3138   0.3136  0.56185     C
C       0.3145   0.1624  0.13395     C
C       0.3145   0.3376  0.86605     C
N      0.32008  0.52174  0.59785     N
N      0.32008  0.97826  0.40215     N
H       0.3219   0.0184   0.9178     H
H       0.3219   0.4816   0.0822     H
C       0.3243   0.5734  0.56326     C
C       0.3243   0.9266  0.43674     C
C       0.3247   0.0196  0.88565     C
C       0.3247   0.4804  0.11435     C
H       0.3259   0.2065   0.0333     H
H       0.3259   0.2935   0.9667     H
H       0.3268   0.1617   0.1652     H
H       0.3268   0.3383   0.8348     H
C       0.3345   0.0236  0.79053     C
C       0.3345   0.4764  0.20947     C
O       0.3352   0.0697  0.55926     O
O       0.3352   0.4303  0.44074     O
C       0.3376   0.1855  0.36605     C
C       0.3376   0.3145  0.63395     C
H       0.3383   0.1732   0.3348     H
H       0.3383   0.3268   0.6652     H
N      0.33967  0.02474  0.74095     N
N      0.33967  0.47526  0.25905     N
H       0.3404   0.6056   0.0537     H
H       0.3404   0.8944   0.9463     H
O      0.34106  0.54873  0.42864     O
O      0.34106  0.95127  0.57136     O
N      0.34931  0.20112  0.10296     N
N      0.34931  0.29888  0.89704     N
C       0.3617   0.2411  0.43115     C
C       0.3617   0.2589  0.56885     C
C       0.3662    0.009  0.55424     C
C       0.3662    0.491  0.44576     C
C       0.3662   0.5317  0.13785     C
C       0.3662   0.9683  0.86215     C
C       0.3709   0.5312   0.1854     C
C       0.3709   0.9688   0.8146     C
C       0.3737   0.5377  0.62738     C
C       0.3737   0.9623  0.37262     C
N      0.37627  0.24129   0.3844     N
N      0.37627  0.25871   0.6156     N
C       0.3782   0.0068  0.67099     C
C       0.3782   0.4932  0.32901     C
C       0.3798     0.62   0.5719     C
C       0.3798     0.88   0.4281     C
C         0.38   0.6202   0.0719     C
C         0.38   0.8798   0.9281     C
H       0.3811   0.2273   0.5466     H
H       0.3811   0.2727   0.4534     H
H        0.384   0.5113   0.6542     H
H        0.384   0.9887   0.3458     H
H       0.3872   0.2306   0.7037     H
H       0.3872   0.2694   0.2963     H
Br     0.39409  0.50474  0.90384    Br
Br     0.39409  0.99526  0.09616    Br
H       0.3944   0.6596   0.5537     H
H       0.3944   0.8404   0.4463     H
C       0.3959   0.5044  0.28503     C
C       0.3959   0.9956  0.71497     C
H        0.398   0.5668    0.201     H
H        0.398   0.9332    0.799     H
N      0.40261  0.58885   0.1133     N
N      0.40261  0.91115   0.8867     N
H       0.4071   0.5064   0.3542     H
H       0.4071   0.9936   0.6458     H
N      0.41115  0.59739   0.6133     N
N      0.41115  0.90261   0.3867     N
H        0.412   0.0869   0.4823     H
H        0.412   0.4131   0.5177     H
H       0.4131    0.088   0.0177     H
H       0.4131    0.412   0.9823     H
H       0.4235    0.515   0.9358     H
H       0.4235    0.985   0.0642     H
C       0.4241   0.2069  0.68712     C
C       0.4241   0.2931  0.31288     C
H       0.4243   0.7066   0.0377     H
H       0.4243   0.7934   0.9623     H
C       0.4266   0.6757  0.06326     C
C       0.4266   0.8243  0.93674     C
H       0.4269   0.2449   0.2195     H
H       0.4269   0.2551   0.7805     H
C       0.4274  0.21256  0.63923     C
C       0.4274  0.28744  0.36077     C
O       0.4303   0.1648  0.94074     O
O       0.4303   0.3352  0.05926     O
H       0.4332    0.602    0.701     H
H       0.4332    0.898    0.299     H
C       0.4366    0.005  0.52703     C
C       0.4366    0.495  0.47297     C
H        0.438   0.5273   0.2739     H
H        0.438   0.9727   0.7261     H
Zn     0.44469  0.24231  0.89258    Zn
Zn     0.44469  0.25769  0.10742    Zn
C       0.4472   0.0516  0.48939     C
C       0.4472   0.4484  0.51061     C
C       0.4484   0.0528  0.01061     C
C       0.4484   0.4472  0.98939     C
C        0.449   0.2112  0.78913     C
C        0.449   0.2888  0.21087     C
O      0.45127  0.65894  0.92864     O
O      0.45127  0.84106  0.07136     O
C       0.4543   0.5095   0.9626     C
C       0.4543   0.9905   0.0374     C
N      0.45909  0.18984  0.83198     N
N      0.45909  0.31016  0.16802     N
C       0.4623   0.6263  0.12738     C
C       0.4623   0.8737  0.87262     C
C       0.4683   0.6338  0.63785     C
C       0.4683   0.8662  0.36215     C
C       0.4688   0.6291   0.6854     C
C       0.4688   0.8709   0.3146     C
H       0.4727    0.562   0.7739     H
H       0.4727    0.938   0.2261     H
N      0.47526  0.16033  0.75905     N
N      0.47526  0.33967  0.24095     N
C       0.4764   0.1655  0.70947     C
C       0.4764   0.3345  0.29053     C
N      0.47826  0.67992  0.09785     N
N      0.47826  0.82008  0.90215     N
C       0.4804   0.1753  0.61435     C
C       0.4804   0.3247  0.38565     C
H       0.4816   0.1781   0.5822     H
H       0.4816   0.3219   0.4178     H
H        0.485   0.5765   0.4358     H
H        0.485   0.9235   0.5642     H
H       0.4887    0.616   0.1542     H
H       0.4887    0.884   0.8458     H
C       0.4905   0.5457   0.4626     C
C       0.4905   0.9543   0.5374     C
C        0.491   0.1338  0.94576     C
C        0.491   0.3662  0.05424     C
C       0.4932   0.1218  0.82901     C
C       0.4932   0.3782  0.17099     C
H       0.4936   0.5929   0.8542     H
H       0.4936   0.9071   0.1458     H
C        0.495   0.0634  0.97297     C
C        0.495   0.4366  0.02703     C
Br     0.49526  0.60591  0.40384    Br
Br     0.49526  0.89409  0.59616    Br
C       0.4956   0.6041  0.78503     C
C       0.4956   0.8959  0.21497     C
C       0.5044   0.1041  0.78503     C
C       0.5044   0.3959  0.21497     C
Br     0.50474  0.10591  0.40384    Br
Br     0.50474  0.39409  0.59616    Br
C        0.505   0.5634  0.97297     C
C        0.505   0.9366  0.02703     C
H       0.5064   0.0929   0.8542     H
H       0.5064   0.4071   0.1458     H
C       0.5068   0.6218  0.82901     C
C       0.5068   0.8782  0.17099     C
C        0.509   0.6338  0.94576     C
C        0.509   0.8662  0.05424     C
C       0.5095   0.0457   0.4626     C
C       0.5095   0.4543   0.5374     C
H       0.5113    0.116   0.1542     H
H       0.5113    0.384   0.8458     H
H        0.515   0.0765   0.4358     H
H        0.515   0.4235   0.5642     H
H       0.5184   0.6781   0.5822     H
H       0.5184   0.8219   0.4178     H
C       0.5196   0.6753  0.61435     C
C       0.5196   0.8247  0.38565     C
N      0.52174  0.17992  0.09785     N
N      0.52174  0.32008  0.90215     N
C       0.5236   0.6655  0.70947     C
C       0.5236   0.8345  0.29053     C
N      0.52474  0.66033  0.75905     N
N      0.52474  0.83967  0.24095     N
H       0.5273    0.062   0.7739     H
H       0.5273    0.438   0.2261     H
C       0.5312   0.1291   0.6854     C
C       0.5312   0.3709   0.3146     C
C       0.5317   0.1338  0.63785     C
C       0.5317   0.3662  0.36215     C
C       0.5377   0.1263  0.12738     C
C       0.5377   0.3737  0.87262     C
N      0.54091  0.68984  0.83198     N
N      0.54091  0.81016  0.16802     N
C       0.5457   0.0095   0.9626     C
C       0.5457   0.4905   0.0374     C
O      0.54873  0.15894  0.92864     O
O      0.54873  0.34106  0.07136     O
C        0.551   0.7112  0.78913     C
C        0.551   0.7888  0.21087     C
C       0.5516   0.5528  0.01061     C
C       0.5516   0.9472  0.98939     C
C       0.5528   0.5516  0.48939     C
C       0.5528   0.9484  0.51061     C
Zn     0.55531  0.74231  0.89258    Zn
Zn     0.55531  0.75769  0.10742    Zn
H        0.562   0.0273   0.2739     H
H        0.562   0.4727   0.7261     H
C       0.5634    0.505  0.52703     C
C       0.5634    0.995  0.47297     C
H       0.5668    0.102    0.701     H
H       0.5668    0.398    0.299     H
O       0.5697   0.6648  0.94074     O
O       0.5697   0.8352  0.05926     O
C       0.5726  0.71256  0.63923     C
C       0.5726  0.78744  0.36077     C
H       0.5731   0.7449   0.2195     H
H       0.5731   0.7551   0.7805     H
C       0.5734   0.1757  0.06326     C
C       0.5734   0.3243  0.93674     C
H       0.5757   0.2066   0.0377     H
H       0.5757   0.2934   0.9623     H
C       0.5759   0.7069  0.68712     C
C       0.5759   0.7931  0.31288     C
H       0.5765    0.015   0.9358     H
H       0.5765    0.485   0.0642     H
H       0.5869    0.588   0.0177     H
H       0.5869    0.912   0.9823     H
H        0.588   0.5869   0.4823     H
H        0.588   0.9131   0.5177     H
N      0.58885  0.09739   0.6133     N
N      0.58885  0.40261   0.3867     N
H       0.5929   0.0064   0.3542     H
H       0.5929   0.4936   0.6458     H
N      0.59739  0.08885   0.1133     N
N      0.59739  0.41115   0.8867     N
H        0.602   0.0668    0.201     H
H        0.602   0.4332    0.799     H
C       0.6041   0.0044  0.28503     C
C       0.6041   0.4956  0.71497     C
H       0.6056   0.1596   0.5537     H
H       0.6056   0.3404   0.4463     H
Br     0.60591  0.00474  0.90384    Br
Br     0.60591  0.49526  0.09616    Br
H       0.6128   0.7306   0.7037     H
H       0.6128   0.7694   0.2963     H
H        0.616   0.0113   0.6542     H
H        0.616   0.4887   0.3458     H
H       0.6189   0.7273   0.5466     H
H       0.6189   0.7727   0.4534     H
C         0.62   0.1202   0.0719     C
C         0.62   0.3798   0.9281     C
C       0.6202     0.12   0.5719     C
C       0.6202     0.38   0.4281     C
C       0.6218   0.5068  0.67099     C
C       0.6218   0.9932  0.32901     C
N      0.62373  0.74129   0.3844     N
N      0.62373  0.75871   0.6156     N
C       0.6263   0.0377  0.62738     C
C       0.6263   0.4623  0.37262     C
C       0.6291   0.0312   0.1854     C
C       0.6291   0.4688   0.8146     C
C       0.6338   0.0317  0.13785     C
C       0.6338   0.4683  0.86215     C
C       0.6338    0.509  0.55424     C
C       0.6338    0.991  0.44576     C
C       0.6383   0.7411  0.43115     C
C       0.6383   0.7589  0.56885     C
N      0.65069  0.70112  0.10296     N
N      0.65069  0.79888  0.89704     N
O      0.65894  0.04873  0.42864     O
O      0.65894  0.45127  0.57136     O
H       0.6596   0.1056   0.0537     H
H       0.6596   0.3944   0.9463     H
N      0.66033  0.52474  0.74095     N
N      0.66033  0.97526  0.25905     N
H       0.6617   0.6732   0.3348     H
H       0.6617   0.8268   0.6652     H
C       0.6624   0.6855  0.36605     C
C       0.6624   0.8145  0.63395     C
O       0.6648   0.5697  0.55926     O
O       0.6648   0.9303  0.44074     O
C       0.6655   0.5236  0.79053     C
C       0.6655   0.9764  0.20947     C
H       0.6732   0.6617   0.1652     H
H       0.6732   0.8383   0.8348     H
H       0.6741   0.7065   0.0333     H
H       0.6741   0.7935   0.9667     H
C       0.6753   0.5196  0.88565     C
C       0.6753   0.9804  0.11435     C
C       0.6757   0.0734  0.56326     C
C       0.6757   0.4266  0.43674     C
H       0.6781   0.5184   0.9178     H
H       0.6781   0.9816   0.0822     H
N      0.67992  0.02174  0.59785     N
N      0.67992  0.47826  0.40215     N
C       0.6855   0.6624  0.13395     C
C       0.6855   0.8376  0.86605     C
C       0.6862   0.6864  0.43815     C
C       0.6862   0.8136  0.56185     C
C       0.6864   0.6862  0.06185     C
C       0.6864   0.8138  0.93815     C
N      0.68984  0.54091  0.66802     N
N      0.68984  0.95909  0.33198     N
N      0.70112  0.65069  0.39704     N
N      0.70112  0.84931  0.60296     N
H       0.7065   0.6741   0.4667     H
H       0.7065   0.8259   0.5333     H
H       0.7066   0.0757   0.5377     H
H       0.7066   0.4243   0.4623     H
C       0.7069   0.5759  0.81288     C
C       0.7069   0.9241  0.18712     C
C       0.7112    0.551  0.71087     C
C       0.7112    0.949  0.28913     C
C      0.71256   0.5726  0.86077     C
C      0.71256   0.9274  0.13923     C
H       0.7273   0.6189   0.9534     H
H       0.7273   0.8811   0.0466     H
H       0.7306   0.6128   0.7963     H
H       0.7306   0.8872   0.2037     H
C       0.7411   0.6383  0.06885     C
C       0.7411   0.8617  0.93115     C
N      0.74129  0.62373   0.1156     N
N      0.74129  0.87627   0.8844     N
Zn     0.74231  0.55531  0.60742    Zn
Zn     0.74231  0.94469  0.39258    Zn
H       0.7449   0.5731   0.2805     H
H       0.7449   0.9269   0.7195     H
H       0.7551   0.5731   0.7195     H
H       0.7551   0.9269   0.2805     H
Zn     0.75769  0.55531  0.39258    Zn
Zn     0.75769  0.94469  0.60742    Zn
N      0.75871  0.62373   0.8844     N
N      0.75871  0.87627   0.1156     N
C       0.7589   0.6383  0.93115     C
C       0.7589   0.8617  0.06885     C
H       0.7694   0.6128   0.2037     H
H       0.7694   0.8872   0.7963     H
H       0.7727   0.6189   0.0466     H
H       0.7727   0.8811   0.9534     H
C      0.78744   0.5726  0.13923     C
C      0.78744   0.9274  0.86077     C
C       0.7888    0.551  0.28913     C
C       0.7888    0.949  0.71087     C
C       0.7931   0.5759  0.18712     C
C       0.7931   0.9241  0.81288     C
H       0.7934   0.0757   0.4623     H
H       0.7934   0.4243   0.5377     H
H       0.7935   0.6741   0.5333     H
H       0.7935   0.8259   0.4667     H
N      0.79888  0.65069  0.60296     N
N      0.79888  0.84931  0.39704     N
N      0.81016  0.54091  0.33198     N
N      0.81016  0.95909  0.66802     N
C       0.8136   0.6862  0.93815     C
C       0.8136   0.8138  0.06185     C
C       0.8138   0.6864  0.56185     C
C       0.8138   0.8136  0.43815     C
C       0.8145   0.6624  0.86605     C
C       0.8145   0.8376  0.13395     C
N      0.82008  0.02174  0.40215     N
N      0.82008  0.47826  0.59785     N
H       0.8219   0.5184   0.0822     H
H       0.8219   0.9816   0.9178     H
C       0.8243   0.0734  0.43674     C
C       0.8243   0.4266  0.56326     C
C       0.8247   0.5196  0.11435     C
C       0.8247   0.9804  0.88565     C
H       0.8259   0.7065   0.9667     H
H       0.8259   0.7935   0.0333     H
H       0.8268   0.6617   0.8348     H
H       0.8268   0.8383   0.1652     H
C       0.8345   0.5236  0.20947     C
C       0.8345   0.9764  0.79053     C
O       0.8352   0.5697  0.44074     O
O       0.8352   0.9303  0.55926     O
C       0.8376   0.6855  0.63395     C
C       0.8376   0.8145  0.36605     C
H       0.8383   0.6732   0.6652     H
H       0.8383   0.8268   0.3348     H
N      0.83967  0.52474  0.25905     N
N      0.83967  0.97526  0.74095     N
H       0.8404   0.1056   0.9463     H
H       0.8404   0.3944   0.0537     H
O      0.84106  0.04873  0.57136     O
O      0.84106  0.45127  0.42864     O
N      0.84931  0.70112  0.89704     N
N      0.84931  0.79888  0.10296     N
C       0.8617   0.7411  0.56885     C
C       0.8617   0.7589  0.43115     C
C       0.8662   0.0317  0.86215     C
C       0.8662   0.4683  0.13785     C
C       0.8662    0.509  0.44576     C
C       0.8662    0.991  0.55424     C
C       0.8709   0.0312   0.8146     C
C       0.8709   0.4688   0.1854     C
C       0.8737   0.0377  0.37262     C
C       0.8737   0.4623  0.62738     C
N      0.87627  0.74129   0.6156     N
N      0.87627  0.75871   0.3844     N
C       0.8782   0.5068  0.32901     C
C       0.8782   0.9932  0.67099     C
C       0.8798     0.12   0.4281     C
C       0.8798     0.38   0.5719     C
C         0.88   0.1202   0.9281     C
C         0.88   0.3798   0.0719     C
H       0.8811   0.7273   0.4534     H
H       0.8811   0.7727   0.5466     H
H        0.884   0.0113   0.3458     H
H        0.884   0.4887   0.6542     H
H       0.8872   0.7306   0.2963     H
H       0.8872   0.7694   0.7037     H
Br     0.89409  0.00474  0.09616    Br
Br     0.89409  0.49526  0.90384    Br
H       0.8944   0.1596   0.4463     H
H       0.8944   0.3404   0.5537     H
C       0.8959   0.0044  0.71497     C
C       0.8959   0.4956  0.28503     C
H        0.898   0.0668    0.799     H
H        0.898   0.4332    0.201     H
N      0.90261  0.08885   0.8867     N
N      0.90261  0.41115   0.1133     N
H       0.9071   0.0064   0.6458     H
H       0.9071   0.4936   0.3542     H
N      0.91115  0.09739   0.3867     N
N      0.91115  0.40261   0.6133     N
H        0.912   0.5869   0.5177     H
H        0.912   0.9131   0.4823     H
H       0.9131    0.588   0.9823     H
H       0.9131    0.912   0.0177     H
H       0.9235    0.015   0.0642     H
H       0.9235    0.485   0.9358     H
C       0.9241   0.7069  0.31288     C
C       0.9241   0.7931  0.68712     C
H       0.9243   0.2066   0.9623     H
H       0.9243   0.2934   0.0377     H
C       0.9266   0.1757  0.93674     C
C       0.9266   0.3243  0.06326     C
H       0.9269   0.7449   0.7805     H
H       0.9269   0.7551   0.2195     H
C       0.9274  0.71256  0.36077     C
C       0.9274  0.78744  0.63923     C
O       0.9303   0.6648  0.05926     O
O       0.9303   0.8352  0.94074     O
H       0.9332    0.102    0.299     H
H       0.9332    0.398    0.701     H
C       0.9366    0.505  0.47297     C
C       0.9366    0.995  0.52703     C
H        0.938   0.0273   0.7261     H
H        0.938   0.4727   0.2739     H
Zn     0.94469  0.74231  0.10742    Zn
Zn     0.94469  0.75769  0.89258    Zn
C       0.9472   0.5516  0.51061     C
C       0.9472   0.9484  0.48939     C
C       0.9484   0.5528  0.98939     C
C       0.9484   0.9472  0.01061     C
C        0.949   0.7112  0.21087     C
C        0.949   0.7888  0.78913     C
O      0.95127  0.15894  0.07136     O
O      0.95127  0.34106  0.92864     O
C       0.9543   0.0095   0.0374     C
C       0.9543   0.4905   0.9626     C
N      0.95909  0.68984  0.16802     N
N      0.95909  0.81016  0.83198     N
C       0.9623   0.1263  0.87262     C
C       0.9623   0.3737  0.12738     C
C       0.9683   0.1338  0.36215     C
C       0.9683   0.3662  0.63785     C
C       0.9688   0.1291   0.3146     C
C       0.9688   0.3709   0.6854     C
H       0.9727    0.062   0.2261     H
H       0.9727    0.438   0.7739     H
N      0.97526  0.66033  0.24095     N
N      0.97526  0.83967  0.75905     N
C       0.9764   0.6655  0.29053     C
C       0.9764   0.8345  0.70947     C
N      0.97826  0.17992  0.90215     N
N      0.97826  0.32008  0.09785     N
C       0.9804   0.6753  0.38565     C
C       0.9804   0.8247  0.61435     C
H       0.9816   0.6781   0.4178     H
H       0.9816   0.8219   0.5822     H
H        0.985   0.0765   0.5642     H
H        0.985   0.4235   0.4358     H
H       0.9887    0.116   0.8458     H
H       0.9887    0.384   0.1542     H
C       0.9905   0.0457   0.5374     C
C       0.9905   0.4543   0.4626     C
C        0.991   0.6338  0.05424     C
C        0.991   0.8662  0.94576     C
C       0.9932   0.6218  0.17099     C
C       0.9932   0.8782  0.82901     C
H       0.9936   0.0929   0.1458     H
H       0.9936   0.4071   0.8542     H
C        0.995   0.5634  0.02703     C
C        0.995   0.9366  0.97297     C
Br     0.99526  0.10591  0.59616    Br
Br     0.99526  0.39409  0.40384    Br
C       0.9956   0.1041  0.21497     C
C       0.9956   0.3959  0.78503     C
