data_I
_chemical_name_common  '/home/zhangsd/repos/MofS-CGCNN/ML/data/TSD/clean_cifs/MUMYAW_clean'
_cell_length_a 32.81710
_cell_length_b 32.81710
_cell_length_c  9.23050
_cell_angle_alpha 90.00000
_cell_angle_beta  90.00000
_cell_angle_gamma 120.00000
_space_group_name_H-M_alt      'P 1'


loop_
_space_group_symop_operation_xyz
  'x, y, z' 

loop_
_atom_site_label
_atom_site_fract_x
_atom_site_fract_y
_atom_site_fract_z
_atom_site_type_symbol
Co         0.0      0.5      0.0    Co
H      0.00123  0.20187  0.74167     H
H      0.00143  0.57117  0.75687     H
N      0.00274  0.46682   0.8222     N
C        0.003  0.75591  0.49663     C
H      0.00677  0.80173  0.64873     H
C      0.00793  0.59284   0.3338     C
C      0.01366   0.2261  0.39917     C
H      0.01913  0.29887  0.64047     H
H       0.0205   0.6226   0.3746     H
C      0.02415  0.58081   0.2045     C
C       0.0265  0.43554  0.19723     C
C      0.02854   0.4468   0.6157     C
C      0.02891  0.28544  0.56987     C
C      0.03065  0.81138  0.23843     C
H      0.03437  0.12313  0.79983     H
H      0.03447  0.38693  0.30713     H
C      0.03551  0.48397   0.7127     C
H      0.04037  0.84613  0.04733     H
N      0.04363  0.46913  0.09763     N
H      0.04407  0.73123  0.70793     H
H       0.0461   0.4498   0.5332     H
N      0.04637  0.12523  0.42353     N
C       0.0479  0.41014  0.23653     C
C      0.05352  0.83764  0.12253     C
H       0.0536   0.6858   0.0262     H
H       0.0538   0.5349   0.4252     H
C      0.05385  0.78144  0.45203     C
N      0.05665  0.55804   0.9294     N
C      0.05729  0.15466  0.79153     C
C      0.05877   0.1455  0.52783     C
H      0.06077  0.16993  0.00443     H
C      0.06093  0.61282   0.1187     C
C      0.06111   0.2499  0.36687     C
H      0.06457  0.35383  0.95873     H
C      0.06476  0.80766  0.32543     C
H      0.07037  0.28723  0.86653     H
H      0.07193  0.23737  0.29627     H
C      0.07258  0.53059      0.7     C
C      0.07306  0.18274  0.91413     C
C      0.07383  0.74842  0.66713     C
C      0.07536  0.17323  0.65813     C
C      0.07571  0.30684  0.53057     C
C      0.07624  0.60191   0.9921     C
C      0.07681  0.69558   0.0968     C
N      0.07887  0.95363  0.42353     N
C      0.08146  0.56472   0.8031     C
C      0.08176  0.34126  0.99953     C
C      0.08344  0.47788  0.03353     C
C      0.08493  0.30479  0.94903     C
C      0.08532  0.54366   0.4343     C
C      0.08586  0.77667  0.53783     C
C      0.08625  0.66367   0.1633     C
C      0.08674  0.94123  0.52783     C
H      0.08877  0.96563  0.79983     H
C      0.08925  0.41958  0.17003     C
N      0.09217  0.28971  0.43097     N
H       0.0955   0.7636   0.0902     H
H      0.09597  0.50123  0.96293     H
H      0.09693  0.33477  0.57647     H
C      0.09738  0.94271  0.79153     C
C      0.09788  0.92464  0.65813     C
H       0.1008   0.5564    0.222     H
C      0.10195  0.85007  0.13643     C
C      0.10221  0.74238   0.1361     C
C      0.10328  0.54376   0.5695     C
C      0.10715  0.23005  0.90283     C
C      0.10724  0.45423  0.06583     C
N      0.10863  0.83194  0.26273     N
H      0.10917  0.93923  0.00443     H
C      0.10964  0.21999  0.64553     C
C      0.10969  0.92694  0.91413     C
C      0.11001  0.35748  0.12883     C
H      0.11027  0.87773  0.55533     H
C      0.11036  0.89036  0.64553     C
C      0.11334  0.55631   0.3122     C
C      0.11347  0.75159  0.71763     C
C      0.11407  0.63602   0.9051     C
C      0.11478  0.39426  0.21463     C
C      0.11513  0.29782  0.04603     C
H      0.11647  0.73703  0.80013     H
C      0.11746  0.61315   0.7892     C
C       0.1209  0.68033   0.2675     C
H      0.12227  0.23253  0.55533     H
C      0.12291  0.89285  0.90283     C
C      0.12301  0.87499  0.76763     C
H      0.12313  0.08877  0.20017     H
C      0.12468  0.26075  0.03333     C
C      0.12501  0.24801  0.76763     C
N      0.12523  0.07887  0.57647     N
H       0.1283   0.6599   0.3154     H
N      0.13075  0.33059  0.15553     N
H      0.13147  0.46603  0.40833     H
H      0.13177  0.85223  0.75853     H
H       0.1327   0.6679    0.925     H
N      0.13349  0.79741  0.51113     N
H      0.13507  0.46163  0.01793     H
N       0.1358  0.75884   0.2357     N
C      0.13608  0.87532  0.03333     C
H       0.1391   0.6263    0.714     H
C        0.141  0.40957  0.34123     C
C      0.14455  0.72778   0.2998     C
C      0.14472   0.4474  0.42823     C
C       0.1455  0.08674  0.47217     C
H      0.14777  0.27953  0.75853     H
C      0.14993  0.25187  0.13643     C
C      0.15059  0.55698   0.5808     C
C      0.15064  0.78179  0.62063     C
H      0.15387  0.19423  0.04733     H
C      0.15466  0.09738  0.20847     C
C       0.1601  0.56879   0.3248     C
C      0.16236  0.21587  0.12253     C
H       0.1634   0.5575   0.6711     H
N      0.16528  0.38998  0.40393     N
H      0.16543  0.92807  0.29627     H
Co     0.16667  0.33333  0.33333    Co
Co     0.16667  0.83333  0.33333    Co
H       0.1679   0.7386   0.3704     H
N      0.16806  0.27668  0.26273     N
H      0.16993  0.10917  0.99557     H
C      0.17098  0.45079  0.54413     C
C      0.17323  0.09788  0.34187     C
C      0.17867  0.56929   0.4582     C
H      0.17947  0.47243  0.61933     H
C       0.1827  0.88487  0.04603     C
C      0.18274  0.10969  0.08587     C
C      0.18341  0.41479  0.53023     C
H      0.18557  0.38713  0.90813     H
C      0.18783  0.57993   0.1945     C
C      0.18862  0.21926  0.23843     C
C      0.18878  0.93889  0.36687     C
C      0.19234  0.25709  0.32543     C
H      0.19423  0.04037  0.95267     H
C      0.19726  0.79134  0.63333     C
N      0.19753  0.90783  0.43097     N
H      0.19827  0.20503  0.64873     H
N      0.19985  0.86925  0.15553     N
H      0.20063  0.99877  0.74167     H
H      0.20157  0.81443  0.90813     H
H      0.20187  0.20063  0.25833     H
N      0.20259  0.33607  0.51113     N
H      0.20503  0.00677  0.35127     H
N       0.2081   0.5878   0.0902     N
C      0.20833  0.41865  0.89903     C
C      0.20866  0.40591  0.63333     C
H       0.2102   0.5779   0.4665     H
C      0.21033  0.79167  0.89903     C
C      0.21043  0.77381  0.76383     C
H      0.21107  0.43413  0.11133     H
C      0.21243  0.98634  0.39917     C
C      0.21587  0.05352  0.87747     C
H      0.21687  0.92963  0.86653     H
C      0.21821  0.36884  0.62063     C
C      0.21856   0.2724  0.45203     C
C      0.21926  0.03065  0.76157     C
C      0.21987  0.91507  0.94903     C
C      0.21999  0.11036  0.35447     C
C      0.22298   0.7763  0.02113     C
H      0.22307  0.78893  0.11133     H
C      0.22333  0.30918  0.53783     C
C      0.22365  0.73972  0.75253     C
C       0.2237  0.44667  0.02113     C
H      0.22417  0.72743  0.66223     H
N      0.22471  0.83472  0.40393     N
C       0.2261  0.21243  0.60083     C
C      0.22619  0.43661  0.76383     C
C      0.23005  0.12291  0.09717     C
C      0.23112  0.92429  0.53057     C
C      0.23139  0.81659  0.53023     C
H      0.23253  0.11027  0.44467     H
C      0.23546  0.74202  0.00853     C
C      0.23596  0.72395  0.87513     C
H       0.2364   0.3319   0.0902     H
H      0.23737  0.16543  0.70373     H
H      0.23783  0.90307  0.57647     H
N      0.24116  0.37696   0.2357     N
C      0.24409  0.24708  0.49663     C
H      0.24457  0.70103  0.86683     H
C       0.2466  0.72543  0.13883     C
C      0.24708    0.003  0.50337     C
C      0.24748  0.88999  0.12883     C
C      0.24801  0.12301  0.23237     C
C      0.24841  0.36187  0.71763     C
C       0.2499  0.18878  0.63313     C
C      0.25158   0.3254  0.66713     C
C      0.25187  0.10195  0.86357     C
N      0.25447  0.71303  0.24313     N
C      0.25652  0.97109  0.56987     C
C      0.25709  0.06476  0.67457     C
C      0.25762  0.35983   0.1361     C
C      0.25798  0.49343  0.00853     C
C      0.25951  0.91824  0.99953     C
C      0.26028  0.48392  0.75253     C
C      0.26075  0.13608  0.96667     C
H       0.2614   0.4293   0.3704     H
H      0.26297  0.37943  0.80013     H
C      0.26858    0.859  0.34123     C
H      0.26877  0.31283  0.70793     H
C      0.27222  0.41677   0.2998     C
C       0.2724  0.05385  0.54797     C
H      0.27257  0.49673  0.66223     H
C      0.27457  0.52116  0.13883     C
C      0.27605    0.512  0.87513     C
N      0.27668  0.10863  0.73727     N
C      0.27949  0.88522  0.21463     C
H      0.27953  0.13177  0.24147     H
H      0.27973  0.98087  0.64047     H
C      0.27982  0.82902  0.54413     C
C      0.28544  0.25652  0.43013     C
N      0.28697  0.54143  0.24313     N
H      0.28723  0.21687  0.13347     H
H      0.28927  0.93543  0.95873     H
N      0.28971  0.19753  0.56903     N
H      0.29297  0.82053  0.61933     H
C      0.29782   0.1827  0.95397     C
H      0.29887  0.27973  0.35953     H
H      0.29897  0.54353  0.86683     H
C      0.30269  0.85528  0.42823     C
C      0.30442  0.38123   0.0968     C
C      0.30479  0.21987  0.05097     C
C      0.30684  0.23112  0.46943     C
C      0.30918  0.08586  0.46217     C
H      0.31283  0.04407  0.29207     H
H       0.3142   0.3678   0.0262     H
C      0.31967  0.44057   0.2675     C
C       0.3254  0.07383  0.33287     C
H      0.32657  0.86493  0.01793     H
C      0.33034  0.91075  0.17003     C
N      0.33059  0.19985  0.84447     N
H       0.3319   0.0955   0.9098     H
H       0.3321   0.4648    0.925     H
Co     0.33333  0.16667  0.66667    Co
H      0.33457  0.86853  0.40833     H
H      0.33477  0.23783  0.42353     H
N      0.33607  0.13349  0.48887     N
C      0.33633  0.42258   0.1633     C
H       0.3401   0.4684   0.3154     H
C      0.34126  0.25951  0.00047     C
C        0.347  0.89276  0.06583     C
H      0.35247  0.96553  0.30713     H
H      0.35383  0.28927  0.04127     H
C      0.35748  0.24748  0.87117     C
C      0.35983  0.10221   0.8639     C
C      0.36187  0.11347  0.28237     C
C      0.36225   0.9521  0.23653     C
C      0.36398  0.47805   0.9051     C
H       0.3677   0.7898   0.4665     H
H       0.3678   0.0536   0.9738     H
C      0.36884  0.15064  0.37937     C
H       0.3737   0.5128    0.714     H
N      0.37696   0.1358   0.7643     N
H       0.3774   0.3979   0.3746     H
H      0.37943  0.11647  0.19987     H
N       0.3797   0.7919   0.0902     N
C      0.38123  0.07681   0.9032     C
C      0.38685  0.50431   0.7892     C
H      0.38693  0.35247  0.69287     H
H      0.38713  0.20157  0.09187     H
C      0.38718  0.44811   0.1187     C
N      0.38998  0.22471  0.59607     N
C      0.39062  0.82133   0.4582     C
C       0.3921  0.81217   0.1945     C
H       0.3941   0.8366   0.6711     H
C      0.39426  0.27949  0.78537     C
C      0.39445  0.91656  0.03353     C
H       0.3979   0.0205   0.6254     H
C      0.39809  0.47433   0.9921     C
H       0.4037   0.9539   0.5332     H
H      0.40527  0.90403  0.96293     H
C      0.40591  0.19726  0.36667     C
C      0.40639  0.84941   0.5808     C
C      0.40716  0.41509   0.3338     C
C      0.40869   0.8399   0.3248     C
C      0.40905   0.9735  0.19723     C
C      0.40957  0.26858  0.65877     C
C      0.41014  0.36225  0.76347     C
N       0.4122   0.6203   0.0902     N
C      0.41479  0.23139  0.46977     C
C      0.41509  0.00793   0.6662     C
C      0.41677  0.14455   0.7002     C
C      0.41826  0.97146   0.6157     C
C      0.41865  0.21033  0.10097     C
C      0.41919  0.44334   0.2045     C
C      0.41958  0.33034  0.82997     C
C      0.42007   0.6079   0.1945     C
H       0.4221   0.6323   0.4665     H
C      0.42258  0.08625   0.8367     C
N      0.42551  0.95637  0.09763     N
H      0.42883  0.43027  0.75687     H
H       0.4293   0.1679   0.6296     H
H      0.43027  0.00143  0.24313     H
C      0.43071  0.60938   0.4582     C
C      0.43121  0.59131   0.3248     C
H      0.43413  0.22307  0.88867     H
C      0.43528  0.51674   0.8031     C
C      0.43554  0.40905  0.80277     C
C      0.43661  0.21043  0.23617     C
C      0.44048  0.89672   0.5695     C
C      0.44057   0.1209   0.7325     C
N      0.44196  0.49861   0.9294     N
H       0.4425   0.6059   0.6711     H
C      0.44297  0.88666   0.3122     C
C      0.44302  0.59361   0.5808     C
C      0.44334  0.02415   0.7955     C
H       0.4436   0.5444    0.222     H
C      0.44369  0.55703   0.3122     C
C      0.44667  0.22298  0.97887     C
C       0.4468  0.41826   0.3843     C
C       0.4474  0.30269  0.57177     C
C      0.44811  0.06093   0.8813     C
C      0.44846  0.96449   0.7127     C
H       0.4498   0.4037   0.4668     H
C      0.45079  0.27982  0.45587     C
C      0.45423    0.347  0.93417     C
H       0.4556   0.8992    0.222     H
C      0.45624  0.55952   0.5695     C
C      0.45634  0.54166   0.4343     C
H      0.45647  0.75543  0.86683     H
C      0.45801  0.92742      0.7     C
C      0.45834  0.91468   0.4343     C
N      0.45857  0.74553  0.24313     N
H      0.46163  0.32657  0.98207     H
N      0.46408  0.99726   0.8222     N
H       0.4648   0.1327    0.075     H
H       0.4651   0.5189   0.4252     H
H      0.46603  0.33457  0.59167     H
N      0.46682  0.46408   0.1778     N
H       0.4684   0.1283   0.6846     H
N      0.46913  0.42551  0.90237     N
C      0.46941  0.54199      0.7     C
H      0.47243  0.29297  0.38067     H
C      0.47433  0.07624   0.0079     C
C      0.47788  0.39445  0.96647     C
C      0.47805  0.11407   0.0949     C
C      0.47884   0.7534  0.13883     C
H       0.4811   0.9462   0.4252     H
C      0.48326  0.91854   0.8031     C
C      0.48392  0.22365  0.24747     C
C      0.48397  0.44846   0.2873     C
H       0.4872   0.8609    0.714     H
C        0.488  0.76404  0.87513     C
C      0.49343  0.23546  0.99147     C
C      0.49569  0.88254   0.7892     C
H      0.49673  0.22417  0.33777     H
N      0.49861  0.05665   0.0706     N
H      0.49877  0.59473  0.96293     H
Co         0.5      0.0      0.0    Co
Co         0.5      0.5      0.0    Co
H      0.50123  0.40527  0.03707     H
N      0.50139  0.94335   0.9294     N
H      0.50327  0.77583  0.66223     H
C      0.50431  0.11746   0.2108     C
C      0.50657  0.76454  0.00853     C
C        0.512  0.23596  0.12487     C
H       0.5128   0.1391    0.286     H
C      0.51603  0.55154   0.7127     C
C      0.51608  0.77635  0.75253     C
C      0.51674  0.08146   0.1969     C
H       0.5189   0.0538   0.5748     H
C      0.52116   0.2466  0.86117     C
C      0.52195  0.88593   0.9051     C
C      0.52212  0.60555  0.03353     C
C      0.52567  0.92376   0.9921     C
H      0.52757  0.70703  0.61933     H
C      0.53059  0.45801      0.3     C
N      0.53087  0.57449  0.09763     N
H       0.5316   0.8717   0.3154     H
N      0.53318  0.53592   0.8222     N
H      0.53397  0.66543  0.40833     H
H       0.5349   0.4811   0.5748     H
H       0.5352   0.8673    0.925     H
N      0.53592  0.00274   0.1778     N
H      0.53837  0.67343  0.01793     H
N      0.54143  0.25447  0.75687     N
C      0.54166  0.08532   0.5657     C
C      0.54199  0.07258      0.3     C
H      0.54353  0.24457  0.13317     H
C      0.54366  0.45834   0.5657     C
C      0.54376  0.44048   0.4305     C
H       0.5444   0.1008    0.778     H
C      0.54577    0.653  0.06583     C
C      0.54921  0.72018  0.54413     C
H       0.5502   0.5963   0.5332     H
C      0.55154  0.03551   0.2873     C
C      0.55189  0.93907   0.1187     C
C       0.5526  0.69731  0.42823     C
C       0.5532  0.58174   0.6157     C
C      0.55333  0.77702  0.02113     C
C      0.55631  0.44297   0.6878     C
H       0.5564   0.4556    0.778     H
C      0.55666  0.97585   0.2045     C
C      0.55698  0.40639   0.4192     C
C      0.55703  0.11334   0.6878     C
H       0.5575   0.3941   0.3289     H
N      0.55804  0.50139   0.0706     N
C      0.55943   0.8791   0.2675     C
C      0.55952  0.10328   0.4305     C
C      0.56339  0.78957  0.76383     C
C      0.56446  0.59095  0.19723     C
C      0.56472  0.48326   0.1969     C
H      0.56587  0.77693  0.11133     H
C      0.56879  0.40869   0.6752     C
C      0.56929  0.39062   0.5418     C
H      0.56973  0.99857  0.75687     H
H       0.5707   0.8321   0.3704     H
H      0.57117  0.56973  0.24313     H
N      0.57449  0.04363  0.90237     N
C      0.57742  0.91375   0.1633     C
H       0.5779   0.3677   0.5335     H
C      0.57993   0.3921   0.8055     C
C      0.58042  0.66966  0.17003     C
C      0.58081  0.55666   0.7955     C
C      0.58135  0.78967  0.89903     C
C      0.58174  0.02854   0.3843     C
C      0.58323  0.85545   0.2998     C
C      0.58491  0.99207   0.3338     C
C      0.58521  0.76861  0.53023     C
N       0.5878   0.3797   0.9098     N
C      0.58986  0.63775  0.23653     C
C      0.59043  0.73142  0.34123     C
C      0.59095   0.0265  0.80277     C
C      0.59131   0.1601   0.6752     C
C      0.59284  0.58491   0.6662     C
C      0.59361  0.15059   0.4192     C
C      0.59409  0.80274  0.63333     C
H      0.59473  0.09597  0.03707     H
H       0.5963   0.0461   0.4668     H
C      0.60191  0.52567   0.0079     C
H       0.6021   0.9795   0.3746     H
C      0.60555  0.08344  0.96647     C
C      0.60574  0.72051  0.21463     C
H       0.6059   0.1634   0.3289     H
C       0.6079  0.18783   0.8055     C
C      0.60938  0.17867   0.5418     C
N      0.61002  0.77529  0.40393     N
C      0.61282  0.55189   0.8813     C
H      0.61287  0.79843  0.90813     H
H      0.61307  0.64753  0.30713     H
C      0.61315  0.49569   0.2108     C
C      0.61877  0.92319   0.0968     C
N       0.6203   0.2081   0.9098     N
H      0.62057  0.88353  0.80013     H
H       0.6226   0.6021   0.6254     H
N      0.62304   0.8642   0.2357     N
H       0.6263   0.4872    0.286     H
C      0.63116  0.84936  0.62063     C
H       0.6322   0.9464   0.0262     H
H       0.6323   0.2102   0.5335     H
C      0.63602  0.52195   0.0949     C
C      0.63775   0.0479  0.76347     C
C      0.63813  0.88653  0.71763     C
C      0.64017  0.89779   0.1361     C
C      0.64252  0.75252  0.12883     C
H      0.64617  0.71073  0.95873     H
H      0.64753  0.03447  0.69287     H
C        0.653  0.10724  0.93417     C
C      0.65874  0.74049  0.99953     C
H       0.6599   0.5316   0.6846     H
C      0.66367  0.57742   0.8367     C
N      0.66393  0.86651  0.51113     N
H      0.66523  0.76217  0.57647     H
H      0.66543  0.13147  0.59167     H
Co     0.66667  0.83333  0.33333    Co
H       0.6679   0.5352    0.075     H
H       0.6681   0.9045   0.0902     H
N      0.66941  0.80015  0.15553     N
C      0.66966  0.08925  0.82997     C
H      0.67343  0.13507  0.98207     H
C       0.6746  0.92617  0.66713     C
C      0.68033  0.55943   0.7325     C
H       0.6858   0.6322   0.9738     H
H      0.68717  0.95593  0.70793     H
C      0.69082  0.91414  0.53783     C
C      0.69316  0.76888  0.53057     C
C      0.69521  0.78013  0.94903     C
C      0.69558  0.61877   0.9032     C
C      0.69731  0.14472  0.57177     C
H      0.70103  0.45647  0.13317     H
H      0.70113  0.72027  0.64047     H
C      0.70218   0.8173  0.04603     C
H      0.70703  0.17947  0.38067     H
N      0.71029  0.80247  0.43097     N
H      0.71073  0.06457  0.04127     H
H      0.71277  0.78313  0.86653     H
N      0.71303  0.45857  0.75687     N
C      0.71456  0.74348  0.56987     C
C      0.72018  0.17098  0.45587     C
H      0.72027  0.01913  0.35953     H
H      0.72047  0.86823  0.75853     H
C      0.72051  0.11478  0.78537     C
N      0.72332  0.89137  0.26273     N
C      0.72395    0.488  0.12487     C
C      0.72543  0.47884  0.86117     C
H      0.72743  0.50327  0.33777     H
C       0.7276  0.94615  0.45203     C
C      0.72778  0.58323   0.7002     C
H      0.73123  0.68717  0.29207     H
C      0.73142    0.141  0.65877     C
H      0.73703  0.62057  0.19987     H
H       0.7386   0.5707   0.6296     H
C      0.73925  0.86392  0.03333     C
C      0.73972  0.51608  0.24747     C
C      0.74049  0.08176  0.00047     C
C      0.74202  0.50657  0.99147     C
C      0.74238  0.64017   0.8639     C
C      0.74291  0.93524  0.32543     C
C      0.74348  0.02891  0.43013     C
N      0.74553  0.28697  0.75687     N
C      0.74813  0.89805  0.13643     C
C      0.74842   0.6746  0.33287     C
C       0.7501  0.81122  0.36687     C
C      0.75159  0.63813  0.28237     C
C      0.75199  0.87699  0.76763     C
C      0.75252  0.11001  0.87117     C
C      0.75292    0.997  0.49663     C
C       0.7534  0.27457  0.86117     C
H      0.75543  0.29897  0.13317     H
C      0.75591  0.75292  0.50337     C
N      0.75884  0.62304   0.7643     N
H      0.76217  0.09693  0.42353     H
H      0.76263  0.83457  0.29627     H
H       0.7636   0.6681   0.9098     H
C      0.76404  0.27605  0.12487     C
C      0.76454  0.25798  0.99147     C
H      0.76747  0.88973  0.55533     H
C      0.76861  0.18341  0.46977     C
C      0.76888  0.07571  0.46943     C
C      0.76995  0.87709  0.90283     C
C      0.77381  0.56339  0.23617     C
C       0.7739  0.78757  0.39917     C
N      0.77529  0.16528  0.59607     N
H      0.77583  0.27257  0.33777     H
C       0.7763  0.55333  0.97887     C
C      0.77635  0.26028  0.24747     C
C      0.77667  0.69082  0.46217     C
H      0.77693  0.21107  0.88867     H
C      0.77702   0.2237  0.97887     C
C      0.78001  0.88964  0.64553     C
C      0.78013  0.08493  0.05097     C
C      0.78074  0.96935  0.23843     C
C      0.78144   0.7276  0.54797     C
C      0.78179  0.63116  0.37937     C
H      0.78313  0.07037  0.13347     H
C      0.78413  0.94648  0.12253     C
C      0.78757  0.01366  0.60083     C
H      0.78893  0.56587  0.88867     H
C      0.78957  0.22619  0.23617     C
C      0.78967  0.20833  0.10097     C
H       0.7898   0.4221   0.5335     H
C      0.79134  0.59409  0.36667     C
C      0.79167  0.58135  0.10097     C
N       0.7919   0.4122   0.9098     N
H      0.79497  0.99323  0.64873     H
N      0.79741  0.66393  0.48887     N
H      0.79813  0.79937  0.74167     H
H      0.79843  0.18557  0.09187     H
H      0.79937  0.00123  0.25833     H
N      0.80015  0.13075  0.84447     N
H      0.80173  0.79497  0.35127     H
N      0.80247  0.09217  0.56903     N
C      0.80274  0.20866  0.36667     C
H      0.80577  0.95963  0.04733     H
C      0.80766  0.74291  0.67457     C
C      0.81122  0.06111  0.63313     C
C      0.81138  0.78074  0.76157     C
C      0.81217  0.42007   0.8055     C
H      0.81443  0.61287  0.09187     H
C      0.81659  0.58521  0.46977     C
C      0.81726  0.89031  0.91413     C
C       0.8173  0.11513  0.95397     C
H      0.82053  0.52757  0.38067     H
C      0.82133  0.43071   0.5418     C
C      0.82677  0.90212  0.65813     C
C      0.82902  0.54921  0.45587     C
H      0.83007  0.89083  0.00443     H
N      0.83194  0.72332  0.73727     N
H       0.8321   0.2614   0.6296     H
Co     0.83333  0.16667  0.66667    Co
Co     0.83333  0.66667  0.66667    Co
H      0.83457  0.07193  0.70373     H
N      0.83472  0.61002  0.59607     N
H       0.8366   0.4425   0.3289     H
C      0.83764  0.78413  0.87747     C
C       0.8399  0.43121   0.6752     C
C      0.84534  0.90262  0.79153     C
H      0.84613  0.80577  0.95267     H
C      0.84936  0.21821  0.37937     C
C      0.84941  0.44302   0.4192     C
C      0.85007  0.74813  0.86357     C
H      0.85223  0.72047  0.24147     H
C       0.8545  0.91326  0.52783     C
C      0.85528   0.5526  0.57177     C
C      0.85545  0.27222   0.7002     C
C        0.859  0.59043  0.65877     C
H       0.8609   0.3737    0.286     H
C      0.86392  0.12468  0.96667     C
N       0.8642  0.24116   0.7643     N
H      0.86493  0.53837  0.98207     H
N      0.86651  0.20259  0.48887     N
H       0.8673   0.3321    0.075     H
H      0.86823  0.14777  0.24147     H
H      0.86853  0.53397  0.59167     H
N      0.86925  0.66941  0.84447     N
H       0.8717   0.3401   0.6846     H
N      0.87477  0.92113  0.42353     N
C      0.87499  0.75199  0.23237     C
C      0.87532  0.73925  0.96667     C
H      0.87687  0.91123  0.79983     H
C      0.87699  0.12501  0.23237     C
C      0.87709  0.10715  0.09717     C
H      0.87773  0.76747  0.44467     H
C       0.8791  0.31967   0.7325     C
C      0.88254  0.38685   0.2108     C
H      0.88353  0.26297  0.19987     H
C      0.88487  0.70218  0.95397     C
C      0.88522  0.60574  0.78537     C
C      0.88593  0.36398   0.0949     C
C      0.88653  0.24841  0.28237     C
C      0.88666  0.44369   0.6878     C
C      0.88964  0.10964  0.35447     C
H      0.88973  0.12227  0.44467     H
C      0.88999  0.64252  0.87117     C
C      0.89031  0.07306  0.08587     C
C      0.89036  0.78001  0.35447     C
H      0.89083  0.06077  0.99557     H
N      0.89137  0.16806  0.73727     N
C      0.89276  0.54577  0.93417     C
C      0.89285  0.76995  0.09717     C
C      0.89672  0.45624   0.4305     C
C      0.89779  0.25762   0.8639     C
C      0.89805  0.14993  0.86357     C
H       0.8992   0.4436    0.778     H
C      0.90212  0.07536  0.34187     C
C      0.90262  0.05729  0.20847     C
H      0.90307  0.66523  0.42353     H
H      0.90403  0.49877  0.03707     H
H       0.9045   0.2364   0.9098     H
N      0.90783  0.71029  0.56903     N
C      0.91075  0.58042  0.82997     C
H      0.91123  0.03437  0.20017     H
C      0.91326  0.05877  0.47217     C
C      0.91375  0.33633   0.8367     C
C      0.91414  0.22333  0.46217     C
C      0.91468  0.45634   0.5657     C
C      0.91507  0.69521  0.05097     C
C      0.91656  0.52212  0.96647     C
C      0.91824  0.65874  0.00047     C
C      0.91854  0.43528   0.1969     C
N      0.92113  0.04637  0.57647     N
C      0.92319  0.30442   0.9032     C
C      0.92376  0.39809   0.0079     C
C      0.92429  0.69316  0.46943     C
C      0.92464  0.82677  0.34187     C
C      0.92617  0.25158  0.33287     C
C      0.92694  0.81726  0.08587     C
C      0.92742  0.46941      0.3     C
H      0.92807  0.76263  0.70373     H
H      0.92963  0.71277  0.13347     H
C      0.93524  0.19234  0.67457     C
H      0.93543  0.64617  0.04127     H
C      0.93889   0.7501  0.63313     C
C      0.93907  0.38718   0.8813     C
H      0.93923  0.83007  0.99557     H
C      0.94123   0.8545  0.47217     C
C      0.94271  0.84534  0.20847     C
N      0.94335  0.44196   0.0706     N
C      0.94615  0.21856  0.54797     C
H       0.9462   0.4651   0.5748     H
H       0.9464   0.3142   0.9738     H
C      0.94648  0.16236  0.87747     C
C       0.9521  0.58986  0.76347     C
N      0.95363  0.87477  0.57647     N
H       0.9539   0.5502   0.4668     H
H      0.95593  0.26877  0.29207     H
N      0.95637  0.53087  0.90237     N
H      0.95963  0.15387  0.95267     H
C      0.96449  0.51603   0.2873     C
H      0.96553  0.61307  0.69287     H
H      0.96563  0.87687  0.20017     H
C      0.96935  0.18862  0.76157     C
C      0.97109  0.71456  0.43013     C
C      0.97146   0.5532   0.3843     C
C       0.9735  0.56446  0.80277     C
C      0.97585  0.41919   0.7955     C
H       0.9795   0.3774   0.6254     H
H      0.98087  0.70113  0.35953     H
C      0.98634   0.7739  0.60083     C
C      0.99207  0.40716   0.6662     C
H      0.99323  0.19827  0.35127     H
C        0.997  0.24409  0.50337     C
N      0.99726  0.53318   0.1778     N
H      0.99857  0.42883  0.24313     H
H      0.99877  0.79813  0.25833     H
