data_I
_chemical_name_common  '/home/zhangsd/repos/MofS-CGCNN/ML/data/TSD/clean_cifs/MUTDIQ_clean'
_cell_length_a 19.69200
_cell_length_b 19.69200
_cell_length_c 20.10100
_cell_angle_alpha 90.00000
_cell_angle_beta  90.00000
_cell_angle_gamma 90.00000
_space_group_name_H-M_alt      'P 1'


loop_
_space_group_symop_operation_xyz
  'x, y, z' 

loop_
_atom_site_label
_atom_site_fract_x
_atom_site_fract_y
_atom_site_fract_z
_atom_site_type_symbol
H       0.0004   0.1522   0.8163     H
H       0.0004    0.424   0.9031     H
H       0.0004   0.6522   0.1837     H
H       0.0004    0.924   0.0969     H
C       0.0047   0.0618   0.6466     C
C       0.0047   0.5618   0.3534     C
N       0.0121   0.0362  0.58633     N
N       0.0121   0.5362  0.41367     N
C       0.0404   0.0901   0.8843     C
C       0.0404   0.5901   0.1157     C
C       0.0409   0.1348    0.833     C
C       0.0409   0.6348    0.167     C
H       0.0412   0.0711   0.6745     H
H       0.0412   0.5711   0.3255     H
N      0.05269  0.47066  0.56176     N
N      0.05269  0.97066  0.43824     N
N       0.0607   0.4267  0.66422     N
N       0.0607   0.9267  0.33578     N
H       0.0652   0.3514   0.4791     H
H       0.0652   0.8514   0.5209     H
C       0.0935   0.4482   0.6097     C
C       0.0935   0.9482   0.3903     C
C        0.096   0.3517    0.444     C
C        0.096   0.8517    0.556     C
H       0.0978   0.2504   0.4337     H
H       0.0978   0.7504   0.5663     H
H       0.1014   0.1848   0.7709     H
H       0.1014   0.6848   0.2291     H
C       0.1017    0.154    0.806     C
C       0.1017    0.654    0.194     C
C       0.1019   0.0658   0.9084     C
C       0.1019   0.5658   0.0916     C
H       0.1029    0.035   0.9435     H
H       0.1029    0.535   0.0565     H
Mn     0.10456  0.01543   0.5273    Mn
Mn     0.10456  0.51543   0.4727    Mn
C       0.1152   0.2909    0.417     C
C       0.1152   0.7909    0.583     C
N       0.1195   0.4115  0.42236     N
N       0.1195   0.9115  0.57764     N
C       0.1599   0.2904   0.3657     C
C       0.1599   0.7904   0.6343     C
C       0.1613    0.088   0.8795     C
C       0.1613    0.588   0.1205     C
N       0.1615   0.1305  0.82764     N
N       0.1615   0.6305  0.17236     N
C        0.162   0.4113   0.3705     C
C        0.162   0.9113   0.6295     C
C       0.1659    0.449   0.5977     C
C       0.1659    0.949   0.4023     C
N      0.17061  0.03478  0.61507     N
N      0.17061  0.53478  0.38493     N
H        0.174   0.2496   0.3469     H
H        0.174   0.7496   0.6531     H
N       0.1767   0.1893  0.58578     N
N       0.1767   0.6893  0.41422     N
H       0.1789   0.2912   0.5755     H
H       0.1789   0.7912   0.4245     H
C       0.1842   0.3519   0.3416     C
C       0.1842   0.8519   0.6584     C
C        0.185   0.4785   0.3494     C
C        0.185   0.9785   0.6506     C
C       0.1882   0.2547   0.6034     C
C       0.1882   0.7547   0.3966     C
N       0.1898   0.4785  0.54294     N
N       0.1898   0.9785  0.45706     N
C       0.1982   0.1565   0.6403     C
C       0.1982   0.6565   0.3597     C
C        0.199   0.0841   0.6523     C
C        0.199   0.5841   0.3477     C
N       0.2138   0.2621  0.66367     N
N       0.2138   0.7621  0.33633     N
H        0.215   0.3529   0.3065     H
H        0.215   0.8529   0.6935     H
N      0.21522  0.42061  0.63493     N
N      0.21522  0.92061  0.36507     N
N       0.2193   0.4912  0.29348     N
N       0.2193   0.9912  0.70652     N
N      0.22066  0.19731  0.68824     N
N      0.22066  0.69731  0.31176     N
N       0.2285   0.0602  0.70706     N
C       0.2285    0.065   0.9006     C
N       0.2285   0.5602  0.29294     N
C       0.2285    0.565   0.0994     C
Mn     0.23457  0.35456   0.7227    Mn
Mn     0.23457  0.85456   0.2773    Mn
N       0.2412   0.0307  0.95652     N
N       0.2412   0.5307  0.04348     N
N       0.2588   0.4693  0.54348     N
N       0.2588   0.9693  0.45652     N
Mn     0.26543  0.14544   0.7773    Mn
Mn     0.26543  0.64544   0.2227    Mn
C       0.2715    0.435   0.5994     C
N       0.2715   0.4398  0.79294     N
C       0.2715    0.935   0.4006     C
N       0.2715   0.9398  0.20706     N
N      0.27934  0.30269  0.81176     N
N      0.27934  0.80269  0.18824     N
N       0.2807   0.0088  0.20652     N
N       0.2807   0.5088  0.79348     N
N      0.28478  0.07939  0.86507     N
N      0.28478  0.57939  0.13493     N
H        0.285   0.1471   0.1935     H
H        0.285   0.6471   0.8065     H
N       0.2862   0.2379  0.83633     N
N       0.2862   0.7379  0.16367     N
C        0.301   0.4159   0.8477     C
C        0.301   0.9159   0.1523     C
C       0.3018   0.3435   0.8597     C
C       0.3018   0.8435   0.1403     C
N       0.3102   0.0215  0.95706     N
N       0.3102   0.5215  0.04294     N
C       0.3118   0.2453   0.8966     C
C       0.3118   0.7453   0.1034     C
C        0.315   0.0215   0.1506     C
C        0.315   0.5215   0.8494     C
C       0.3158   0.1481   0.1584     C
C       0.3158   0.6481   0.8416     C
H       0.3211   0.2088   0.9245     H
H       0.3211   0.7088   0.0755     H
N       0.3233   0.3107  0.91422     N
N       0.3233   0.8107  0.08578     N
H        0.326   0.2504   0.1531     H
H        0.326   0.7504   0.8469     H
N      0.32939  0.46522  0.88493     N
N      0.32939  0.96522  0.11507     N
C       0.3341    0.051   0.9023     C
C       0.3341    0.551   0.0977     C
C        0.338   0.0887   0.1295     C
C        0.338   0.5887   0.8705     C
N       0.3385   0.3695  0.67236     N
N       0.3385   0.8695  0.32764     N
C       0.3387    0.412   0.6205     C
C       0.3387    0.912   0.3795     C
C       0.3401   0.2096   0.1343     C
C       0.3401   0.7096   0.8657     C
N       0.3805   0.0885  0.07764     N
N       0.3805   0.5885  0.92236     N
C       0.3848   0.2091    0.083     C
C       0.3848   0.7091    0.917     C
Mn     0.39544  0.48457   0.9727    Mn
Mn     0.39544  0.98457   0.0273    Mn
H       0.3971    0.465   0.5565     H
H       0.3971    0.965   0.4435     H
C       0.3981   0.4342   0.5916     C
C       0.3981   0.9342   0.4084     C
C       0.3983    0.346    0.694     C
C       0.3983    0.846    0.306     C
H       0.3986   0.3152   0.7291     H
H       0.3986   0.8152   0.2709     H
H       0.4022   0.2496   0.0663     H
H       0.4022   0.7496   0.9337     H
C        0.404   0.1483    0.056     C
C        0.404   0.6483    0.944     C
C       0.4065   0.0518   0.8903     C
C       0.4065   0.5518   0.1097     C
H       0.4348   0.1486   0.0209     H
H       0.4348   0.6486   0.9791     H
N       0.4393   0.0733  0.83578     N
N       0.4393   0.5733  0.16422     N
N      0.44731  0.02934  0.93824     N
N      0.44731  0.52934  0.06176     N
H       0.4588   0.4289   0.8255     H
H       0.4588   0.9289   0.1745     H
C       0.4591   0.3652    0.667     C
C       0.4591   0.8652    0.333     C
C       0.4596   0.4099   0.6157     C
C       0.4596   0.9099   0.3843     C
N       0.4879   0.4638  0.91367     N
N       0.4879   0.9638  0.08633     N
C       0.4953   0.4382   0.8534     C
C       0.4953   0.9382   0.1466     C
H       0.4996    0.076   0.5969     H
H       0.4996   0.3478   0.6837     H
H       0.4996    0.576   0.4031     H
H       0.4996   0.8478   0.3163     H
H       0.5004   0.1522   0.6837     H
H       0.5004    0.424   0.5969     H
H       0.5004   0.6522   0.3163     H
H       0.5004    0.924   0.4031     H
C       0.5047   0.0618   0.8534     C
C       0.5047   0.5618   0.1466     C
N       0.5121   0.0362  0.91367     N
N       0.5121   0.5362  0.08633     N
C       0.5404   0.0901   0.6157     C
C       0.5404   0.5901   0.3843     C
C       0.5409   0.1348    0.667     C
C       0.5409   0.6348    0.333     C
H       0.5412   0.0711   0.8255     H
H       0.5412   0.5711   0.1745     H
N      0.55269  0.47066  0.93824     N
N      0.55269  0.97066  0.06176     N
N       0.5607   0.4267  0.83578     N
N       0.5607   0.9267  0.16422     N
H       0.5652   0.3514   0.0209     H
H       0.5652   0.8514   0.9791     H
C       0.5935   0.4482   0.8903     C
C       0.5935   0.9482   0.1097     C
C        0.596   0.3517    0.056     C
C        0.596   0.8517    0.944     C
H       0.5978   0.2504   0.0663     H
H       0.5978   0.7504   0.9337     H
H       0.6014   0.1848   0.7291     H
H       0.6014   0.6848   0.2709     H
C       0.6017    0.154    0.694     C
C       0.6017    0.654    0.306     C
C       0.6019   0.0658   0.5916     C
C       0.6019   0.5658   0.4084     C
H       0.6029    0.035   0.5565     H
H       0.6029    0.535   0.4435     H
Mn     0.60456  0.01543   0.9727    Mn
Mn     0.60456  0.51543   0.0273    Mn
C       0.6152   0.2909    0.083     C
C       0.6152   0.7909    0.917     C
N       0.6195   0.4115  0.07764     N
N       0.6195   0.9115  0.92236     N
C       0.6599   0.2904   0.1343     C
C       0.6599   0.7904   0.8657     C
C       0.6613    0.088   0.6205     C
C       0.6613    0.588   0.3795     C
N       0.6615   0.1305  0.67236     N
N       0.6615   0.6305  0.32764     N
C        0.662   0.4113   0.1295     C
C        0.662   0.9113   0.8705     C
C       0.6659    0.449   0.9023     C
C       0.6659    0.949   0.0977     C
N      0.67061  0.03478  0.88493     N
N      0.67061  0.53478  0.11507     N
H        0.674   0.2496   0.1531     H
H        0.674   0.7496   0.8469     H
N       0.6767   0.1893  0.91422     N
N       0.6767   0.6893  0.08578     N
H       0.6789   0.2912   0.9245     H
H       0.6789   0.7912   0.0755     H
C       0.6842   0.3519   0.1584     C
C       0.6842   0.8519   0.8416     C
C        0.685   0.4785   0.1506     C
C        0.685   0.9785   0.8494     C
C       0.6882   0.2547   0.8966     C
C       0.6882   0.7547   0.1034     C
N       0.6898   0.4785  0.95706     N
N       0.6898   0.9785  0.04294     N
C       0.6982   0.1565   0.8597     C
C       0.6982   0.6565   0.1403     C
C        0.699   0.0841   0.8477     C
C        0.699   0.5841   0.1523     C
N       0.7138   0.2621  0.83633     N
N       0.7138   0.7621  0.16367     N
H        0.715   0.3529   0.1935     H
H        0.715   0.8529   0.8065     H
N      0.71522  0.42061  0.86507     N
N      0.71522  0.92061  0.13493     N
N       0.7193   0.4912  0.20652     N
N       0.7193   0.9912  0.79348     N
N      0.72066  0.19731  0.81176     N
N      0.72066  0.69731  0.18824     N
N       0.7285   0.0602  0.79294     N
C       0.7285    0.065   0.5994     C
N       0.7285   0.5602  0.20706     N
C       0.7285    0.565   0.4006     C
Mn     0.73457  0.35456   0.7773    Mn
Mn     0.73457  0.85456   0.2227    Mn
N       0.7412   0.0307  0.54348     N
N       0.7412   0.5307  0.45652     N
N       0.7588   0.4693  0.95652     N
N       0.7588   0.9693  0.04348     N
Mn     0.76543  0.14544   0.7227    Mn
Mn     0.76543  0.64544   0.2773    Mn
C       0.7715    0.435   0.9006     C
N       0.7715   0.4398  0.70706     N
C       0.7715    0.935   0.0994     C
N       0.7715   0.9398  0.29294     N
N      0.77934  0.30269  0.68824     N
N      0.77934  0.80269  0.31176     N
N       0.7807   0.0088  0.29348     N
N       0.7807   0.5088  0.70652     N
N      0.78478  0.07939  0.63493     N
N      0.78478  0.57939  0.36507     N
H        0.785   0.1471   0.3065     H
H        0.785   0.6471   0.6935     H
N       0.7862   0.2379  0.66367     N
N       0.7862   0.7379  0.33633     N
C        0.801   0.4159   0.6523     C
C        0.801   0.9159   0.3477     C
C       0.8018   0.3435   0.6403     C
C       0.8018   0.8435   0.3597     C
N       0.8102   0.0215  0.54294     N
N       0.8102   0.5215  0.45706     N
C       0.8118   0.2453   0.6034     C
C       0.8118   0.7453   0.3966     C
C        0.815   0.0215   0.3494     C
C        0.815   0.5215   0.6506     C
C       0.8158   0.1481   0.3416     C
C       0.8158   0.6481   0.6584     C
H       0.8211   0.2088   0.5755     H
H       0.8211   0.7088   0.4245     H
N       0.8233   0.3107  0.58578     N
N       0.8233   0.8107  0.41422     N
H        0.826   0.2504   0.3469     H
H        0.826   0.7504   0.6531     H
N      0.82939  0.46522  0.61507     N
N      0.82939  0.96522  0.38493     N
C       0.8341    0.051   0.5977     C
C       0.8341    0.551   0.4023     C
C        0.838   0.0887   0.3705     C
C        0.838   0.5887   0.6295     C
N       0.8385   0.3695  0.82764     N
N       0.8385   0.8695  0.17236     N
C       0.8387    0.412   0.8795     C
C       0.8387    0.912   0.1205     C
C       0.8401   0.2096   0.3657     C
C       0.8401   0.7096   0.6343     C
N       0.8805   0.0885  0.42236     N
N       0.8805   0.5885  0.57764     N
C       0.8848   0.2091    0.417     C
C       0.8848   0.7091    0.583     C
Mn     0.89544  0.48457   0.5273    Mn
Mn     0.89544  0.98457   0.4727    Mn
H       0.8971    0.465   0.9435     H
H       0.8971    0.965   0.0565     H
C       0.8981   0.4342   0.9084     C
C       0.8981   0.9342   0.0916     C
C       0.8983    0.346    0.806     C
C       0.8983    0.846    0.194     C
H       0.8986   0.3152   0.7709     H
H       0.8986   0.8152   0.2291     H
H       0.9022   0.2496   0.4337     H
H       0.9022   0.7496   0.5663     H
C        0.904   0.1483    0.444     C
C        0.904   0.6483    0.556     C
C       0.9065   0.0518   0.6097     C
C       0.9065   0.5518   0.3903     C
H       0.9348   0.1486   0.4791     H
H       0.9348   0.6486   0.5209     H
N       0.9393   0.0733  0.66422     N
N       0.9393   0.5733  0.33578     N
N      0.94731  0.02934  0.56176     N
N      0.94731  0.52934  0.43824     N
H       0.9588   0.4289   0.6745     H
H       0.9588   0.9289   0.3255     H
C       0.9591   0.3652    0.833     C
C       0.9591   0.8652    0.167     C
C       0.9596   0.4099   0.8843     C
C       0.9596   0.9099   0.1157     C
N       0.9879   0.4638  0.58633     N
N       0.9879   0.9638  0.41367     N
C       0.9953   0.4382   0.6466     C
C       0.9953   0.9382   0.3534     C
H       0.9996    0.076   0.9031     H
H       0.9996   0.3478   0.8163     H
H       0.9996    0.576   0.0969     H
H       0.9996   0.8478   0.1837     H
