data_I
_chemical_name_common  '/home/zhangsd/repos/MofS-CGCNN/ML/data/TSD/clean_cifs/MUZHUL_charged'
_cell_length_a  7.35620
_cell_length_b  7.35620
_cell_length_c 16.30000
_cell_angle_alpha 90.75680
_cell_angle_beta  90.75680
_cell_angle_gamma 95.90110
_space_group_name_H-M_alt      'P 1'


loop_
_space_group_symop_operation_xyz
  'x, y, z' 

loop_
_atom_site_label
_atom_site_fract_x
_atom_site_fract_y
_atom_site_fract_z
_atom_site_type_symbol
C       0.0137   0.4163   0.4227     C
Zn     0.02042  0.97958     0.25    Zn
C       0.0224   0.6876   0.5068     C
O       0.0273   0.8459   0.6619     O
C       0.0334   0.3186   0.3415     C
C       0.0357   0.6051   0.4301     C
H       0.0378   0.8144   0.5114     H
C       0.0655   0.7327   0.3585     C
O       0.0699   0.2421   0.6855     O
O       0.1093   0.4049   0.2858     O
O       0.1541   0.9727   0.8381     O
O       0.1829   0.7843   0.1502     O
H       0.1856   0.9622   0.9886     H
O       0.2157   0.8171   0.3498     O
O       0.2421   0.0699   0.1855     O
C       0.2673   0.9345   0.1415     C
C       0.3124   0.9776   0.9932     C
C       0.3186   0.0334   0.8415     C
C       0.3949   0.9643   0.0699     C
O       0.4049   0.1093   0.7858     O
C       0.4163   0.0137   0.9227     C
C       0.5837   0.9863   0.0773     C
O       0.5951   0.8907   0.2142     O
C       0.6051   0.0357   0.9301     C
C       0.6814   0.9666   0.1585     C
C       0.6876   0.0224   0.0068     C
C       0.7327   0.0655   0.8585     C
O       0.7579   0.9301   0.8145     O
O       0.7843   0.1829   0.6502     O
H       0.8144   0.0378   0.0114     H
O       0.8171   0.2157   0.8498     O
O       0.8459   0.0273   0.1619     O
O       0.8907   0.5951   0.7142     O
O       0.9301   0.7579   0.3145     O
C       0.9345   0.2673   0.6415     C
H       0.9622   0.1856   0.4886     H
C       0.9643   0.3949   0.5699     C
C       0.9666   0.6814   0.6585     C
O       0.9727   0.1541   0.3381     O
C       0.9776   0.3124   0.4932     C
Zn     0.97958  0.02042     0.75    Zn
C       0.9863   0.5837   0.5773     C
