data_I
_chemical_name_common  '/home/zhangsd/repos/MofS-CGCNN/ML/data/TSD/clean_cifs/NABMUA_clean'
_cell_length_a 11.48580
_cell_length_b 11.48580
_cell_length_c 14.75600
_cell_angle_alpha 90.00000
_cell_angle_beta  90.00000
_cell_angle_gamma 120.00000
_space_group_name_H-M_alt      'P 1'


loop_
_space_group_symop_operation_xyz
  'x, y, z' 

loop_
_atom_site_label
_atom_site_fract_x
_atom_site_fract_y
_atom_site_fract_z
_atom_site_type_symbol
H       0.0137  0.50685  0.41667     H
O       0.0223   0.3887  0.05377     O
O       0.0223   0.6336  0.77957     O
C       0.1028   0.4208  0.27907     C
C       0.1028    0.682  0.55427     C
C       0.1064   0.5532  0.41667     C
O       0.1722   0.3986  0.22337     O
O       0.1722   0.7736  0.60997     O
C       0.1775   0.5234  0.35267     C
C       0.1775   0.6541  0.48067     C
Mg     0.19347  0.38694  0.08333    Mg
Mg     0.19347  0.80653     0.75    Mg
H       0.2045   0.5675    0.848     H
H       0.2045    0.637  0.98533     H
O       0.2264   0.3986   0.9433     O
O       0.2264   0.8278  0.89003     O
C       0.2764   0.5922   0.8087     C
C       0.2764   0.6842  0.02463     C
N      0.30675   0.6135  0.08333     N
N      0.30675  0.69325     0.75     N
C       0.3158   0.5922  0.35797     C
C       0.3158   0.7236  0.47537     C
C        0.318   0.4208   0.8876     C
C        0.318   0.8972  0.94573     C
C       0.3459   0.5234    0.814     C
C       0.3459   0.8225  0.01933     C
H        0.363   0.5675  0.31867     H
H        0.363   0.7955  0.51467     H
O       0.3664   0.3887   0.1129     O
O       0.3664   0.9777  0.72043     O
N       0.3865  0.69325  0.41667     N
Mg     0.38694  0.19347  0.91667    Mg
O       0.3887   0.0223  0.94623     O
O       0.3887   0.3664   0.8871     O
O       0.3986   0.1722  0.77663     O
O       0.3986   0.2264   0.0567     O
C       0.4078   0.6842  0.14203     C
C       0.4078   0.7236   0.6913     C
C       0.4208   0.1028  0.72093     C
C       0.4208    0.318   0.1124     C
H       0.4325    0.637  0.18133     H
H       0.4325   0.7955    0.652     H
C       0.4468   0.5532     0.75     C
C       0.4468   0.8936  0.08333     C
C       0.4766   0.6541    0.686     C
C       0.4766   0.8225  0.14733     C
H      0.49315  0.50685     0.75     H
H      0.49315   0.9863  0.08333     H
H      0.50685   0.0137  0.58333     H
H      0.50685  0.49315     0.25     H
C       0.5234   0.1775  0.64733     C
C       0.5234   0.3459    0.186     C
C       0.5532   0.1064  0.58333     C
C       0.5532   0.4468     0.25     C
H       0.5675   0.2045    0.152     H
H       0.5675    0.363  0.68133     H
C       0.5792    0.682   0.6124     C
C       0.5792   0.8972  0.22093     C
C       0.5922   0.2764   0.1913     C
C       0.5922   0.3158  0.64203     C
O       0.6014   0.7736   0.5567     O
O       0.6014   0.8278  0.27663     O
O       0.6113   0.6336   0.3871     O
O       0.6113   0.9777  0.44623     O
Mg     0.61306  0.80653  0.41667    Mg
N       0.6135  0.30675  0.91667     N
O       0.6336   0.0223  0.22043     O
O       0.6336   0.6113   0.6129     O
H        0.637   0.2045  0.01467     H
H        0.637   0.4325  0.81867     H
C       0.6541   0.1775  0.51933     C
C       0.6541   0.4766    0.314     C
C        0.682   0.1028  0.44573     C
C        0.682   0.5792   0.3876     C
C       0.6842   0.2764  0.97537     C
C       0.6842   0.4078  0.85797     C
N      0.69325  0.30675     0.25     N
N      0.69325   0.3865  0.58333     N
C       0.7236   0.3158  0.52463     C
C       0.7236   0.4078   0.3087     C
O       0.7736   0.1722  0.39003     O
O       0.7736   0.6014   0.4433     O
H       0.7955    0.363  0.48533     H
H       0.7955   0.4325    0.348     H
Mg     0.80653  0.19347     0.25    Mg
Mg     0.80653  0.61306  0.58333    Mg
C       0.8225   0.3459  0.98067     C
C       0.8225   0.4766  0.85267     C
O       0.8278   0.2264  0.10997     O
O       0.8278   0.6014  0.72337     O
C       0.8936   0.4468  0.91667     C
C       0.8972    0.318  0.05427     C
C       0.8972   0.5792  0.77907     C
O       0.9777   0.3664  0.27957     O
O       0.9777   0.6113  0.55377     O
H       0.9863  0.49315  0.91667     H
