data_I
_chemical_name_common  '/home/zhangsd/repos/MofS-CGCNN/ML/data/TSD/clean_cifs/NADKEK_clean'
_cell_length_a 16.18950
_cell_length_b 16.18950
_cell_length_c 10.00360
_cell_angle_alpha 90.00000
_cell_angle_beta  90.00000
_cell_angle_gamma 120.00000
_space_group_name_H-M_alt      'P 1'


loop_
_space_group_symop_operation_xyz
  'x, y, z' 

loop_
_atom_site_label
_atom_site_fract_x
_atom_site_fract_y
_atom_site_fract_z
_atom_site_type_symbol
C       0.0137    0.469   0.7213     C
N        0.032   0.4159   0.8229     N
C        0.036   0.3306   0.7742     C
C       0.0372   0.2781   0.8964     C
C        0.041   0.8109   0.3665     C
C       0.0476   0.7307   0.3074     C
C       0.0563   0.5882   0.3796     C
N       0.0614   0.6779   0.4174     N
O       0.0701   0.6219   0.9409     O
O       0.1013   0.4018   0.4278     O
C        0.115    0.475    0.911     C
C       0.1406   0.7407   0.5101     C
P       0.1531   0.6042   0.9368     P
C       0.1891   0.2301   0.3665     C
P       0.2036   0.4715   0.4505     P
O       0.2085   0.6359   0.0627     O
O       0.2158   0.5405     0.56     O
O        0.217   0.6584    0.826     O
C       0.2301    0.041   0.6335     C
C       0.2409   0.9628   0.8964     C
O       0.2507   0.5245    0.329     O
C       0.2593   0.3999   0.5101     C
P       0.2679   0.7964   0.4505     P
C       0.2693   0.3169   0.3074     C
O       0.2738   0.7493    0.329     O
C       0.2781   0.2409   0.1036     C
C       0.2946    0.964   0.7742     C
O       0.3005   0.8987   0.4278     O
C       0.3169   0.0476   0.6926     C
N       0.3221   0.3835   0.4174     N
O       0.3247   0.7842     0.56     O
C       0.3306   0.2946   0.2258     C
Y      0.33333  0.66667   0.2053     Y
Y      0.33333  0.66667   0.6919     Y
O       0.3416   0.5586    0.826     O
C         0.36    0.885    0.911     C
O       0.3641   0.5726   0.0627     O
O       0.3781   0.4482   0.9409     O
N       0.3835   0.0614   0.5826     N
N       0.3839    0.968   0.8229     N
P       0.3958   0.5489   0.9368     P
C       0.3999   0.1406   0.4899     C
O       0.4018   0.3005   0.5722     O
C       0.4118   0.4681   0.3796     C
N       0.4159   0.3839   0.1771     N
O       0.4274   0.7915   0.0627     O
O       0.4414    0.783    0.826     O
O       0.4482   0.0701   0.0591     O
P       0.4511   0.8469   0.9368     P
C       0.4553   0.9863   0.7213     C
O       0.4595   0.6753     0.56     O
C       0.4681   0.0563   0.6204     C
C        0.469   0.4553   0.2787     C
P       0.4715   0.2679   0.5495     P
C        0.475     0.36    0.089     C
O       0.4755   0.7262    0.329     O
O       0.5245   0.2738    0.671     O
C        0.525     0.64    0.911     C
P       0.5285   0.7321   0.4505     P
C        0.531   0.5447   0.7213     C
C       0.5319   0.9437   0.3796     C
O       0.5405   0.3247     0.44     O
C       0.5447   0.0137   0.2787     C
P       0.5489   0.1531   0.0632     P
O       0.5518   0.9299   0.9409     O
O       0.5586    0.217    0.174     O
O       0.5726   0.2085   0.9373     O
N       0.5841   0.6161   0.8229     N
C       0.5882   0.5319   0.6204     C
O       0.5982   0.6995   0.4278     O
C       0.6001   0.8594   0.5101     C
P       0.6042   0.4511   0.0632     P
N       0.6161    0.032   0.1771     N
N       0.6165   0.9386   0.4174     N
O       0.6219   0.5518   0.0591     O
O       0.6359   0.4274   0.9373     O
C         0.64    0.115    0.089     C
O       0.6584   0.4414    0.174     O
Y      0.66667  0.33333   0.3081     Y
Y      0.66667  0.33333   0.7947     Y
C       0.6694   0.7054   0.7742     C
O       0.6753   0.2158     0.44     O
N       0.6779   0.6165   0.5826     N
C       0.6831   0.9524   0.3074     C
O       0.6995   0.1013   0.5722     O
C       0.7054    0.036   0.2258     C
C       0.7219   0.7591   0.8964     C
O       0.7262   0.2507    0.671     O
C       0.7307   0.6831   0.6926     C
P       0.7321   0.2036   0.5495     P
C       0.7407   0.6001   0.4899     C
O       0.7493   0.4755    0.671     O
C       0.7591   0.0372   0.1036     C
C       0.7699    0.959   0.3665     C
O        0.783   0.3416    0.174     O
O       0.7842   0.4595     0.44     O
O       0.7915   0.3641   0.9373     O
P       0.7964   0.5285   0.5495     P
C       0.8109   0.7699   0.6335     C
P       0.8469   0.3958   0.0632     P
C       0.8594   0.2593   0.4899     C
C        0.885    0.525    0.089     C
O       0.8987   0.5982   0.5722     O
O       0.9299   0.3781   0.0591     O
N       0.9386   0.3221   0.5826     N
C       0.9437   0.4118   0.6204     C
C       0.9524   0.2693   0.6926     C
C        0.959   0.1891   0.6335     C
C       0.9628   0.7219   0.1036     C
C        0.964   0.6694   0.2258     C
N        0.968   0.5841   0.1771     N
C       0.9863    0.531   0.2787     C
