data_I
_chemical_name_common  '/home/zhangsd/repos/MofS-CGCNN/ML/data/TSD/clean_cifs/NAHDIM_clean'
_cell_length_a 18.96770
_cell_length_b 19.91860
_cell_length_c 31.73900
_cell_angle_alpha 90.00000
_cell_angle_beta  95.28700
_cell_angle_gamma 90.00000
_space_group_name_H-M_alt      'P 1'


loop_
_space_group_symop_operation_xyz
  'x, y, z' 

loop_
_atom_site_label
_atom_site_fract_x
_atom_site_fract_y
_atom_site_fract_z
_atom_site_type_symbol
H          0.0   0.0254      0.5     H
C          0.0   0.0721      0.5     C
C          0.0   0.2116      0.5     C
C          0.0   0.2835      0.5     C
C          0.0   0.4208      0.5     C
H          0.0   0.4674      0.5     H
C       0.0031   0.4349   0.6077     C
H       0.0038   0.9824    0.348     H
H       0.0055   0.6128   0.6751     H
C       0.0064   0.1626   0.3109     C
C       0.0082   0.0409   0.3981     C
C         0.01   0.1103   0.7152     C
C       0.0137   0.6946   0.3892     C
C       0.0149   0.4637   0.3546     C
H       0.0152   0.4603   0.6701     H
H       0.0173    0.201   0.8362     H
H       0.0183    0.789   0.3305     H
C       0.0203   0.6497   0.4232     C
C       0.0229   0.3914   0.4657     C
C        0.024   0.3214    0.465     C
C       0.0261   0.1068   0.4667     C
H       0.0265    0.085   0.2752     H
C        0.027     0.18   0.4663     C
H       0.0287   0.5806   0.5412     H
C       0.0304   0.3263   0.1398     C
H        0.032   0.2381   0.6572     H
H       0.0344   0.2063   0.8853     H
C       0.0346   0.0032   0.3684     C
O       0.0375   0.3413   0.1043     O
C       0.0432   0.4262   0.4282     C
C       0.0439   0.6175   0.5592     C
C        0.044   0.2987   0.8554     C
C       0.0453   0.2025   0.6752     C
C       0.0479     0.28   0.4318     C
C       0.0484   0.2206   0.8584     C
C       0.0494   0.2147   0.4312     C
C       0.0518   0.6222   0.6856     C
H       0.0544   0.5524   0.7302     H
C       0.0553   0.0673   0.4319     C
H       0.0568   0.4306   0.8546     H
H       0.0573   0.5461   0.9685     H
C       0.0589   0.7073    0.632     C
O       0.0607   0.3148   0.8137     O
H       0.0637   0.3021   0.4087     H
H       0.0649   0.1917   0.4083     H
C       0.0657   0.7714   0.3341     C
H       0.0674   0.6502   0.5433     H
C       0.0693   0.0561   0.6027     C
C       0.0733   0.7219   0.3741     C
O       0.0742   0.3224   0.1677     O
H       0.0746   0.3575   0.6179     H
H       0.0754   0.7472   0.3091     H
H       0.0756   0.1023   0.5953     H
C       0.0757   0.4957   0.3552     C
C       0.0759   0.4022   0.6067     C
H       0.0759    0.995   0.7496     H
O        0.076    0.183   0.3242     O
H        0.076   0.6015   0.5822     H
H       0.0786   0.3192   0.8764     H
H       0.0796   0.7835   0.5919     H
C       0.0805   0.0926   0.7282     C
C       0.0809   0.5856   0.7184     C
H       0.0816   0.5466   0.8691     H
C       0.0823   0.4321    0.831     C
H       0.0826   0.0472   0.7867     H
C       0.0865   0.6383   0.4429     C
C        0.088   0.6737   0.6666     C
H       0.0883   0.4006   0.5781     H
H       0.0902   0.0277   0.5828     H
H       0.0902   0.4375   0.9629     H
C       0.0904    0.374   0.8067     C
H       0.0916   0.6114    0.467     H
H       0.0918    0.048   0.6306     H
H       0.0939   0.5908   0.8295     H
O       0.0952   0.5254   0.3186     O
H       0.0961   0.2064   0.8557     H
H       0.0975   0.5444   0.0139     H
H       0.0987   0.8078   0.3387     H
C       0.0988   0.0356   0.7599     C
C       0.1007   0.7587   0.6145     C
C       0.1023   0.5389   0.9842     C
C       0.1075   0.9943   0.3676     C
C       0.1093   0.4626   0.4278     C
H       0.1105   0.4282   0.6236     H
C       0.1116   0.5537   0.8467     C
C       0.1123   0.4905   0.8195     C
H       0.1127   0.9018   0.6518     H
O        0.113   0.1996   0.2426     O
C       0.1156   0.1921   0.6865     C
O       0.1172   0.3992   0.0351     O
H        0.119   0.0931   0.3115     H
H       0.1202   0.6436   0.2777     H
H       0.1222   0.3437   0.7504     H
C       0.1231   0.3804   0.7685     C
C       0.1241    0.494   0.3914     C
O       0.1252   0.9578    0.333     O
C       0.1275   0.0549   0.4328     C
C       0.1278   0.1404   0.3053     C
H       0.1288   0.1321   0.0537     H
C        0.129   0.4653   0.9758     C
C        0.131   0.1493   0.2599     C
C       0.1322   0.1376   0.7126     C
H       0.1338   0.5756   0.2549     H
H       0.1359   0.5708   0.9755     H
C       0.1392   0.7056   0.3937     C
H       0.1394   0.4756   0.4929     H
C       0.1417   0.6643   0.4286     C
Zn     0.14181  0.35897   0.0915    Zn
Zn      0.1439   0.0889  0.17478    Zn
O       0.1484   0.0944   0.2354     O
C       0.1485    0.493    0.783     C
H       0.1491    0.029   0.7631     H
H       0.1494    0.602   0.3415     H
C       0.1508   0.6052   0.2774     C
C       0.1517   0.5693   0.3186     C
H       0.1519   0.2205   0.7751     H
C       0.1536   0.5979   0.7355     C
H       0.1541     0.26   0.6488     H
C       0.1551   0.0176   0.3993     C
C       0.1551   0.4363   0.7573     C
H       0.1573   0.1075   0.4889     H
H       0.1588   0.5634   0.8586     H
C       0.1596   0.6888   0.6836     C
C       0.1614   0.4565   0.4696     C
C       0.1621   0.9105    0.659     C
C       0.1623   0.4334   0.0173     C
O       0.1672     0.26   0.0896     O
H       0.1677    0.515   0.3906     H
H       0.1688   0.9575    0.665     H
C       0.1693   0.7737   0.6287     C
H       0.1717     0.41   0.4753     H
C        0.172   0.2335   0.6727     C
H       0.1726   0.4691   0.6986     H
C        0.175   0.1217   0.0454     C
H       0.1755   0.1283   0.0155     H
H       0.1777   0.3542   0.9617     H
H       0.1786   0.8847   0.6835     H
H       0.1804   0.7221   0.3838     H
O       0.1808   0.4784   0.9456     O
C       0.1823   0.0846   0.4682     C
H       0.1847   0.9603   0.2637     H
C       0.1862   0.5596   0.7693     C
H       0.1863   0.0757   0.0522     H
H       0.1896   0.2626   0.6954     H
H       0.1901   0.3927   0.7054     H
O       0.1902   0.4188   0.1308     O
C       0.1911   0.6467   0.7196     C
C       0.1935   0.4364   0.7182     C
H       0.1946   0.2263   0.9449     H
H       0.1973   0.1693   0.3552     H
H       0.1979   0.6197   0.2732     H
C       0.1991   0.2134   0.7848     C
C       0.2001    0.161   0.3256     C
C       0.2001   0.7374   0.6653     C
H       0.2006   0.2829   0.8284     H
H       0.2026   0.8883   0.2815     H
H       0.2034   0.0095   0.3991     H
C       0.2039   0.8909   0.6219     C
C       0.2044   0.9601   0.3295     C
H       0.2045   0.4801   0.4659     H
C       0.2077    0.363   0.9408     C
O       0.2078   0.6491  0.44919     O
O       0.2087   0.8632   0.3788     O
C        0.209    0.825   0.6099     C
C       0.2095   0.1239   0.7312     C
C       0.2096   0.2396   0.0633     C
H       0.2097   0.2053   0.6649     H
H       0.2099   0.0488   0.4816     H
H       0.2131   0.1156   0.4557     H
C       0.2148    0.935   0.2839     C
H       0.2152   0.2011   0.3123     H
O       0.2155    0.054   0.1539     O
C       0.2165    0.424   0.9269     C
C        0.217     0.54   0.3215     C
O        0.222   0.4452   0.0315     O
H       0.2235   0.0053   0.3345     H
H       0.2241   0.7248   0.5407     H
H       0.2256   0.0478   0.6921     H
C       0.2273   0.2495    0.817     C
O        0.228   0.4739   0.3138     O
C       0.2299   0.1677    0.069     C
H       0.2335   0.1256   0.3222     H
H       0.2345   0.1565   0.0992     H
H       0.2367    0.441   0.2215     H
C       0.2373   0.1651   0.7646     C
O       0.2384   0.2713   0.0372     O
C       0.2411   0.2339   0.9362     C
H       0.2413   0.9802   0.6128     H
H       0.2424   0.4473   0.7255     H
C       0.2431   0.9361   0.6033     C
C       0.2436   0.9069   0.3601     C
C       0.2464   0.0731   0.7145     C
C       0.2476   0.3088    0.922     C
H       0.2487   0.2048   0.9129     H
H       0.2513   0.7048   0.5871     H
C       0.2524   0.8088    0.578     C
C       0.2536   0.5731   0.7855     C
C       0.2564   0.4069   0.1399     C
C       0.2569   0.4361   0.8967     C
H       0.2576   0.9473   0.7745     H
H       0.2587   0.4802   0.8872     H
C       0.2589   0.7339   0.5638     C
O       0.2616   0.7713   0.4628     O
C       0.2627   0.6651   0.7354     C
H       0.2633    0.941   0.2785     H
H       0.2655   0.6565   0.4008     H
H       0.2665   0.6256   0.1778     H
C       0.2701   0.6677    0.431     C
O        0.272   0.9739   0.1862     O
C       0.2727   0.7495    0.683     C
H       0.2744   0.5478   0.8079     H
H       0.2759   0.2248   0.9593     H
H       0.2765   0.5053   0.1655     H
O        0.278   0.9452   0.4685     O
C        0.283     0.04   0.1785     C
C       0.2835    0.924   0.5731     C
O       0.2845    0.554   0.3461     O
H       0.2848   0.7011   0.1877     H
C       0.2852    0.435   0.2161     C
H       0.2869   0.6156   0.0443     H
H       0.2901   0.5488   0.0184     H
H       0.2903   0.7053   0.8351     H
C       0.2904   0.7396   0.4367     C
C       0.2905   0.6239   0.7688     C
C        0.291    0.325   0.8901     C
O       0.2913   0.3632   0.1212     O
O       0.2922   0.1491  0.05081     O
C       0.2923    0.863   0.5592     C
H       0.2955   0.9801   0.0341     H
C       0.2956   0.4601   0.1705     C
C       0.2961   0.3909   0.8781     C
H       0.2966   0.5095   0.1009     H
H       0.2974   0.3883   0.2185     H
H       0.2994   0.7829   0.6716     H
C       0.2999   0.2374   0.8347     C
C       0.2999    0.661   0.1744     C
C       0.3009   0.7134   0.7152     C
H       0.3021   0.1197   0.2268     H
H       0.3027   0.6693   0.1448     H
H       0.3054   0.7263   0.5551     H
C       0.3065   0.9364   0.7818     C
C       0.3089   0.1467   0.7804     C
O       0.3098   0.9188   0.3692     O
H       0.3099   0.8927   0.7946     H
H       0.3104   0.7626   0.8046     H
H       0.3137   0.5757   0.4478     H
C       0.3138   0.0596   0.7307     C
H       0.3153   0.4603   0.2363     H
C       0.3177   0.5846   0.0318     C
O       0.3192   0.9784   0.5544     O
H       0.3196   0.2221   0.1162     H
H       0.3214   0.3847   0.8165     H
H       0.3223   0.8542   0.5383     H
H       0.3245   0.6283   0.4845     H
C        0.325   0.6217   0.4546     C
H       0.3274   0.9691   0.8014     H
C        0.328   0.7335   0.8273     C
H       0.3283     0.91   0.0247     H
C       0.3307   0.2737   0.8713     C
H       0.3312   0.4575    0.835     H
H       0.3323    0.015   0.1094     H
O       0.3328     0.76   0.4104     O
C       0.3377   0.9334   0.4827     C
C       0.3379   0.4105    0.841     C
C       0.3386   0.9565   0.0304     C
C       0.3404   0.1888   0.8164     C
H       0.3412   0.0634   0.6414     H
H       0.3427   0.6075   0.0111     H
C       0.3449   0.5176   0.1007     C
C       0.3449   0.9363   0.7427     C
H       0.3459     0.76   0.8512     H
C       0.3464   0.0979   0.7645     C
H       0.3481   0.7205   0.7249     H
C       0.3483   0.0693   0.1814     C
C       0.3492   0.1052   0.2226     C
H       0.3506    0.102   0.1585     H
H       0.3509    0.529   0.7369     H
C       0.3515    0.993    0.717     C
O       0.3516   0.5944   0.2646     O
Zn      0.3561   0.5889  0.32522    Zn
Zn     0.35819  0.85897   0.4085    Zn
C       0.3583   0.1643   0.0714     C
H       0.3606   0.9756   0.0071     H
C       0.3608   0.2056   0.1063     C
H       0.3641   0.0708   0.5245     H
H       0.3662   0.0756   0.2451     H
C       0.3678   0.6376   0.7874     C
C        0.369   0.6493   0.2401     C
C        0.371   0.9653   0.5242     C
H       0.3712   0.6321   0.4463     H
C       0.3722   0.6404   0.1947     C
C       0.3725   0.5549   0.0672     C
O       0.3748   0.4578    0.167     O
C       0.3759    0.994   0.1086     C
C       0.3769   0.8804   0.7315     C
H       0.3778   0.8437   0.7496     H
H       0.3798   0.1436   0.2223     H
H        0.381   0.5931   0.1885     H
O       0.3828   0.8992   0.4649     O
C       0.3844   0.6921   0.8135     C
O        0.387   0.6996   0.2574     O
H       0.3873   0.4018   0.8482     H
C       0.3877   0.9905   0.6805     C
C       0.3884   0.0537   0.6533     C
H       0.3895   0.9282   0.8764     H
C       0.3907   0.9626   0.0722     C
C       0.3925   0.4943   0.1324     C
C       0.3977   0.0389   0.5158     C
C       0.3993   0.2587   0.8855     C
C       0.4012   0.5356   0.7401     C
H       0.4013   0.3078   0.1613     H
H       0.4025   0.0444   0.4861     H
H       0.4039   0.7064   0.6443     H
O       0.4048   0.0254   0.1814     O
H       0.4061   0.0908   0.6705     H
H       0.4082    0.548   0.8694     H
H       0.4084   0.1114    0.033     H
C       0.4096    0.874   0.6933     C
H       0.4098   0.5277   0.9172     H
H       0.4098   0.9375   0.5371     H
H       0.4117   0.9006   0.9219     H
C        0.412   0.1737   0.8334     C
C       0.4135   0.1383   0.0571     C
H       0.4174   0.5472   0.7133     H
C       0.4177   0.9321    0.669     C
H       0.4184   0.0466   0.6309     H
C       0.4191   0.0856   0.7816     C
C       0.4195   0.5926   0.7718     C
H       0.4204   0.2835   0.9081     H
H       0.4214   0.8192   0.6236     H
H        0.424   0.1015   0.9178     H
O        0.424    0.683   0.1758     O
H       0.4241    0.495   0.7504     H
C       0.4241   0.9022   0.8933     C
C       0.4243   0.9957   0.1448     C
H       0.4244   0.6023   0.9047     H
H       0.4246   0.2472   0.1909     H
H       0.4254   0.8575   0.8821     H
O       0.4258   0.8224   0.3323     O
C       0.4267   0.2219   0.1259     C
C       0.4307   0.5561   0.8973     C
H       0.4326   0.1502   0.9567     H
C       0.4343   0.2714   0.1659     C
H       0.4351   0.6917   0.0917     H
H       0.4363   0.8021   0.0913     H
O       0.4393   0.8148   0.6863     O
C       0.4411   0.2073    0.868     C
H       0.4427   0.0461   0.5315     H
H       0.4432   0.9306   0.6454     H
C       0.4447   0.5673   0.0681     C
H       0.4456   0.0524   0.7698     H
C       0.4482   0.1222   0.8144     C
C       0.4506   0.7147   0.0688     C
C       0.4516   0.7206   0.6416     C
C       0.4521     0.78   0.0682     C
C       0.4547   0.7025   0.8248     C
C        0.456   0.7987   0.6446     C
C       0.4561   0.1175   0.9408     C
C       0.4568   0.9262   0.0718     C
O       0.4625   0.8413   0.3957     O
C       0.4654   0.5032   0.1316     C
H       0.4656   0.7063   0.6147     H
H        0.468   0.7381   0.8428     H
C       0.4696   0.8263   0.3602     C
H       0.4713   0.0806   0.9588     H
C        0.473     0.68   0.0337     C
H       0.4735    0.585   0.2248     H
C       0.4739   0.6068   0.0333     C
C        0.476   0.8214    0.035     C
C       0.4771   0.8914   0.0343     C
C       0.4797   0.1497   0.0768     C
H       0.4817    0.289   0.1695     H
H       0.4827    0.701   0.6638     H
H       0.4848   0.9603   0.8299     H
C       0.4851   0.9637   0.1454     C
C       0.4863   0.1946   0.1108     C
C         0.49   0.6103   0.7848     C
C       0.4918   0.5409   0.1019     C
C       0.4936   0.6626   0.1891     C
H       0.4945   0.1128   0.8249     H
H       0.4962   0.4824    0.152     H
C       0.4969   0.9349   0.8923     C
H          0.5   0.5254      0.0     H
C          0.5   0.5721      0.0     C
C          0.5   0.7116      0.0     C
C          0.5   0.7835      0.0     C
C          0.5   0.9208      0.0     C
H          0.5   0.9674      0.0     H
C       0.5031   0.9349   0.1077     C
H       0.5038   0.4824    0.848     H
H       0.5055   0.1128   0.1751     H
C       0.5064   0.6626   0.8109     C
C       0.5082   0.5409   0.8981     C
C         0.51   0.6103   0.2152     C
C       0.5137   0.1946   0.8892     C
C       0.5149   0.9637   0.8546     C
H       0.5152   0.9603   0.1701     H
H       0.5173    0.701   0.3362     H
H       0.5183    0.289   0.8305     H
C       0.5203   0.1497   0.9232     C
C       0.5229   0.8914   0.9657     C
C        0.524   0.8214    0.965     C
C       0.5261   0.6068   0.9667     C
H       0.5265    0.585   0.7752     H
C        0.527     0.68   0.9663     C
H       0.5287   0.0806   0.0412     H
C       0.5304   0.8263   0.6398     C
H        0.532   0.7381   0.1572     H
H       0.5344   0.7063   0.3853     H
C       0.5346   0.5032   0.8684     C
O       0.5375   0.8413   0.6043     O
C       0.5432   0.9262   0.9282     C
C       0.5439   0.1175   0.0592     C
C        0.544   0.7987   0.3554     C
C       0.5453   0.7025   0.1752     C
C       0.5479     0.78   0.9318     C
C       0.5484   0.7206   0.3584     C
C       0.5494   0.7147   0.9312     C
C       0.5518   0.1222   0.1856     C
H       0.5544   0.0524   0.2302     H
C       0.5553   0.5673   0.9319     C
H       0.5568   0.9306   0.3546     H
H       0.5573   0.0461   0.4685     H
C       0.5589   0.2073    0.132     C
O       0.5607   0.8148   0.3137     O
H       0.5637   0.8021   0.9087     H
H       0.5649   0.6917   0.9083     H
C       0.5657   0.2714   0.8341     C
H       0.5674   0.1502   0.0433     H
C       0.5693   0.5561   0.1027     C
C       0.5733   0.2219   0.8741     C
O       0.5742   0.8224   0.6677     O
H       0.5746   0.8575   0.1179     H
H       0.5754   0.2472   0.8091     H
H       0.5756   0.6023   0.0953     H
C       0.5757   0.9957   0.8552     C
H       0.5759    0.495   0.2496     H
C       0.5759   0.9022   0.1067     C
H        0.576   0.1015   0.0822     H
O        0.576    0.683   0.8242     O
H       0.5786   0.8192   0.3764     H
H       0.5796   0.2835   0.0919     H
C       0.5805   0.5926   0.2282     C
C       0.5809   0.0856   0.2184     C
H       0.5816   0.0466   0.3691     H
C       0.5823   0.9321    0.331     C
H       0.5826   0.5472   0.2867     H
C       0.5865   0.1383   0.9429     C
C        0.588   0.1737   0.1666     C
H       0.5883   0.9006   0.0781     H
H       0.5902   0.5277   0.0828     H
H       0.5902   0.9375   0.4629     H
C       0.5904    0.874   0.3067     C
H       0.5916   0.1114    0.967     H
H       0.5918    0.548   0.1306     H
H       0.5939   0.0908   0.3295     H
O       0.5952   0.0254   0.8186     O
H       0.5961   0.7064   0.3557     H
H       0.5975   0.0444   0.5139     H
H       0.5987   0.3078   0.8387     H
C       0.5988   0.5356   0.2599     C
C       0.6007   0.2587   0.1145     C
C       0.6023   0.0389   0.4842     C
C       0.6075   0.4943   0.8676     C
C       0.6093   0.9626   0.9278     C
H       0.6105   0.9282   0.1236     H
C       0.6116   0.0537   0.3467     C
C       0.6123   0.9905   0.3195     C
H       0.6127   0.4018   0.1518     H
O        0.613   0.6996   0.7426     O
C       0.6156   0.6921   0.1865     C
O       0.6172   0.8992   0.5351     O
H        0.619   0.5931   0.8115     H
H       0.6202   0.1436   0.7777     H
H       0.6222   0.8437   0.2504     H
C       0.6231   0.8804   0.2685     C
C       0.6241    0.994   0.8914     C
O       0.6252   0.4578    0.833     O
C       0.6275   0.5549   0.9328     C
C       0.6278   0.6404   0.8053     C
H       0.6288   0.6321   0.5537     H
C        0.629   0.9653   0.4758     C
C        0.631   0.6493   0.7599     C
C       0.6322   0.6376   0.2126     C
H       0.6338   0.0756   0.7549     H
H       0.6359   0.0708   0.4755     H
C       0.6392   0.2056   0.8937     C
H       0.6394   0.9756   0.9929     H
C       0.6417   0.1643   0.9286     C
Zn     0.64181  0.85897   0.5915    Zn
Zn      0.6439   0.5889  0.67478    Zn
O       0.6484   0.5944   0.7354     O
C       0.6485    0.993    0.283     C
H       0.6491    0.529   0.2631     H
H       0.6494    0.102   0.8415     H
C       0.6508   0.1052   0.7774     C
C       0.6517   0.0693   0.8186     C
H       0.6519   0.7205   0.2751     H
C       0.6536   0.0979   0.2355     C
H       0.6541     0.76   0.1488     H
C       0.6551   0.5176   0.8993     C
C       0.6551   0.9363   0.2573     C
H       0.6573   0.6075   0.9889     H
H       0.6588   0.0634   0.3586     H
C       0.6596   0.1888   0.1836     C
C       0.6614   0.9565   0.9696     C
C       0.6621   0.4105    0.159     C
C       0.6623   0.9334   0.5173     C
O       0.6672     0.76   0.5896     O
H       0.6677    0.015   0.8906     H
H       0.6688   0.4575    0.165     H
C       0.6693   0.2737   0.1287     C
H       0.6717     0.91   0.9753     H
C        0.672   0.7335   0.1727     C
H       0.6726   0.9691   0.1986     H
C        0.675   0.6217   0.5454     C
H       0.6755   0.6283   0.5155     H
H       0.6777   0.8542   0.4617     H
H       0.6786   0.3847   0.1835     H
H       0.6804   0.2221   0.8838     H
O       0.6808   0.9784   0.4456     O
C       0.6823   0.5846   0.9682     C
H       0.6847   0.4603   0.7637     H
C       0.6862   0.0596   0.2693     C
H       0.6863   0.5757   0.5522     H
H       0.6896   0.7626   0.1954     H
H       0.6901   0.8927   0.2054     H
O       0.6902   0.9188   0.6308     O
C       0.6911   0.1467   0.2196     C
C       0.6935   0.9364   0.2182     C
H       0.6946   0.7263   0.4449     H
H       0.6973   0.6693   0.8552     H
H       0.6979   0.1197   0.7732     H
C       0.6991   0.7134   0.2848     C
C       0.7001   0.2374   0.1653     C
C       0.7001    0.661   0.8256     C
H       0.7006   0.7829   0.3284     H
H       0.7026   0.3883   0.7815     H
H       0.7034   0.5095   0.8991     H
C       0.7039   0.3909   0.1219     C
C       0.7044   0.4601   0.8295     C
H       0.7045   0.9801   0.9659     H
C       0.7077    0.863   0.4408     C
O       0.7078   0.1491  0.94919     O
O       0.7087   0.3632   0.8788     O
C        0.709    0.325   0.1099     C
C       0.7095   0.6239   0.2312     C
C       0.7096   0.7396   0.5633     C
H       0.7097   0.7053   0.1649     H
H       0.7099   0.5488   0.9816     H
H       0.7131   0.6156   0.9557     H
C       0.7148    0.435   0.7839     C
H       0.7152   0.7011   0.8123     H
O       0.7155    0.554   0.6539     O
C       0.7165    0.924   0.4269     C
C        0.717     0.04   0.8215     C
O        0.722   0.9452   0.5315     O
H       0.7235   0.5053   0.8345     H
H       0.7241   0.2248   0.0407     H
H       0.7256   0.5478   0.1921     H
C       0.7273   0.7495    0.317     C
O        0.728   0.9739   0.8138     O
C       0.7299   0.6677    0.569     C
H       0.7335   0.6256   0.8222     H
H       0.7345   0.6565   0.5992     H
H       0.7367    0.941   0.7215     H
C       0.7373   0.6651   0.2646     C
O       0.7384   0.7713   0.5372     O
C       0.7411   0.7339   0.4362     C
H       0.7413   0.4802   0.1128     H
H       0.7424   0.9473   0.2255     H
C       0.7431   0.4361   0.1033     C
C       0.7436   0.4069   0.8601     C
C       0.7464   0.5731   0.2145     C
C       0.7476   0.8088    0.422     C
H       0.7487   0.7048   0.4129     H
H       0.7513   0.2048   0.0871     H
C       0.7524   0.3088    0.078     C
C       0.7536   0.0731   0.2855     C
C       0.7564   0.9069   0.6399     C
C       0.7569   0.9361   0.3967     C
H       0.7576   0.4473   0.2745     H
H       0.7587   0.9802   0.3872     H
C       0.7589   0.2339   0.0638     C
O       0.7616   0.2713   0.9628     O
C       0.7627   0.1651   0.2354     C
H       0.7633    0.441   0.7785     H
H       0.7655   0.1565   0.9008     H
H       0.7665   0.1256   0.6778     H
C       0.7701   0.1677    0.931     C
O        0.772   0.4739   0.6862     O
C       0.7727   0.2495    0.183     C
H       0.7744   0.0478   0.3079     H
H       0.7759   0.7248   0.4593     H
H       0.7765   0.0053   0.6655     H
O        0.778   0.4452   0.9685     O
C        0.783     0.54   0.6785     C
C       0.7835    0.424   0.0731     C
O       0.7845    0.054   0.8461     O
H       0.7848   0.2011   0.6877     H
C       0.7852    0.935   0.7161     C
H       0.7869   0.1156   0.5443     H
H       0.7901   0.0488   0.5184     H
H       0.7903   0.2053   0.3351     H
C       0.7904   0.2396   0.9367     C
C       0.7905   0.1239   0.2688     C
C        0.791    0.825   0.3901     C
O       0.7913   0.8632   0.6212     O
O       0.7922   0.6491  0.55081     O
C       0.7923    0.363   0.0592     C
H       0.7955   0.4801   0.5341     H
C       0.7956   0.9601   0.6705     C
C       0.7961   0.8909   0.3781     C
H       0.7966   0.0095   0.6009     H
H       0.7974   0.8883   0.7185     H
H       0.7994   0.2829   0.1716     H
C       0.7999    0.161   0.6744     C
C       0.7999   0.7374   0.3347     C
C       0.8009   0.2134   0.2152     C
H       0.8021   0.6197   0.7268     H
H       0.8027   0.1693   0.6448     H
H       0.8054   0.2263   0.0551     H
C       0.8065   0.4364   0.2818     C
C       0.8089   0.6467   0.2804     C
O       0.8098   0.4188   0.8692     O
H       0.8099   0.3927   0.2946     H
H       0.8104   0.2626   0.3046     H
H       0.8137   0.0757   0.9478     H
C       0.8138   0.5596   0.2307     C
H       0.8153   0.9603   0.7363     H
C       0.8177   0.0846   0.5318     C
O       0.8192   0.4784   0.0544     O
H       0.8196   0.7221   0.6162     H
H       0.8214   0.8847   0.3165     H
H       0.8223   0.3542   0.0383     H
H       0.8245   0.1283   0.9845     H
C        0.825   0.1217   0.9546     C
H       0.8274   0.4691   0.3014     H
C        0.828   0.2335   0.3273     C
H       0.8283     0.41   0.5247     H
C       0.8307   0.7737   0.3713     C
H       0.8312   0.9575    0.335     H
H       0.8323    0.515   0.6094     H
O       0.8328     0.26   0.9104     O
C       0.8377   0.4334   0.9827     C
C       0.8379   0.9105    0.341     C
C       0.8386   0.4565   0.5304     C
C       0.8404   0.6888   0.3164     C
H       0.8412   0.5634   0.1414     H
H       0.8427   0.1075   0.5111     H
C       0.8449   0.0176   0.6007     C
C       0.8449   0.4363   0.2427     C
H       0.8459     0.26   0.3512     H
C       0.8464   0.5979   0.2645     C
H       0.8481   0.2205   0.2249     H
C       0.8483   0.5693   0.6814     C
C       0.8492   0.6052   0.7226     C
H       0.8506    0.602   0.6585     H
H       0.8509    0.029   0.2369     H
C       0.8515    0.493    0.217     C
O       0.8516   0.0944   0.7646     O
Zn      0.8561   0.0889  0.82522    Zn
Zn     0.85819  0.35897   0.9085    Zn
C       0.8583   0.6643   0.5714     C
H       0.8606   0.4756   0.5071     H
C       0.8608   0.7056   0.6063     C
H       0.8641   0.5708   0.0245     H
H       0.8662   0.5756   0.7451     H
C       0.8678   0.1376   0.2874     C
C        0.869   0.1493   0.7401     C
C        0.871   0.4653   0.0242     C
H       0.8712   0.1321   0.9463     H
C       0.8722   0.1404   0.6947     C
C       0.8725   0.0549   0.5672     C
O       0.8748   0.9578    0.667     O
C       0.8759    0.494   0.6086     C
C       0.8769   0.3804   0.2315     C
H       0.8778   0.3437   0.2496     H
H       0.8798   0.6436   0.7223     H
H        0.881   0.0931   0.6885     H
O       0.8828   0.3992   0.9649     O
C       0.8844   0.1921   0.3135     C
O        0.887   0.1996   0.7574     O
H       0.8873   0.9018   0.3482     H
C       0.8877   0.4905   0.1805     C
C       0.8884   0.5537   0.1533     C
H       0.8895   0.4282   0.3764     H
C       0.8907   0.4626   0.5722     C
C       0.8925   0.9943   0.6324     C
C       0.8977   0.5389   0.0158     C
C       0.8993   0.7587   0.3855     C
C       0.9012   0.0356   0.2401     C
H       0.9013   0.8078   0.6613     H
H       0.9025   0.5444   0.9861     H
H       0.9039   0.2064   0.1443     H
O       0.9048   0.5254   0.6814     O
H       0.9061   0.5908   0.1705     H
H       0.9082    0.048   0.3694     H
H       0.9084   0.6114    0.533     H
C       0.9096    0.374   0.1933     C
H       0.9098   0.0277   0.4172     H
H       0.9098   0.4375   0.0371     H
H       0.9117   0.4006   0.4219     H
C        0.912   0.6737   0.3334     C
C       0.9135   0.6383   0.5571     C
H       0.9174   0.0472   0.2133     H
C       0.9177   0.4321    0.169     C
H       0.9184   0.5466   0.1309     H
C       0.9191   0.5856   0.2816     C
C       0.9195   0.0926   0.2718     C
H       0.9204   0.7835   0.4081     H
H       0.9214   0.3192   0.1236     H
O        0.924    0.183   0.6758     O
H        0.924   0.6015   0.4178     H
C       0.9241   0.4022   0.3933     C
H       0.9241    0.995   0.2504     H
C       0.9243   0.4957   0.6448     C
H       0.9244   0.1023   0.4047     H
H       0.9246   0.7472   0.6909     H
H       0.9254   0.3575   0.3821     H
O       0.9258   0.3224   0.8323     O
C       0.9267   0.7219   0.6259     C
C       0.9307   0.0561   0.3973     C
H       0.9326   0.6502   0.4567     H
C       0.9343   0.7714   0.6659     C
H       0.9351   0.1917   0.5917     H
H       0.9363   0.3021   0.5913     H
O       0.9393   0.3148   0.1863     O
C       0.9411   0.7073    0.368     C
H       0.9427   0.5461   0.0315     H
H       0.9432   0.4306   0.1454     H
C       0.9447   0.0673   0.5681     C
H       0.9456   0.5524   0.2698     H
C       0.9482   0.6222   0.3144     C
C       0.9506   0.2147   0.5688     C
C       0.9516   0.2206   0.1416     C
C       0.9521     0.28   0.5682     C
C       0.9547   0.2025   0.3248     C
C        0.956   0.2987   0.1446     C
C       0.9561   0.6175   0.4408     C
C       0.9568   0.4262   0.5718     C
O       0.9625   0.3413   0.8957     O
C       0.9654   0.0032   0.6316     C
H       0.9656   0.2063   0.1147     H
H        0.968   0.2381   0.3428     H
C       0.9696   0.3263   0.8602     C
H       0.9713   0.5806   0.4588     H
C        0.973     0.18   0.5337     C
H       0.9735    0.085   0.7248     H
C       0.9739   0.1068   0.5333     C
C        0.976   0.3214    0.535     C
C       0.9771   0.3914   0.5343     C
C       0.9797   0.6497   0.5768     C
H       0.9817    0.789   0.6695     H
H       0.9827    0.201   0.1638     H
H       0.9848   0.4603   0.3299     H
C       0.9851   0.4637   0.6454     C
C       0.9863   0.6946   0.6108     C
C         0.99   0.1103   0.2848     C
C       0.9918   0.0409   0.6019     C
C       0.9936   0.1626   0.6891     C
H       0.9945   0.6128   0.3249     H
H       0.9962   0.9824    0.652     H
C       0.9969   0.4349   0.3923     C
