data_I
_chemical_name_common  '/home/zhangsd/repos/MofS-CGCNN/ML/data/TSD/clean_cifs/NAHFIO_clean'
_cell_length_a 26.15350
_cell_length_b 13.61680
_cell_length_c 17.18070
_cell_angle_alpha 90.00000
_cell_angle_beta  126.05600
_cell_angle_gamma 90.00000
_space_group_name_H-M_alt      'P 1'


loop_
_space_group_symop_operation_xyz
  'x, y, z' 

loop_
_atom_site_label
_atom_site_fract_x
_atom_site_fract_y
_atom_site_fract_z
_atom_site_type_symbol
C       0.0047   0.2063   0.5215     C
C       0.0047   0.7937   0.0215     C
H        0.011   0.1548   0.3546     H
H        0.011   0.8452   0.8546     H
H       0.0143   0.2274   0.9483     H
H       0.0143   0.7726   0.4483     H
C       0.0185   0.1664   0.4151     C
C       0.0185   0.8336   0.9151     C
H       0.0244   0.4084   0.4965     H
H       0.0244   0.5916   0.9965     H
N       0.0261   0.1964   0.0753     N
N       0.0261   0.8036   0.5753     N
C       0.0306   0.4789   0.5142     C
C       0.0306   0.5211   0.0142     C
H       0.0438   0.4877   0.9774     H
H       0.0438   0.5123   0.4774     H
C       0.0657    0.182   0.5678     C
C       0.0657    0.818   0.0678     C
H       0.0682   0.4584   0.6563     H
H       0.0682   0.5416   0.1563     H
N       0.0749   0.1545   0.4995     N
N       0.0749   0.8455   0.9995     N
H       0.0763   0.0032   0.2241     H
H       0.0763   0.9968   0.7241     H
C       0.0822   0.4886   0.6194     C
C       0.0822   0.5114   0.1194     C
H       0.0874    0.012   0.0879     H
H       0.0874    0.988   0.5879     H
H       0.0888   0.0355   0.8741     H
H       0.0888   0.9645   0.3741     H
C       0.0933   0.0462   0.2776     C
C       0.0933   0.9538   0.7776     C
H        0.097   0.1835   0.6355     H
H        0.097   0.8165   0.1355     H
O       0.0976   0.3691   0.2146     O
O       0.0976   0.6309   0.7146     O
C       0.0998   0.0248   0.3596     C
C       0.0998   0.9752   0.8596     C
C       0.1007   0.4043   0.1509     C
C       0.1007   0.5957   0.6509     C
N       0.1148   0.1393   0.2833     N
N       0.1148   0.8607   0.7833     N
O       0.1189   0.3533   0.1112     O
O       0.1189   0.6467   0.6112     O
H       0.1199   0.4521   0.6347     H
H       0.1199   0.5479   0.1347     H
Co     0.12292  0.22335  0.18843    Co
Co     0.12292  0.77665  0.68843    Co
C       0.1235   0.0354    0.093     C
C       0.1235   0.9646    0.593     C
N       0.1251   0.1054   0.4183     N
N       0.1251   0.8946   0.9183     N
C       0.1333   0.1716   0.3682     C
C       0.1333   0.8284   0.8682     C
B       0.1358   0.1173   0.5163     B
B       0.1358   0.8827   0.0163     B
H       0.1476   0.3287   0.5213     H
H       0.1476   0.6713   0.0213     H
N       0.1497   0.1219   0.1291     N
N       0.1497   0.8781   0.6291     N
H       0.1506   0.2351   0.3919     H
H       0.1506   0.7649   0.8919     H
N       0.1536    0.016   0.5644     N
N       0.1536    0.984   0.0644     N
C       0.1837   0.2925   0.5696     C
C       0.1837   0.7075   0.0696     C
N       0.1884    0.191   0.5801     N
N       0.1884    0.809   0.0801     N
C       0.1994   0.1274   0.1228     C
C       0.1994   0.8726   0.6228     C
C       0.2026   0.0438   0.0831     C
C       0.2026   0.9562   0.5831     C
N       0.2195   0.2447   0.3035     N
N       0.2195   0.7553   0.8035     N
H       0.2274   0.1816   0.1433     H
H       0.2274   0.8184   0.6433     H
H       0.2326    0.029   0.0704     H
H       0.2326    0.971   0.5704     H
H       0.2353   0.3878   0.3155     H
H       0.2353   0.6122   0.8155     H
C       0.2395   0.3292   0.6401     C
C       0.2395   0.6708   0.1401     C
C       0.2481   0.1756    0.659     C
C       0.2481   0.8244    0.159     C
H       0.2496   0.3972     0.65     H
H       0.2496   0.6028     0.15     H
H       0.2504   0.1028     0.35     H
H       0.2504   0.8972     0.85     H
C       0.2519   0.3244    0.341     C
C       0.2519   0.6756    0.841     C
C       0.2605   0.1708   0.3599     C
C       0.2605   0.8292   0.8599     C
H       0.2647   0.1122   0.6845     H
H       0.2647   0.8878   0.1845     H
H       0.2674    0.471   0.9296     H
H       0.2674    0.529   0.4296     H
H       0.2726   0.3184   0.8567     H
H       0.2726   0.6816   0.3567     H
N       0.2805   0.2553   0.6965     N
N       0.2805   0.7447   0.1965     N
C       0.2974   0.4562   0.9169     C
C       0.2974   0.5438   0.4169     C
C       0.3006   0.3726   0.8772     C
C       0.3006   0.6274   0.3772     C
N       0.3116    0.309   0.4199     N
N       0.3116    0.691   0.9199     N
C       0.3163   0.2075   0.4304     C
C       0.3163   0.7925   0.9304     C
N       0.3464    0.484   0.4356     N
N       0.3464    0.516   0.9356     N
H       0.3494   0.2649   0.6081     H
H       0.3494   0.7351   0.1081     H
N       0.3503   0.3781   0.8709     N
N       0.3503   0.6219   0.3709     N
H       0.3524   0.1713   0.4787     H
H       0.3524   0.8287   0.9787     H
B       0.3642   0.3827   0.4837     B
B       0.3642   0.6173   0.9837     B
C       0.3667   0.3284   0.6318     C
C       0.3667   0.6716   0.1318     C
N       0.3749   0.3946   0.5817     N
N       0.3749   0.6054   0.0817     N
C       0.3765   0.4646    0.907     C
C       0.3765   0.5354    0.407     C
Co     0.37708  0.27665  0.81157    Co
Co     0.37708  0.72335  0.31157    Co
H       0.3801   0.0479   0.3653     H
H       0.3801   0.9521   0.8653     H
O       0.3811   0.1467   0.8888     O
O       0.3811   0.8533   0.3888     O
N       0.3852   0.3607   0.7167     N
N       0.3852   0.6393   0.2167     N
C       0.3993   0.0957   0.8491     C
C       0.3993   0.9043   0.3491     C
C       0.4002   0.4752   0.6404     C
C       0.4002   0.5248   0.1404     C
O       0.4024   0.1309   0.7854     O
O       0.4024   0.8691   0.2854     O
H        0.403   0.3165   0.3645     H
H        0.403   0.6835   0.8645     H
C       0.4067   0.4538   0.7224     C
C       0.4067   0.5462   0.2224     C
H       0.4112   0.4645   0.1259     H
H       0.4112   0.5355   0.6259     H
H       0.4126    0.488   0.9121     H
H       0.4126    0.512   0.4121     H
C       0.4178   0.0114   0.3806     C
C       0.4178   0.9886   0.8806     C
H       0.4237   0.4968   0.7759     H
H       0.4237   0.5032   0.2759     H
N       0.4251   0.3455   0.5005     N
N       0.4251   0.6545   0.0005     N
H       0.4318   0.0416   0.3437     H
H       0.4318   0.9584   0.8437     H
C       0.4343    0.318   0.4322     C
C       0.4343    0.682   0.9322     C
H       0.4562   0.0123   0.0226     H
H       0.4562   0.9877   0.5226     H
C       0.4694   0.0211   0.4858     C
C       0.4694   0.9789   0.9858     C
N       0.4739   0.3036   0.9247     N
N       0.4739   0.6964   0.4247     N
H       0.4756   0.0916   0.5035     H
H       0.4756   0.9084   0.0035     H
C       0.4815   0.3336   0.5849     C
C       0.4815   0.6664   0.0849     C
H       0.4857   0.2726   0.0517     H
H       0.4857   0.7274   0.5517     H
H        0.489   0.3452   0.6454     H
H        0.489   0.6548   0.1454     H
C       0.4953   0.2937   0.4785     C
C       0.4953   0.7063   0.9785     C
C       0.5047   0.2937   0.0215     C
C       0.5047   0.7063   0.5215     C
H        0.511   0.3452   0.8546     H
H        0.511   0.6548   0.3546     H
H       0.5143   0.2726   0.4483     H
H       0.5143   0.7274   0.9483     H
C       0.5185   0.3336   0.9151     C
C       0.5185   0.6664   0.4151     C
H       0.5244   0.0916   0.9965     H
H       0.5244   0.9084   0.4965     H
N       0.5261   0.3036   0.5753     N
N       0.5261   0.6964   0.0753     N
C       0.5306   0.0211   0.0142     C
C       0.5306   0.9789   0.5142     C
H       0.5438   0.0123   0.4774     H
H       0.5438   0.9877   0.9774     H
C       0.5657    0.318   0.0678     C
C       0.5657    0.682   0.5678     C
H       0.5682   0.0416   0.1563     H
H       0.5682   0.9584   0.6563     H
N       0.5749   0.3455   0.9995     N
N       0.5749   0.6545   0.4995     N
H       0.5763   0.4968   0.7241     H
H       0.5763   0.5032   0.2241     H
C       0.5822   0.0114   0.1194     C
C       0.5822   0.9886   0.6194     C
H       0.5874    0.488   0.5879     H
H       0.5874    0.512   0.0879     H
H       0.5888   0.4645   0.3741     H
H       0.5888   0.5355   0.8741     H
C       0.5933   0.4538   0.7776     C
C       0.5933   0.5462   0.2776     C
H        0.597   0.3165   0.1355     H
H        0.597   0.6835   0.6355     H
O       0.5976   0.1309   0.7146     O
O       0.5976   0.8691   0.2146     O
C       0.5998   0.4752   0.8596     C
C       0.5998   0.5248   0.3596     C
C       0.6007   0.0957   0.6509     C
C       0.6007   0.9043   0.1509     C
N       0.6148   0.3607   0.7833     N
N       0.6148   0.6393   0.2833     N
O       0.6189   0.1467   0.6112     O
O       0.6189   0.8533   0.1112     O
H       0.6199   0.0479   0.1347     H
H       0.6199   0.9521   0.6347     H
Co     0.62292  0.27665  0.68843    Co
Co     0.62292  0.72335  0.18843    Co
C       0.6235   0.4646    0.593     C
C       0.6235   0.5354    0.093     C
N       0.6251   0.3946   0.9183     N
N       0.6251   0.6054   0.4183     N
C       0.6333   0.3284   0.8682     C
C       0.6333   0.6716   0.3682     C
B       0.6358   0.3827   0.0163     B
B       0.6358   0.6173   0.5163     B
H       0.6476   0.1713   0.0213     H
H       0.6476   0.8287   0.5213     H
N       0.6497   0.3781   0.6291     N
N       0.6497   0.6219   0.1291     N
H       0.6506   0.2649   0.8919     H
H       0.6506   0.7351   0.3919     H
N       0.6536    0.484   0.0644     N
N       0.6536    0.516   0.5644     N
C       0.6837   0.2075   0.0696     C
C       0.6837   0.7925   0.5696     C
N       0.6884    0.309   0.0801     N
N       0.6884    0.691   0.5801     N
C       0.6994   0.3726   0.6228     C
C       0.6994   0.6274   0.1228     C
C       0.7026   0.4562   0.5831     C
C       0.7026   0.5438   0.0831     C
N       0.7195   0.2553   0.8035     N
N       0.7195   0.7447   0.3035     N
H       0.7274   0.3184   0.6433     H
H       0.7274   0.6816   0.1433     H
H       0.7326    0.471   0.5704     H
H       0.7326    0.529   0.0704     H
H       0.7353   0.1122   0.8155     H
H       0.7353   0.8878   0.3155     H
C       0.7395   0.1708   0.1401     C
C       0.7395   0.8292   0.6401     C
C       0.7481   0.3244    0.159     C
C       0.7481   0.6756    0.659     C
H       0.7496   0.1028     0.15     H
H       0.7496   0.8972     0.65     H
H       0.7504   0.3972     0.85     H
H       0.7504   0.6028     0.35     H
C       0.7519   0.1756    0.841     C
C       0.7519   0.8244    0.341     C
C       0.7605   0.3292   0.8599     C
C       0.7605   0.6708   0.3599     C
H       0.7647   0.3878   0.1845     H
H       0.7647   0.6122   0.6845     H
H       0.7674    0.029   0.4296     H
H       0.7674    0.971   0.9296     H
H       0.7726   0.1816   0.3567     H
H       0.7726   0.8184   0.8567     H
N       0.7805   0.2447   0.1965     N
N       0.7805   0.7553   0.6965     N
C       0.7974   0.0438   0.4169     C
C       0.7974   0.9562   0.9169     C
C       0.8006   0.1274   0.3772     C
C       0.8006   0.8726   0.8772     C
N       0.8116    0.191   0.9199     N
N       0.8116    0.809   0.4199     N
C       0.8163   0.2925   0.9304     C
C       0.8163   0.7075   0.4304     C
N       0.8464    0.016   0.9356     N
N       0.8464    0.984   0.4356     N
H       0.8494   0.2351   0.1081     H
H       0.8494   0.7649   0.6081     H
N       0.8503   0.1219   0.3709     N
N       0.8503   0.8781   0.8709     N
H       0.8524   0.3287   0.9787     H
H       0.8524   0.6713   0.4787     H
B       0.8642   0.1173   0.9837     B
B       0.8642   0.8827   0.4837     B
C       0.8667   0.1716   0.1318     C
C       0.8667   0.8284   0.6318     C
N       0.8749   0.1054   0.0817     N
N       0.8749   0.8946   0.5817     N
C       0.8765   0.0354    0.407     C
C       0.8765   0.9646    0.907     C
Co     0.87708  0.22335  0.31157    Co
Co     0.87708  0.77665  0.81157    Co
H       0.8801   0.4521   0.8653     H
H       0.8801   0.5479   0.3653     H
O       0.8811   0.3533   0.3888     O
O       0.8811   0.6467   0.8888     O
N       0.8852   0.1393   0.2167     N
N       0.8852   0.8607   0.7167     N
C       0.8993   0.4043   0.3491     C
C       0.8993   0.5957   0.8491     C
C       0.9002   0.0248   0.1404     C
C       0.9002   0.9752   0.6404     C
O       0.9024   0.3691   0.2854     O
O       0.9024   0.6309   0.7854     O
H        0.903   0.1835   0.8645     H
H        0.903   0.8165   0.3645     H
C       0.9067   0.0462   0.2224     C
C       0.9067   0.9538   0.7224     C
H       0.9112   0.0355   0.6259     H
H       0.9112   0.9645   0.1259     H
H       0.9126    0.012   0.4121     H
H       0.9126    0.988   0.9121     H
C       0.9178   0.4886   0.8806     C
C       0.9178   0.5114   0.3806     C
H       0.9237   0.0032   0.2759     H
H       0.9237   0.9968   0.7759     H
N       0.9251   0.1545   0.0005     N
N       0.9251   0.8455   0.5005     N
H       0.9318   0.4584   0.8437     H
H       0.9318   0.5416   0.3437     H
C       0.9343    0.182   0.9322     C
C       0.9343    0.818   0.4322     C
H       0.9562   0.4877   0.5226     H
H       0.9562   0.5123   0.0226     H
C       0.9694   0.4789   0.9858     C
C       0.9694   0.5211   0.4858     C
N       0.9739   0.1964   0.4247     N
N       0.9739   0.8036   0.9247     N
H       0.9756   0.4084   0.0035     H
H       0.9756   0.5916   0.5035     H
C       0.9815   0.1664   0.0849     C
C       0.9815   0.8336   0.5849     C
H       0.9857   0.2274   0.5517     H
H       0.9857   0.7726   0.0517     H
H        0.989   0.1548   0.1454     H
H        0.989   0.8452   0.6454     H
C       0.9953   0.2063   0.9785     C
C       0.9953   0.7937   0.4785     C
