data_I
_chemical_name_common  '/home/zhangsd/repos/MofS-CGCNN/ML/data/TSD/clean_cifs/NAHNES_clean'
_cell_length_a 19.25900
_cell_length_b 19.25900
_cell_length_c 61.22560
_cell_angle_alpha 90.00000
_cell_angle_beta  90.00000
_cell_angle_gamma 90.00000
_space_group_name_H-M_alt      'P 1'


loop_
_space_group_symop_operation_xyz
  'x, y, z' 

loop_
_atom_site_label
_atom_site_fract_x
_atom_site_fract_y
_atom_site_fract_z
_atom_site_type_symbol
Cu         0.0  0.06706  0.99777    Cu
N          0.0  0.17843  0.99643     N
Cu         0.0     0.25  0.35329    Cu
Cu         0.0     0.25  0.39671    Cu
N          0.0  0.32157  0.99643     N
Cu         0.0  0.43294  0.99777    Cu
Cu         0.0  0.56706  0.00223    Cu
N          0.0  0.67843  0.00357     N
Cu         0.0     0.75  0.60329    Cu
Cu         0.0     0.75  0.64671    Cu
N          0.0  0.82157  0.00357     N
Cu         0.0  0.93294  0.00223    Cu
C      0.03571  0.19196  0.75376     C
C      0.03571  0.30804  0.75376     C
C      0.03571  0.69196  0.24624     C
C      0.03571  0.80804  0.24624     C
C      0.05804  0.21429  0.99624     C
C      0.05804  0.28571  0.99624     C
C      0.05804  0.71429  0.00376     C
C      0.05804  0.78571  0.00376     C
H       0.0597   0.1489   0.7539     H
H       0.0597   0.3511   0.7539     H
H       0.0597   0.6489   0.2461     H
H       0.0597   0.8511   0.2461     H
O      0.07032  0.05346  0.97519     O
O      0.07032  0.44654  0.97519     O
O      0.07032  0.55346  0.02481     O
O      0.07032  0.94654  0.02481     O
O       0.0711   0.0614  0.02058     O
O       0.0711   0.4386  0.02058     O
O       0.0711   0.5614  0.97942     O
O       0.0711   0.9386  0.97942     O
O       0.0712  0.17867  0.39335     O
O       0.0712  0.32133  0.39335     O
O       0.0712  0.67867  0.60665     O
O       0.0712  0.82133  0.60665     O
O      0.07133   0.1788  0.35665     O
O      0.07133   0.3212  0.35665     O
O      0.07133   0.6788  0.64335     O
O      0.07133   0.8212  0.64335     O
N      0.07157     0.25  0.75357     N
N      0.07157     0.75  0.24643     N
C      0.08946   0.0065  0.03008     C
C      0.08946   0.4935  0.03008     C
C      0.08946   0.5065  0.96992     C
C      0.08946   0.9935  0.96992     C
C      0.09241  0.15759    0.375     C
C      0.09241  0.34241    0.375     C
C      0.09241  0.65759    0.625     C
C      0.09241  0.84241    0.625     C
H       0.1011   0.1903   0.9961     H
H       0.1011   0.3097   0.9961     H
H       0.1011   0.6903   0.0039     H
H       0.1011   0.8097   0.0039     H
H       0.1167    0.038   0.6711     H
H       0.1167    0.462   0.6711     H
H       0.1167    0.538   0.3289     H
H       0.1167    0.962   0.3289     H
H       0.1301   0.1075   0.7023     H
H       0.1301   0.3925   0.7023     H
H       0.1301   0.6075   0.2977     H
H       0.1301   0.8925   0.2977     H
H       0.1331   0.0728   0.3434     H
H       0.1331   0.4272   0.3434     H
H       0.1331   0.5728   0.6566     H
H       0.1331   0.9272   0.6566     H
C      0.13632  0.01408  0.04928     C
C      0.13632  0.48592  0.04928     C
C      0.13632  0.51408  0.95072     C
C      0.13632  0.98592  0.95072     C
H       0.1425   0.1199   0.0477     H
H       0.1425   0.3801   0.0477     H
H       0.1425   0.6199   0.9523     H
H       0.1425   0.8801   0.9523     H
H       0.1444   0.0885   0.9437     H
H       0.1444   0.4115   0.9437     H
H       0.1444   0.5885   0.0563     H
H       0.1444   0.9115   0.0563     H
C      0.14699  0.10301    0.375     C
C      0.14699  0.39699    0.375     C
C      0.14699  0.60301    0.625     C
C      0.14699  0.89699    0.625     C
C      0.15668  0.08033  0.05579     C
C      0.15668  0.41967  0.05579     C
C      0.15668  0.58033  0.94421     C
C      0.15668  0.91967  0.94421     C
C      0.15769   0.0433  0.93902     C
C      0.15769   0.4567  0.93902     C
C      0.15769   0.5433  0.06098     C
C      0.15769   0.9567  0.06098     C
C      0.15928  0.06398  0.35625     C
C      0.15928  0.43602  0.35625     C
C      0.15928  0.56398  0.64375     C
C      0.15928  0.93602  0.64375     C
H       0.1615   0.1056   0.8063     H
H       0.1615   0.3944   0.8063     H
H       0.1615   0.6056   0.1937     H
H       0.1615   0.8944   0.1937     H
C      0.16184  0.05191   0.6756     C
C      0.16184  0.44809   0.6756     C
C      0.16184  0.55191   0.3244     C
C      0.16184  0.94809   0.3244     C
C      0.16967  0.09332  0.69421     C
C      0.16967  0.40668  0.69421     C
C      0.16967  0.59332  0.30579     C
C      0.16967  0.90668  0.30579     C
H        0.175   0.0373   0.8376     H
H        0.175   0.4627   0.8376     H
H        0.175   0.5373   0.1624     H
H        0.175   0.9627   0.1624     H
H       0.1772   0.1169   0.4066     H
H       0.1772   0.3831   0.4066     H
H       0.1772   0.6169   0.5934     H
H       0.1772   0.8831   0.5934     H
Cu     0.18294     0.25  0.75223    Cu
Cu     0.18294     0.75  0.24777    Cu
C      0.18602  0.09072  0.39375     C
C      0.18602  0.40928  0.39375     C
C      0.18602  0.59072  0.60625     C
C      0.18602  0.90928  0.60625     C
O       0.1886   0.1789  0.72942     O
O       0.1886   0.3211  0.72942     O
O       0.1886   0.6789  0.27058     O
O       0.1886   0.8211  0.27058     O
O      0.19654  0.17968  0.77481     O
O      0.19654  0.32032  0.77481     O
O      0.19654  0.67968  0.22519     O
O      0.19654  0.82032  0.22519     O
C      0.19809  0.08816   0.0744     C
C      0.19809  0.41184   0.0744     C
C      0.19809  0.58816   0.9256     C
C      0.19809  0.91184   0.9256     C
C      0.19861  0.03528  0.92047     C
C      0.19861  0.46472  0.92047     C
C      0.19861  0.53528  0.07953     C
C      0.19861  0.96472  0.07953     C
C       0.2067  0.09231  0.81098     C
C       0.2067  0.40769  0.81098     C
C       0.2067  0.59231  0.18902     C
C       0.2067  0.90769  0.18902     C
C      0.20969  0.01203  0.35621     C
C      0.20969  0.48797  0.35621     C
C      0.20969  0.51203  0.64379     C
C      0.20969  0.98797  0.64379     C
H        0.212   0.1333   0.0789     H
H        0.212   0.3667   0.0789     H
H        0.212   0.6333   0.9211     H
H        0.212   0.8667   0.9211     H
H       0.2127    0.075   0.9124     H
H       0.2127    0.425   0.9124     H
H       0.2127    0.575   0.0876     H
H       0.2127    0.925   0.0876     H
C      0.21472  0.05139  0.82953     C
C      0.21472  0.44861  0.82953     C
C      0.21472  0.55139  0.17047     C
C      0.21472  0.94861  0.17047     C
H       0.2164   0.0336    0.875     H
H       0.2164   0.4664    0.875     H
H       0.2164   0.5336    0.125     H
H       0.2164   0.9664    0.125     H
C      0.21907  0.03055  0.08638     C
C      0.21907  0.46945  0.08638     C
C      0.21907  0.53055  0.91362     C
C      0.21907  0.96945  0.91362     C
C      0.21945  0.03093  0.66362     C
C      0.21945  0.46907  0.66362     C
C      0.21945  0.53093  0.33638     C
C      0.21945  0.96907  0.33638     C
C      0.23592  0.11368  0.70072     C
C      0.23592  0.38632  0.70072     C
C      0.23592  0.61368  0.29928     C
C      0.23592  0.88632  0.29928     C
C      0.23797  0.04031  0.39379     C
C      0.23797  0.45969  0.39379     C
C      0.23797  0.54031  0.60621     C
C      0.23797  0.95969  0.60621     C
C       0.2435  0.16054  0.71992     C
C       0.2435  0.33946  0.71992     C
C       0.2435  0.66054  0.28008     C
C       0.2435  0.83946  0.28008     C
C      0.24871  0.00129    0.375     C
C      0.24871  0.49871    0.375     C
C      0.24871  0.50129    0.625     C
C      0.24871  0.99871    0.625     C
C      0.25129  0.00129    0.125     C
C      0.25129  0.49871    0.125     C
C      0.25129  0.50129    0.875     C
C      0.25129  0.99871    0.875     C
C       0.2565  0.16054  0.78008     C
C       0.2565  0.33946  0.78008     C
C       0.2565  0.66054  0.21992     C
C       0.2565  0.83946  0.21992     C
C      0.26203  0.04031  0.10621     C
C      0.26203  0.45969  0.10621     C
C      0.26203  0.54031  0.89379     C
C      0.26203  0.95969  0.89379     C
C      0.26408  0.11368  0.79928     C
C      0.26408  0.38632  0.79928     C
C      0.26408  0.61368  0.20072     C
C      0.26408  0.88632  0.20072     C
C      0.28055  0.03093  0.83638     C
C      0.28055  0.46907  0.83638     C
C      0.28055  0.53093  0.16362     C
C      0.28055  0.96907  0.16362     C
C      0.28093  0.03055  0.41362     C
C      0.28093  0.46945  0.41362     C
C      0.28093  0.53055  0.58638     C
C      0.28093  0.96945  0.58638     C
H       0.2836   0.0336    0.625     H
H       0.2836   0.4664    0.625     H
H       0.2836   0.5336    0.375     H
H       0.2836   0.9664    0.375     H
C      0.28528  0.05139  0.67047     C
C      0.28528  0.44861  0.67047     C
C      0.28528  0.55139  0.32953     C
C      0.28528  0.94861  0.32953     C
H       0.2873    0.075   0.5876     H
H       0.2873    0.425   0.5876     H
H       0.2873    0.575   0.4124     H
H       0.2873    0.925   0.4124     H
H        0.288   0.1333   0.4211     H
H        0.288   0.3667   0.4211     H
H        0.288   0.6333   0.5789     H
H        0.288   0.8667   0.5789     H
C      0.29031  0.01203  0.14379     C
C      0.29031  0.48797  0.14379     C
C      0.29031  0.51203  0.85621     C
C      0.29031  0.98797  0.85621     C
C       0.2933  0.09231  0.68902     C
C       0.2933  0.40769  0.68902     C
C       0.2933  0.59231  0.31098     C
C       0.2933  0.90769  0.31098     C
C      0.30139  0.03528  0.57953     C
C      0.30139  0.46472  0.57953     C
C      0.30139  0.53528  0.42047     C
C      0.30139  0.96472  0.42047     C
C      0.30191  0.08816   0.4256     C
C      0.30191  0.41184   0.4256     C
C      0.30191  0.58816   0.5744     C
C      0.30191  0.91184   0.5744     C
O      0.30346  0.17968  0.72519     O
O      0.30346  0.32032  0.72519     O
O      0.30346  0.67968  0.27481     O
O      0.30346  0.82032  0.27481     O
O       0.3114   0.1789  0.77058     O
O       0.3114   0.3211  0.77058     O
O       0.3114   0.6789  0.22942     O
O       0.3114   0.8211  0.22942     O
C      0.31398  0.09072  0.10625     C
C      0.31398  0.40928  0.10625     C
C      0.31398  0.59072  0.89375     C
C      0.31398  0.90928  0.89375     C
Cu     0.31706     0.25  0.74777    Cu
Cu     0.31706     0.75  0.25223    Cu
H       0.3228   0.1169   0.0934     H
H       0.3228   0.3831   0.0934     H
H       0.3228   0.6169   0.9066     H
H       0.3228   0.8831   0.9066     H
H        0.325   0.0373   0.6624     H
H        0.325   0.4627   0.6624     H
H        0.325   0.5373   0.3376     H
H        0.325   0.9627   0.3376     H
C      0.33033  0.09332  0.80579     C
C      0.33033  0.40668  0.80579     C
C      0.33033  0.59332  0.19421     C
C      0.33033  0.90668  0.19421     C
C      0.33816  0.05191   0.8244     C
C      0.33816  0.44809   0.8244     C
C      0.33816  0.55191   0.1756     C
C      0.33816  0.94809   0.1756     C
H       0.3385   0.1056   0.6937     H
H       0.3385   0.3944   0.6937     H
H       0.3385   0.6056   0.3063     H
H       0.3385   0.8944   0.3063     H
C      0.34072  0.06398  0.14375     C
C      0.34072  0.43602  0.14375     C
C      0.34072  0.56398  0.85625     C
C      0.34072  0.93602  0.85625     C
C      0.34231   0.0433  0.56098     C
C      0.34231   0.4567  0.56098     C
C      0.34231   0.5433  0.43902     C
C      0.34231   0.9567  0.43902     C
C      0.34332  0.08033  0.44421     C
C      0.34332  0.41967  0.44421     C
C      0.34332  0.58033  0.55579     C
C      0.34332  0.91967  0.55579     C
C      0.35301  0.10301    0.125     C
C      0.35301  0.39699    0.125     C
C      0.35301  0.60301    0.875     C
C      0.35301  0.89699    0.875     C
H       0.3556   0.0885   0.5563     H
H       0.3556   0.4115   0.5563     H
H       0.3556   0.5885   0.4437     H
H       0.3556   0.9115   0.4437     H
H       0.3575   0.1199   0.4523     H
H       0.3575   0.3801   0.4523     H
H       0.3575   0.6199   0.5477     H
H       0.3575   0.8801   0.5477     H
C      0.36368  0.01408  0.45072     C
C      0.36368  0.48592  0.45072     C
C      0.36368  0.51408  0.54928     C
C      0.36368  0.98592  0.54928     C
H       0.3669   0.0728   0.1566     H
H       0.3669   0.4272   0.1566     H
H       0.3669   0.5728   0.8434     H
H       0.3669   0.9272   0.8434     H
H       0.3699   0.1075   0.7977     H
H       0.3699   0.3925   0.7977     H
H       0.3699   0.6075   0.2023     H
H       0.3699   0.8925   0.2023     H
H       0.3833    0.038   0.8289     H
H       0.3833    0.462   0.8289     H
H       0.3833    0.538   0.1711     H
H       0.3833    0.962   0.1711     H
H       0.3989   0.1903   0.5039     H
H       0.3989   0.3097   0.5039     H
H       0.3989   0.6903   0.4961     H
H       0.3989   0.8097   0.4961     H
C      0.40759  0.15759    0.125     C
C      0.40759  0.34241    0.125     C
C      0.40759  0.65759    0.875     C
C      0.40759  0.84241    0.875     C
C      0.41054   0.0065  0.46992     C
C      0.41054   0.4935  0.46992     C
C      0.41054   0.5065  0.53008     C
C      0.41054   0.9935  0.53008     C
N      0.42843     0.25  0.74643     N
N      0.42843     0.75  0.25357     N
O      0.42867   0.1788  0.14335     O
O      0.42867   0.3212  0.14335     O
O      0.42867   0.6788  0.85665     O
O      0.42867   0.8212  0.85665     O
O       0.4288  0.17867  0.10665     O
O       0.4288  0.32133  0.10665     O
O       0.4288  0.67867  0.89335     O
O       0.4288  0.82133  0.89335     O
O       0.4289   0.0614  0.47942     O
O       0.4289   0.4386  0.47942     O
O       0.4289   0.5614  0.52058     O
O       0.4289   0.9386  0.52058     O
O      0.42968  0.05346  0.52481     O
O      0.42968  0.44654  0.52481     O
O      0.42968  0.55346  0.47519     O
O      0.42968  0.94654  0.47519     O
H       0.4403   0.1489   0.7461     H
H       0.4403   0.3511   0.7461     H
H       0.4403   0.6489   0.2539     H
H       0.4403   0.8511   0.2539     H
C      0.44196  0.21429  0.50376     C
C      0.44196  0.28571  0.50376     C
C      0.44196  0.71429  0.49624     C
C      0.44196  0.78571  0.49624     C
C      0.46429  0.19196  0.74624     C
C      0.46429  0.30804  0.74624     C
C      0.46429  0.69196  0.25376     C
C      0.46429  0.80804  0.25376     C
Cu         0.5  0.06706  0.50223    Cu
N          0.5  0.17843  0.50357     N
Cu         0.5     0.25  0.10329    Cu
Cu         0.5     0.25  0.14671    Cu
N          0.5  0.32157  0.50357     N
Cu         0.5  0.43294  0.50223    Cu
Cu         0.5  0.56706  0.49777    Cu
N          0.5  0.67843  0.49643     N
Cu         0.5     0.75  0.85329    Cu
Cu         0.5     0.75  0.89671    Cu
N          0.5  0.82157  0.49643     N
Cu         0.5  0.93294  0.49777    Cu
C      0.53571  0.19196  0.74624     C
C      0.53571  0.30804  0.74624     C
C      0.53571  0.69196  0.25376     C
C      0.53571  0.80804  0.25376     C
C      0.55804  0.21429  0.50376     C
C      0.55804  0.28571  0.50376     C
C      0.55804  0.71429  0.49624     C
C      0.55804  0.78571  0.49624     C
H       0.5597   0.1489   0.7461     H
H       0.5597   0.3511   0.7461     H
H       0.5597   0.6489   0.2539     H
H       0.5597   0.8511   0.2539     H
O      0.57032  0.05346  0.52481     O
O      0.57032  0.44654  0.52481     O
O      0.57032  0.55346  0.47519     O
O      0.57032  0.94654  0.47519     O
O       0.5711   0.0614  0.47942     O
O       0.5711   0.4386  0.47942     O
O       0.5711   0.5614  0.52058     O
O       0.5711   0.9386  0.52058     O
O       0.5712  0.17867  0.10665     O
O       0.5712  0.32133  0.10665     O
O       0.5712  0.67867  0.89335     O
O       0.5712  0.82133  0.89335     O
O      0.57133   0.1788  0.14335     O
O      0.57133   0.3212  0.14335     O
O      0.57133   0.6788  0.85665     O
O      0.57133   0.8212  0.85665     O
N      0.57157     0.25  0.74643     N
N      0.57157     0.75  0.25357     N
C      0.58946   0.0065  0.46992     C
C      0.58946   0.4935  0.46992     C
C      0.58946   0.5065  0.53008     C
C      0.58946   0.9935  0.53008     C
C      0.59241  0.15759    0.125     C
C      0.59241  0.34241    0.125     C
C      0.59241  0.65759    0.875     C
C      0.59241  0.84241    0.875     C
H       0.6011   0.1903   0.5039     H
H       0.6011   0.3097   0.5039     H
H       0.6011   0.6903   0.4961     H
H       0.6011   0.8097   0.4961     H
H       0.6167    0.038   0.8289     H
H       0.6167    0.462   0.8289     H
H       0.6167    0.538   0.1711     H
H       0.6167    0.962   0.1711     H
H       0.6301   0.1075   0.7977     H
H       0.6301   0.3925   0.7977     H
H       0.6301   0.6075   0.2023     H
H       0.6301   0.8925   0.2023     H
H       0.6331   0.0728   0.1566     H
H       0.6331   0.4272   0.1566     H
H       0.6331   0.5728   0.8434     H
H       0.6331   0.9272   0.8434     H
C      0.63632  0.01408  0.45072     C
C      0.63632  0.48592  0.45072     C
C      0.63632  0.51408  0.54928     C
C      0.63632  0.98592  0.54928     C
H       0.6425   0.1199   0.4523     H
H       0.6425   0.3801   0.4523     H
H       0.6425   0.6199   0.5477     H
H       0.6425   0.8801   0.5477     H
H       0.6444   0.0885   0.5563     H
H       0.6444   0.4115   0.5563     H
H       0.6444   0.5885   0.4437     H
H       0.6444   0.9115   0.4437     H
C      0.64699  0.10301    0.125     C
C      0.64699  0.39699    0.125     C
C      0.64699  0.60301    0.875     C
C      0.64699  0.89699    0.875     C
C      0.65668  0.08033  0.44421     C
C      0.65668  0.41967  0.44421     C
C      0.65668  0.58033  0.55579     C
C      0.65668  0.91967  0.55579     C
C      0.65769   0.0433  0.56098     C
C      0.65769   0.4567  0.56098     C
C      0.65769   0.5433  0.43902     C
C      0.65769   0.9567  0.43902     C
C      0.65928  0.06398  0.14375     C
C      0.65928  0.43602  0.14375     C
C      0.65928  0.56398  0.85625     C
C      0.65928  0.93602  0.85625     C
H       0.6615   0.1056   0.6937     H
H       0.6615   0.3944   0.6937     H
H       0.6615   0.6056   0.3063     H
H       0.6615   0.8944   0.3063     H
C      0.66184  0.05191   0.8244     C
C      0.66184  0.44809   0.8244     C
C      0.66184  0.55191   0.1756     C
C      0.66184  0.94809   0.1756     C
C      0.66967  0.09332  0.80579     C
C      0.66967  0.40668  0.80579     C
C      0.66967  0.59332  0.19421     C
C      0.66967  0.90668  0.19421     C
H        0.675   0.0373   0.6624     H
H        0.675   0.4627   0.6624     H
H        0.675   0.5373   0.3376     H
H        0.675   0.9627   0.3376     H
H       0.6772   0.1169   0.0934     H
H       0.6772   0.3831   0.0934     H
H       0.6772   0.6169   0.9066     H
H       0.6772   0.8831   0.9066     H
Cu     0.68294     0.25  0.74777    Cu
Cu     0.68294     0.75  0.25223    Cu
C      0.68602  0.09072  0.10625     C
C      0.68602  0.40928  0.10625     C
C      0.68602  0.59072  0.89375     C
C      0.68602  0.90928  0.89375     C
O       0.6886   0.1789  0.77058     O
O       0.6886   0.3211  0.77058     O
O       0.6886   0.6789  0.22942     O
O       0.6886   0.8211  0.22942     O
O      0.69654  0.17968  0.72519     O
O      0.69654  0.32032  0.72519     O
O      0.69654  0.67968  0.27481     O
O      0.69654  0.82032  0.27481     O
C      0.69809  0.08816   0.4256     C
C      0.69809  0.41184   0.4256     C
C      0.69809  0.58816   0.5744     C
C      0.69809  0.91184   0.5744     C
C      0.69861  0.03528  0.57953     C
C      0.69861  0.46472  0.57953     C
C      0.69861  0.53528  0.42047     C
C      0.69861  0.96472  0.42047     C
C       0.7067  0.09231  0.68902     C
C       0.7067  0.40769  0.68902     C
C       0.7067  0.59231  0.31098     C
C       0.7067  0.90769  0.31098     C
C      0.70969  0.01203  0.14379     C
C      0.70969  0.48797  0.14379     C
C      0.70969  0.51203  0.85621     C
C      0.70969  0.98797  0.85621     C
H        0.712   0.1333   0.4211     H
H        0.712   0.3667   0.4211     H
H        0.712   0.6333   0.5789     H
H        0.712   0.8667   0.5789     H
H       0.7127    0.075   0.5876     H
H       0.7127    0.425   0.5876     H
H       0.7127    0.575   0.4124     H
H       0.7127    0.925   0.4124     H
C      0.71472  0.05139  0.67047     C
C      0.71472  0.44861  0.67047     C
C      0.71472  0.55139  0.32953     C
C      0.71472  0.94861  0.32953     C
H       0.7164   0.0336    0.625     H
H       0.7164   0.4664    0.625     H
H       0.7164   0.5336    0.375     H
H       0.7164   0.9664    0.375     H
C      0.71907  0.03055  0.41362     C
C      0.71907  0.46945  0.41362     C
C      0.71907  0.53055  0.58638     C
C      0.71907  0.96945  0.58638     C
C      0.71945  0.03093  0.83638     C
C      0.71945  0.46907  0.83638     C
C      0.71945  0.53093  0.16362     C
C      0.71945  0.96907  0.16362     C
C      0.73592  0.11368  0.79928     C
C      0.73592  0.38632  0.79928     C
C      0.73592  0.61368  0.20072     C
C      0.73592  0.88632  0.20072     C
C      0.73797  0.04031  0.10621     C
C      0.73797  0.45969  0.10621     C
C      0.73797  0.54031  0.89379     C
C      0.73797  0.95969  0.89379     C
C       0.7435  0.16054  0.78008     C
C       0.7435  0.33946  0.78008     C
C       0.7435  0.66054  0.21992     C
C       0.7435  0.83946  0.21992     C
C      0.74871  0.00129    0.125     C
C      0.74871  0.49871    0.125     C
C      0.74871  0.50129    0.875     C
C      0.74871  0.99871    0.875     C
C      0.75129  0.00129    0.375     C
C      0.75129  0.49871    0.375     C
C      0.75129  0.50129    0.625     C
C      0.75129  0.99871    0.625     C
C       0.7565  0.16054  0.71992     C
C       0.7565  0.33946  0.71992     C
C       0.7565  0.66054  0.28008     C
C       0.7565  0.83946  0.28008     C
C      0.76203  0.04031  0.39379     C
C      0.76203  0.45969  0.39379     C
C      0.76203  0.54031  0.60621     C
C      0.76203  0.95969  0.60621     C
C      0.76408  0.11368  0.70072     C
C      0.76408  0.38632  0.70072     C
C      0.76408  0.61368  0.29928     C
C      0.76408  0.88632  0.29928     C
C      0.78055  0.03093  0.66362     C
C      0.78055  0.46907  0.66362     C
C      0.78055  0.53093  0.33638     C
C      0.78055  0.96907  0.33638     C
C      0.78093  0.03055  0.08638     C
C      0.78093  0.46945  0.08638     C
C      0.78093  0.53055  0.91362     C
C      0.78093  0.96945  0.91362     C
H       0.7836   0.0336    0.875     H
H       0.7836   0.4664    0.875     H
H       0.7836   0.5336    0.125     H
H       0.7836   0.9664    0.125     H
C      0.78528  0.05139  0.82953     C
C      0.78528  0.44861  0.82953     C
C      0.78528  0.55139  0.17047     C
C      0.78528  0.94861  0.17047     C
H       0.7873    0.075   0.9124     H
H       0.7873    0.425   0.9124     H
H       0.7873    0.575   0.0876     H
H       0.7873    0.925   0.0876     H
H        0.788   0.1333   0.0789     H
H        0.788   0.3667   0.0789     H
H        0.788   0.6333   0.9211     H
H        0.788   0.8667   0.9211     H
C      0.79031  0.01203  0.35621     C
C      0.79031  0.48797  0.35621     C
C      0.79031  0.51203  0.64379     C
C      0.79031  0.98797  0.64379     C
C       0.7933  0.09231  0.81098     C
C       0.7933  0.40769  0.81098     C
C       0.7933  0.59231  0.18902     C
C       0.7933  0.90769  0.18902     C
C      0.80139  0.03528  0.92047     C
C      0.80139  0.46472  0.92047     C
C      0.80139  0.53528  0.07953     C
C      0.80139  0.96472  0.07953     C
C      0.80191  0.08816   0.0744     C
C      0.80191  0.41184   0.0744     C
C      0.80191  0.58816   0.9256     C
C      0.80191  0.91184   0.9256     C
O      0.80346  0.17968  0.77481     O
O      0.80346  0.32032  0.77481     O
O      0.80346  0.67968  0.22519     O
O      0.80346  0.82032  0.22519     O
O       0.8114   0.1789  0.72942     O
O       0.8114   0.3211  0.72942     O
O       0.8114   0.6789  0.27058     O
O       0.8114   0.8211  0.27058     O
C      0.81398  0.09072  0.39375     C
C      0.81398  0.40928  0.39375     C
C      0.81398  0.59072  0.60625     C
C      0.81398  0.90928  0.60625     C
Cu     0.81706     0.25  0.75223    Cu
Cu     0.81706     0.75  0.24777    Cu
H       0.8228   0.1169   0.4066     H
H       0.8228   0.3831   0.4066     H
H       0.8228   0.6169   0.5934     H
H       0.8228   0.8831   0.5934     H
H        0.825   0.0373   0.8376     H
H        0.825   0.4627   0.8376     H
H        0.825   0.5373   0.1624     H
H        0.825   0.9627   0.1624     H
C      0.83033  0.09332  0.69421     C
C      0.83033  0.40668  0.69421     C
C      0.83033  0.59332  0.30579     C
C      0.83033  0.90668  0.30579     C
C      0.83816  0.05191   0.6756     C
C      0.83816  0.44809   0.6756     C
C      0.83816  0.55191   0.3244     C
C      0.83816  0.94809   0.3244     C
H       0.8385   0.1056   0.8063     H
H       0.8385   0.3944   0.8063     H
H       0.8385   0.6056   0.1937     H
H       0.8385   0.8944   0.1937     H
C      0.84072  0.06398  0.35625     C
C      0.84072  0.43602  0.35625     C
C      0.84072  0.56398  0.64375     C
C      0.84072  0.93602  0.64375     C
C      0.84231   0.0433  0.93902     C
C      0.84231   0.4567  0.93902     C
C      0.84231   0.5433  0.06098     C
C      0.84231   0.9567  0.06098     C
C      0.84332  0.08033  0.05579     C
C      0.84332  0.41967  0.05579     C
C      0.84332  0.58033  0.94421     C
C      0.84332  0.91967  0.94421     C
C      0.85301  0.10301    0.375     C
C      0.85301  0.39699    0.375     C
C      0.85301  0.60301    0.625     C
C      0.85301  0.89699    0.625     C
H       0.8556   0.0885   0.9437     H
H       0.8556   0.4115   0.9437     H
H       0.8556   0.5885   0.0563     H
H       0.8556   0.9115   0.0563     H
H       0.8575   0.1199   0.0477     H
H       0.8575   0.3801   0.0477     H
H       0.8575   0.6199   0.9523     H
H       0.8575   0.8801   0.9523     H
C      0.86368  0.01408  0.04928     C
C      0.86368  0.48592  0.04928     C
C      0.86368  0.51408  0.95072     C
C      0.86368  0.98592  0.95072     C
H       0.8669   0.0728   0.3434     H
H       0.8669   0.4272   0.3434     H
H       0.8669   0.5728   0.6566     H
H       0.8669   0.9272   0.6566     H
H       0.8699   0.1075   0.7023     H
H       0.8699   0.3925   0.7023     H
H       0.8699   0.6075   0.2977     H
H       0.8699   0.8925   0.2977     H
H       0.8833    0.038   0.6711     H
H       0.8833    0.462   0.6711     H
H       0.8833    0.538   0.3289     H
H       0.8833    0.962   0.3289     H
H       0.8989   0.1903   0.9961     H
H       0.8989   0.3097   0.9961     H
H       0.8989   0.6903   0.0039     H
H       0.8989   0.8097   0.0039     H
C      0.90759  0.15759    0.375     C
C      0.90759  0.34241    0.375     C
C      0.90759  0.65759    0.625     C
C      0.90759  0.84241    0.625     C
C      0.91054   0.0065  0.03008     C
C      0.91054   0.4935  0.03008     C
C      0.91054   0.5065  0.96992     C
C      0.91054   0.9935  0.96992     C
N      0.92843     0.25  0.75357     N
N      0.92843     0.75  0.24643     N
O      0.92867   0.1788  0.35665     O
O      0.92867   0.3212  0.35665     O
O      0.92867   0.6788  0.64335     O
O      0.92867   0.8212  0.64335     O
O       0.9288  0.17867  0.39335     O
O       0.9288  0.32133  0.39335     O
O       0.9288  0.67867  0.60665     O
O       0.9288  0.82133  0.60665     O
O       0.9289   0.0614  0.02058     O
O       0.9289   0.4386  0.02058     O
O       0.9289   0.5614  0.97942     O
O       0.9289   0.9386  0.97942     O
O      0.92968  0.05346  0.97519     O
O      0.92968  0.44654  0.97519     O
O      0.92968  0.55346  0.02481     O
O      0.92968  0.94654  0.02481     O
H       0.9403   0.1489   0.7539     H
H       0.9403   0.3511   0.7539     H
H       0.9403   0.6489   0.2461     H
H       0.9403   0.8511   0.2461     H
C      0.94196  0.21429  0.99624     C
C      0.94196  0.28571  0.99624     C
C      0.94196  0.71429  0.00376     C
C      0.94196  0.78571  0.00376     C
C      0.96429  0.19196  0.75376     C
C      0.96429  0.30804  0.75376     C
C      0.96429  0.69196  0.24624     C
C      0.96429  0.80804  0.24624     C
