data_I
_chemical_name_common  '/home/zhangsd/repos/MofS-CGCNN/ML/data/TSD/clean_cifs/NAJSUP_clean'
_cell_length_a 29.20630
_cell_length_b 13.66070
_cell_length_c 13.92940
_cell_angle_alpha 90.00000
_cell_angle_beta  98.29100
_cell_angle_gamma 90.00000
_space_group_name_H-M_alt      'P 1'


loop_
_space_group_symop_operation_xyz
  'x, y, z' 

loop_
_atom_site_label
_atom_site_fract_x
_atom_site_fract_y
_atom_site_fract_z
_atom_site_type_symbol
H       0.0025   0.4697   0.3973     H
H       0.0025   0.5303   0.8973     H
C      0.00397   0.3863   0.8904     C
C      0.00397   0.6137   0.3904     C
C      0.01716   0.2213   0.8744     C
C      0.01716   0.7787   0.3744     C
C      0.02081   0.4773   0.8849     C
C      0.02081   0.5227   0.3849     C
C      0.02466   0.2032   0.5933     C
C      0.02466   0.7968   0.0933     C
C      0.03287    0.313   0.8678     C
C      0.03287    0.687   0.3678     C
H       0.0341   0.1385    0.589     H
H       0.0341   0.8615    0.089     H
H       0.0347   0.1691    0.857     H
H       0.0347   0.8309    0.357     H
C      0.03877   0.3649   0.5763     C
C      0.03877   0.6351   0.0763     C
C      0.05295   0.2761   0.5671     C
C      0.05295   0.7239   0.0671     C
H       0.0571   0.4165   0.5606     H
H       0.0571   0.5835   0.0606     H
C       0.0644   0.4946   0.8615     C
C       0.0644   0.5054   0.3615     C
H       0.0746   0.4409   0.3611     H
H       0.0746   0.5591   0.8611     H
C      0.07685   0.3337   0.8405     C
C      0.07685   0.6663   0.3405     C
C      0.09359   0.4221   0.8389     C
C      0.09359   0.5779   0.3389     C
H       0.0945   0.2819   0.8229     H
H       0.0945   0.7181   0.3229     H
C      0.09694   0.2543   0.5268     C
C      0.09694   0.7457   0.0268     C
O      0.11243  0.17307    0.534     O
O      0.11243  0.82693    0.034     O
O      0.11728    0.316   0.4858     O
O      0.11728    0.684   0.9858     O
C      0.14184   0.4396   0.8187     C
C      0.14184   0.5604   0.3187     C
H       0.1432   0.3391   0.7145     H
H       0.1432   0.6609   0.2145     H
H       0.1579   0.4511   0.4128     H
H       0.1579   0.5489   0.9128     H
C      0.16148   0.3848   0.7519     C
C      0.16148   0.6152   0.2519     C
C      0.17007    0.492   0.3694     C
C      0.17007    0.508   0.8694     C
Eu     0.18267  0.20835   0.4632    Eu
Eu     0.18267  0.79166   0.9632    Eu
O      0.20051  0.27389   0.6227     O
O      0.20051  0.72611   0.1227     O
C      0.20769   0.3953   0.7381     C
C      0.20769   0.6047   0.2381     C
O      0.21006  0.07595   0.5673     O
O      0.21006  0.92405   0.0673     O
C      0.21631   0.4821   0.3576     C
C      0.21631   0.5179   0.8576     C
C      0.22727   0.3355    0.664     C
C      0.22727   0.6645    0.164     C
O      0.22807  0.34039  0.44739     O
O      0.22807  0.65961  0.94739     O
O      0.23176  0.14942  0.35006     O
O      0.23176  0.85058  0.85006     O
H       0.2334   0.0319   0.2141     H
H       0.2334   0.9681   0.7141     H
C      0.23551   0.4616   0.7928     C
C      0.23551   0.5384   0.2928     C
C      0.24668   0.4109   0.4154     C
C      0.24668   0.5891   0.9154     C
C      0.25332   0.0891   0.5846     C
C      0.25332   0.9109   0.0846     C
C      0.26449   0.0384   0.2072     C
C      0.26449   0.9616   0.7072     C
H       0.2666   0.4681   0.7859     H
H       0.2666   0.5319   0.2859     H
O      0.26824  0.35058  0.64994     O
O      0.26824  0.64942  0.14994     O
O      0.27193  0.15961  0.55261     O
O      0.27193  0.84039  0.05261     O
C      0.27273   0.1645    0.336     C
C      0.27273   0.8355    0.836     C
C      0.28369   0.0179   0.6424     C
C      0.28369   0.9821   0.1424     C
O      0.28994  0.42405   0.4327     O
O      0.28994  0.57595   0.9327     O
C      0.29231   0.1047   0.2619     C
C      0.29231   0.8953   0.7619     C
O      0.29949  0.22611   0.3773     O
O      0.29949  0.77389   0.8773     O
Eu     0.31733  0.29166   0.5368    Eu
Eu     0.31733  0.70835   0.0368    Eu
C      0.32993    0.008   0.6306     C
C      0.32993    0.992   0.1306     C
C      0.33852   0.1152   0.2481     C
C      0.33852   0.8848   0.7481     C
H       0.3421   0.0489   0.5872     H
H       0.3421   0.9511   0.0872     H
H       0.3568   0.1609   0.2855     H
H       0.3568   0.8391   0.7855     H
C      0.35816   0.0604   0.1813     C
C      0.35816   0.9396   0.6813     C
O      0.38272    0.184   0.5142     O
O      0.38272    0.816   0.0142     O
O      0.38757  0.32693    0.466     O
O      0.38757  0.67307    0.966     O
C      0.40306   0.2457   0.4732     C
C      0.40306   0.7543   0.9732     C
H       0.4055   0.2181   0.1771     H
H       0.4055   0.7819   0.6771     H
C      0.40641   0.0779   0.1611     C
C      0.40641   0.9221   0.6611     C
C      0.42315   0.1663   0.1595     C
C      0.42315   0.8337   0.6595     C
H       0.4254   0.0591   0.6389     H
H       0.4254   0.9409   0.1389     H
C       0.4356   0.0054   0.1385     C
C       0.4356   0.9946   0.6385     C
H       0.4429   0.0835   0.4394     H
H       0.4429   0.9165   0.9394     H
C      0.44705   0.2239   0.4329     C
C      0.44705   0.7761   0.9329     C
C      0.46123   0.1351   0.4237     C
C      0.46123   0.8649   0.9237     C
H       0.4653   0.3309    0.143     H
H       0.4653   0.6691    0.643     H
H       0.4659   0.3615    0.411     H
H       0.4659   0.6385    0.911     H
C      0.46713    0.187   0.1322     C
C      0.46713    0.813   0.6322     C
C      0.47534   0.2968   0.4067     C
C      0.47534   0.7032   0.9067     C
C      0.47919   0.0227   0.1151     C
C      0.47919   0.9773   0.6151     C
C      0.48284   0.2787   0.1256     C
C      0.48284   0.7213   0.6256     C
C      0.49603   0.1137   0.1096     C
C      0.49603   0.8863   0.6096     C
H       0.4975   0.0303   0.6027     H
H       0.4975   0.9697   0.1027     H
H       0.5025   0.0303   0.8973     H
H       0.5025   0.9697   0.3973     H
C      0.50397   0.1137   0.3904     C
C      0.50397   0.8863   0.8904     C
C      0.51716   0.2787   0.3744     C
C      0.51716   0.7213   0.8744     C
C      0.52081   0.0227   0.3849     C
C      0.52081   0.9773   0.8849     C
C      0.52466   0.2968   0.0933     C
C      0.52466   0.7032   0.5933     C
C      0.53287    0.187   0.3678     C
C      0.53287    0.813   0.8678     C
H       0.5341   0.3615    0.089     H
H       0.5341   0.6385    0.589     H
H       0.5347   0.3309    0.357     H
H       0.5347   0.6691    0.857     H
C      0.53877   0.1351   0.0763     C
C      0.53877   0.8649   0.5763     C
C      0.55295   0.2239   0.0671     C
C      0.55295   0.7761   0.5671     C
H       0.5571   0.0835   0.0606     H
H       0.5571   0.9165   0.5606     H
C       0.5644   0.0054   0.3615     C
C       0.5644   0.9946   0.8615     C
H       0.5746   0.0591   0.8611     H
H       0.5746   0.9409   0.3611     H
C      0.57685   0.1663   0.3405     C
C      0.57685   0.8337   0.8405     C
C      0.59359   0.0779   0.3389     C
C      0.59359   0.9221   0.8389     C
H       0.5945   0.2181   0.3229     H
H       0.5945   0.7819   0.8229     H
C      0.59694   0.2457   0.0268     C
C      0.59694   0.7543   0.5268     C
O      0.61243  0.32693    0.034     O
O      0.61243  0.67307    0.534     O
O      0.61728    0.184   0.9858     O
O      0.61728    0.816   0.4858     O
C      0.64184   0.0604   0.3187     C
C      0.64184   0.9396   0.8187     C
H       0.6432   0.1609   0.2145     H
H       0.6432   0.8391   0.7145     H
H       0.6579   0.0489   0.9128     H
H       0.6579   0.9511   0.4128     H
C      0.66148   0.1152   0.2519     C
C      0.66148   0.8848   0.7519     C
C      0.67007    0.008   0.8694     C
C      0.67007    0.992   0.3694     C
Eu     0.68267  0.29166   0.9632    Eu
Eu     0.68267  0.70835   0.4632    Eu
O      0.70051  0.22611   0.1227     O
O      0.70051  0.77389   0.6227     O
C      0.70769   0.1047   0.2381     C
C      0.70769   0.8953   0.7381     C
O      0.71006  0.42405   0.0673     O
O      0.71006  0.57595   0.5673     O
C      0.71631   0.0179   0.8576     C
C      0.71631   0.9821   0.3576     C
C      0.72727   0.1645    0.164     C
C      0.72727   0.8355    0.664     C
O      0.72807  0.15961  0.94739     O
O      0.72807  0.84039  0.44739     O
O      0.73176  0.35058  0.85006     O
O      0.73176  0.64942  0.35006     O
H       0.7334   0.4681   0.7141     H
H       0.7334   0.5319   0.2141     H
C      0.73551   0.0384   0.2928     C
C      0.73551   0.9616   0.7928     C
C      0.74668   0.0891   0.9154     C
C      0.74668   0.9109   0.4154     C
C      0.75332   0.4109   0.0846     C
C      0.75332   0.5891   0.5846     C
C      0.76449   0.4616   0.7072     C
C      0.76449   0.5384   0.2072     C
H       0.7666   0.0319   0.2859     H
H       0.7666   0.9681   0.7859     H
O      0.76824  0.14942  0.14994     O
O      0.76824  0.85058  0.64994     O
O      0.77193  0.34039  0.05261     O
O      0.77193  0.65961  0.55261     O
C      0.77273   0.3355    0.836     C
C      0.77273   0.6645    0.336     C
C      0.78369   0.4821   0.1424     C
C      0.78369   0.5179   0.6424     C
O      0.78994  0.07595   0.9327     O
O      0.78994  0.92405   0.4327     O
C      0.79231   0.3953   0.7619     C
C      0.79231   0.6047   0.2619     C
O      0.79949  0.27389   0.8773     O
O      0.79949  0.72611   0.3773     O
Eu     0.81733  0.20835   0.0368    Eu
Eu     0.81733  0.79166   0.5368    Eu
C      0.82993    0.492   0.1306     C
C      0.82993    0.508   0.6306     C
C      0.83852   0.3848   0.7481     C
C      0.83852   0.6152   0.2481     C
H       0.8421   0.4511   0.0872     H
H       0.8421   0.5489   0.5872     H
H       0.8568   0.3391   0.7855     H
H       0.8568   0.6609   0.2855     H
C      0.85816   0.4396   0.6813     C
C      0.85816   0.5604   0.1813     C
O      0.88272    0.316   0.0142     O
O      0.88272    0.684   0.5142     O
O      0.88757  0.17307    0.966     O
O      0.88757  0.82693    0.466     O
C      0.90306   0.2543   0.9732     C
C      0.90306   0.7457   0.4732     C
H       0.9055   0.2819   0.6771     H
H       0.9055   0.7181   0.1771     H
C      0.90641   0.4221   0.6611     C
C      0.90641   0.5779   0.1611     C
C      0.92315   0.3337   0.6595     C
C      0.92315   0.6663   0.1595     C
H       0.9254   0.4409   0.1389     H
H       0.9254   0.5591   0.6389     H
C       0.9356   0.4946   0.6385     C
C       0.9356   0.5054   0.1385     C
H       0.9429   0.4165   0.9394     H
H       0.9429   0.5835   0.4394     H
C      0.94705   0.2761   0.9329     C
C      0.94705   0.7239   0.4329     C
C      0.96123   0.3649   0.9237     C
C      0.96123   0.6351   0.4237     C
H       0.9653   0.1691    0.643     H
H       0.9653   0.8309    0.143     H
H       0.9659   0.1385    0.911     H
H       0.9659   0.8615    0.411     H
C      0.96713    0.313   0.6322     C
C      0.96713    0.687   0.1322     C
C      0.97534   0.2032   0.9067     C
C      0.97534   0.7968   0.4067     C
C      0.97919   0.4773   0.6151     C
C      0.97919   0.5227   0.1151     C
C      0.98284   0.2213   0.6256     C
C      0.98284   0.7787   0.1256     C
C      0.99603   0.3863   0.6096     C
C      0.99603   0.6137   0.1096     C
H       0.9975   0.4697   0.1027     H
H       0.9975   0.5303   0.6027     H
