data_I
_chemical_name_common  '/home/zhangsd/repos/MofS-CGCNN/ML/data/TSD/clean_cifs/NAJTAW_clean'
_cell_length_a 28.85330
_cell_length_b 14.40380
_cell_length_c 13.74140
_cell_angle_alpha 90.00000
_cell_angle_beta  98.66600
_cell_angle_gamma 90.00000
_space_group_name_H-M_alt      'P 1'


loop_
_space_group_symop_operation_xyz
  'x, y, z' 

loop_
_atom_site_label
_atom_site_fract_x
_atom_site_fract_y
_atom_site_fract_z
_atom_site_type_symbol
H       0.0011   0.4739   0.3972     H
H       0.0011   0.5261   0.8972     H
C      0.00317   0.3849   0.8907     C
C      0.00317   0.6151   0.3907     C
C       0.0164   0.2192   0.8747     C
C       0.0164   0.7808   0.3747     C
C       0.0201   0.4767   0.8847     C
C       0.0201   0.5233   0.3847     C
C       0.0253   0.2012   0.5924     C
C       0.0253   0.7988   0.0924     C
C       0.0319   0.3119   0.8672     C
C       0.0319   0.6881   0.3672     C
H       0.0345   0.1704   0.8571     H
H       0.0345   0.8296   0.3571     H
H       0.0352   0.1401   0.5878     H
H       0.0352   0.8599   0.0878     H
C      0.03947   0.3643   0.5754     C
C      0.03947   0.6357   0.0754     C
C      0.05314   0.2743   0.5655     C
C      0.05314   0.7257   0.0655     C
H       0.0585   0.4125   0.5596     H
H       0.0585   0.5875   0.0596     H
C      0.06365   0.4947   0.8611     C
C      0.06365   0.5053   0.3611     C
H       0.0742   0.4444   0.3601     H
H       0.0742   0.5556   0.8601     H
C      0.07613   0.3328   0.8397     C
C      0.07613   0.6672   0.3397     C
C      0.09268   0.4218   0.8381     C
C      0.09268   0.5782   0.3381     C
H       0.0945   0.2845   0.8221     H
H       0.0945   0.7155   0.3221     H
C       0.0975   0.2523   0.5252     C
C       0.0975   0.7477   0.0252     C
O      0.11345   0.1707   0.5341     O
O      0.11345   0.8293   0.0341     O
O      0.11741   0.3141   0.4828     O
O      0.11741   0.6859   0.9828     O
C      0.14053     0.44   0.8167     C
C      0.14053     0.56   0.3167     C
H       0.1422   0.3404    0.713     H
H       0.1422   0.6596    0.213     H
H       0.1564   0.4531   0.4123     H
H       0.1564   0.5469   0.9123     H
C      0.16053   0.3851   0.7495     C
C      0.16053   0.6149   0.2495     C
C      0.16891   0.4918   0.3686     C
C      0.16891   0.5082   0.8686     C
Tb     0.18292  0.20671  0.46312    Tb
Tb     0.18292  0.79329  0.96312    Tb
O      0.19975    0.274   0.6203     O
O      0.19975    0.726   0.1203     O
C       0.2069   0.3958   0.7361     C
C       0.2069   0.6042   0.2361     C
O      0.21099   0.0774   0.5677     O
O      0.21099   0.9226   0.0677     O
C      0.21557   0.4813   0.3555     C
C      0.21557   0.5187   0.8555     C
C      0.22618   0.3362   0.6604     C
C      0.22618   0.6638   0.1604     C
O       0.2268   0.3384   0.4446     O
O       0.2268   0.6616   0.9446     O
O      0.23281   0.1479   0.3538     O
O      0.23281   0.8521   0.8538     O
H        0.234   0.0315    0.217     H
H        0.234   0.9685    0.717     H
C       0.2346   0.4621   0.7904     C
C       0.2346   0.5379   0.2904     C
C      0.24579   0.4096   0.4137     C
C      0.24579   0.5904   0.9137     C
C      0.25421   0.0904   0.5863     C
C      0.25421   0.9096   0.0863     C
C       0.2654   0.0379   0.2096     C
C       0.2654   0.9621   0.7096     C
H        0.266   0.4685    0.783     H
H        0.266   0.5315    0.283     H
O      0.26719   0.3521   0.6462     O
O      0.26719   0.6479   0.1462     O
O       0.2732   0.1616   0.5554     O
O       0.2732   0.8384   0.0554     O
C      0.27382   0.1638   0.3396     C
C      0.27382   0.8362   0.8396     C
C      0.28443   0.0187   0.6445     C
C      0.28443   0.9813   0.1445     C
O      0.28901   0.4226   0.4323     O
O      0.28901   0.5774   0.9323     O
C       0.2931   0.1042   0.2639     C
C       0.2931   0.8958   0.7639     C
O      0.30025    0.226   0.3797     O
O      0.30025    0.774   0.8797     O
Tb     0.31708  0.29329  0.53688    Tb
Tb     0.31708  0.70671  0.03688    Tb
C      0.33109   0.0082   0.6314     C
C      0.33109   0.9918   0.1314     C
C      0.33947   0.1149   0.2505     C
C      0.33947   0.8851   0.7505     C
H       0.3436   0.0469   0.5877     H
H       0.3436   0.9531   0.0877     H
H       0.3578   0.1596    0.287     H
H       0.3578   0.8404    0.787     H
C      0.35947     0.06   0.1833     C
C      0.35947     0.94   0.6833     C
O      0.38259   0.1859   0.5172     O
O      0.38259   0.8141   0.0172     O
O      0.38655   0.3293   0.4659     O
O      0.38655   0.6707   0.9659     O
C       0.4025   0.2477   0.4748     C
C       0.4025   0.7523   0.9748     C
H       0.4055   0.2155   0.1779     H
H       0.4055   0.7845   0.6779     H
C      0.40732   0.0782   0.1619     C
C      0.40732   0.9218   0.6619     C
C      0.42387   0.1672   0.1603     C
C      0.42387   0.8328   0.6603     C
H       0.4258   0.0556   0.6399     H
H       0.4258   0.9444   0.1399     H
C      0.43635   0.0053   0.1389     C
C      0.43635   0.9947   0.6389     C
H       0.4415   0.0875   0.4404     H
H       0.4415   0.9125   0.9404     H
C      0.44686   0.2257   0.4345     C
C      0.44686   0.7743   0.9345     C
C      0.46053   0.1357   0.4246     C
C      0.46053   0.8643   0.9246     C
H       0.4648   0.3599   0.4122     H
H       0.4648   0.6401   0.9122     H
H       0.4655   0.3296   0.1429     H
H       0.4655   0.6704   0.6429     H
C       0.4681   0.1881   0.1328     C
C       0.4681   0.8119   0.6328     C
C       0.4747   0.2988   0.4076     C
C       0.4747   0.7012   0.9076     C
C       0.4799   0.0233   0.1153     C
C       0.4799   0.9767   0.6153     C
C       0.4836   0.2808   0.1253     C
C       0.4836   0.7192   0.6253     C
C      0.49683   0.1151   0.1093     C
C      0.49683   0.8849   0.6093     C
H       0.4989   0.0261   0.6028     H
H       0.4989   0.9739   0.1028     H
H       0.5011   0.0261   0.8972     H
H       0.5011   0.9739   0.3972     H
C      0.50317   0.1151   0.3907     C
C      0.50317   0.8849   0.8907     C
C       0.5164   0.2808   0.3747     C
C       0.5164   0.7192   0.8747     C
C       0.5201   0.0233   0.3847     C
C       0.5201   0.9767   0.8847     C
C       0.5253   0.2988   0.0924     C
C       0.5253   0.7012   0.5924     C
C       0.5319   0.1881   0.3672     C
C       0.5319   0.8119   0.8672     C
H       0.5345   0.3296   0.3571     H
H       0.5345   0.6704   0.8571     H
H       0.5352   0.3599   0.0878     H
H       0.5352   0.6401   0.5878     H
C      0.53947   0.1357   0.0754     C
C      0.53947   0.8643   0.5754     C
C      0.55314   0.2257   0.0655     C
C      0.55314   0.7743   0.5655     C
H       0.5585   0.0875   0.0596     H
H       0.5585   0.9125   0.5596     H
C      0.56365   0.0053   0.3611     C
C      0.56365   0.9947   0.8611     C
H       0.5742   0.0556   0.8601     H
H       0.5742   0.9444   0.3601     H
C      0.57613   0.1672   0.3397     C
C      0.57613   0.8328   0.8397     C
C      0.59268   0.0782   0.3381     C
C      0.59268   0.9218   0.8381     C
H       0.5945   0.2155   0.3221     H
H       0.5945   0.7845   0.8221     H
C       0.5975   0.2477   0.0252     C
C       0.5975   0.7523   0.5252     C
O      0.61345   0.3293   0.0341     O
O      0.61345   0.6707   0.5341     O
O      0.61741   0.1859   0.9828     O
O      0.61741   0.8141   0.4828     O
C      0.64053     0.06   0.3167     C
C      0.64053     0.94   0.8167     C
H       0.6422   0.1596    0.213     H
H       0.6422   0.8404    0.713     H
H       0.6564   0.0469   0.9123     H
H       0.6564   0.9531   0.4123     H
C      0.66053   0.1149   0.2495     C
C      0.66053   0.8851   0.7495     C
C      0.66891   0.0082   0.8686     C
C      0.66891   0.9918   0.3686     C
Tb     0.68292  0.29329  0.96312    Tb
Tb     0.68292  0.70671  0.46312    Tb
O      0.69975    0.226   0.1203     O
O      0.69975    0.774   0.6203     O
C       0.7069   0.1042   0.2361     C
C       0.7069   0.8958   0.7361     C
O      0.71099   0.4226   0.0677     O
O      0.71099   0.5774   0.5677     O
C      0.71557   0.0187   0.8555     C
C      0.71557   0.9813   0.3555     C
C      0.72618   0.1638   0.1604     C
C      0.72618   0.8362   0.6604     C
O       0.7268   0.1616   0.9446     O
O       0.7268   0.8384   0.4446     O
O      0.73281   0.3521   0.8538     O
O      0.73281   0.6479   0.3538     O
H        0.734   0.4685    0.717     H
H        0.734   0.5315    0.217     H
C       0.7346   0.0379   0.2904     C
C       0.7346   0.9621   0.7904     C
C      0.74579   0.0904   0.9137     C
C      0.74579   0.9096   0.4137     C
C      0.75421   0.4096   0.0863     C
C      0.75421   0.5904   0.5863     C
C       0.7654   0.4621   0.7096     C
C       0.7654   0.5379   0.2096     C
H        0.766   0.0315    0.283     H
H        0.766   0.9685    0.783     H
O      0.76719   0.1479   0.1462     O
O      0.76719   0.8521   0.6462     O
O       0.7732   0.3384   0.0554     O
O       0.7732   0.6616   0.5554     O
C      0.77382   0.3362   0.8396     C
C      0.77382   0.6638   0.3396     C
C      0.78443   0.4813   0.1445     C
C      0.78443   0.5187   0.6445     C
O      0.78901   0.0774   0.9323     O
O      0.78901   0.9226   0.4323     O
C       0.7931   0.3958   0.7639     C
C       0.7931   0.6042   0.2639     C
O      0.80025    0.274   0.8797     O
O      0.80025    0.726   0.3797     O
Tb     0.81708  0.20671  0.03688    Tb
Tb     0.81708  0.79329  0.53688    Tb
C      0.83109   0.4918   0.1314     C
C      0.83109   0.5082   0.6314     C
C      0.83947   0.3851   0.7505     C
C      0.83947   0.6149   0.2505     C
H       0.8436   0.4531   0.0877     H
H       0.8436   0.5469   0.5877     H
H       0.8578   0.3404    0.787     H
H       0.8578   0.6596    0.287     H
C      0.85947     0.44   0.6833     C
C      0.85947     0.56   0.1833     C
O      0.88259   0.3141   0.0172     O
O      0.88259   0.6859   0.5172     O
O      0.88655   0.1707   0.9659     O
O      0.88655   0.8293   0.4659     O
C       0.9025   0.2523   0.9748     C
C       0.9025   0.7477   0.4748     C
H       0.9055   0.2845   0.6779     H
H       0.9055   0.7155   0.1779     H
C      0.90732   0.4218   0.6619     C
C      0.90732   0.5782   0.1619     C
C      0.92387   0.3328   0.6603     C
C      0.92387   0.6672   0.1603     C
H       0.9258   0.4444   0.1399     H
H       0.9258   0.5556   0.6399     H
C      0.93635   0.4947   0.6389     C
C      0.93635   0.5053   0.1389     C
H       0.9415   0.4125   0.9404     H
H       0.9415   0.5875   0.4404     H
C      0.94686   0.2743   0.9345     C
C      0.94686   0.7257   0.4345     C
C      0.96053   0.3643   0.9246     C
C      0.96053   0.6357   0.4246     C
H       0.9648   0.1401   0.9122     H
H       0.9648   0.8599   0.4122     H
H       0.9655   0.1704   0.6429     H
H       0.9655   0.8296   0.1429     H
C       0.9681   0.3119   0.6328     C
C       0.9681   0.6881   0.1328     C
C       0.9747   0.2012   0.9076     C
C       0.9747   0.7988   0.4076     C
C       0.9799   0.4767   0.6153     C
C       0.9799   0.5233   0.1153     C
C       0.9836   0.2192   0.6253     C
C       0.9836   0.7808   0.1253     C
C      0.99683   0.3849   0.6093     C
C      0.99683   0.6151   0.1093     C
H       0.9989   0.4739   0.1028     H
H       0.9989   0.5261   0.6028     H
