data_I
_chemical_name_common  '/home/zhangsd/repos/MofS-CGCNN/ML/data/TSD/clean_cifs/NANMAS_charged'
_cell_length_a 18.47320
_cell_length_b 18.47320
_cell_length_c 18.47320
_cell_angle_alpha 60.00000
_cell_angle_beta  60.00000
_cell_angle_gamma 60.00000
_space_group_name_H-M_alt      'P 1'


loop_
_space_group_symop_operation_xyz
  'x, y, z' 

loop_
_atom_site_label
_atom_site_fract_x
_atom_site_fract_y
_atom_site_fract_z
_atom_site_type_symbol
Mg         0.0      0.0      0.0    Mg
Mg         0.0      0.5      0.0    Mg
H       0.0068   0.2206   0.8458     H
H       0.0068   0.8458   0.9268     H
H       0.0068   0.9268   0.2206     H
H       0.0139   0.3459   0.7077     H
H       0.0139   0.7077   0.9325     H
H       0.0139   0.9325   0.3459     H
O      0.04841  0.42869  0.91895     O
O      0.04841  0.60395  0.42869     O
O      0.04841  0.91895  0.60395     O
H       0.0675   0.1541   0.7923     H
H       0.0675   0.7923   0.9861     H
H       0.0675   0.9861   0.1541     H
C       0.0679   0.1887   0.8179     C
C       0.0679   0.8179   0.9255     C
C       0.0679   0.9255   0.1887     C
O      0.07131  0.08105  0.45159     O
O      0.07131  0.39605  0.08105     O
O      0.07131  0.45159  0.39605     O
H       0.0732   0.2794   0.6542     H
H       0.0732   0.6542   0.9932     H
H       0.0732   0.9932   0.2794     H
C       0.0745   0.3113   0.6821     C
C       0.0745   0.6821   0.9321     C
C       0.0745   0.9321   0.3113     C
O      0.08105  0.07131  0.95159     O
O      0.08105  0.89605  0.07131     O
O      0.08105  0.95159  0.89605     O
O      0.10395  0.42869  0.54841     O
O      0.10395  0.54841  0.91895     O
O      0.10395  0.91895  0.42869     O
O       0.1125     0.25     0.75     O
O       0.1125     0.75   0.8875     O
O       0.1125   0.8875     0.25     O
C      0.11289  0.12771  0.88649     C
C      0.11289  0.87291  0.12771     C
C      0.11289  0.88649  0.87291     C
C      0.11351  0.37229  0.88711     C
C      0.11351  0.62709  0.37229     C
C      0.11351  0.88711  0.62709     C
O      0.12304  0.36222  0.82048     O
O      0.12304  0.69426  0.36222     O
O      0.12304  0.82048  0.69426     O
C      0.12709  0.37229  0.61351     C
C      0.12709  0.61351  0.88711     C
C      0.12709  0.88711  0.37229     C
C      0.12771  0.11289  0.38649     C
C      0.12771  0.37291  0.11289     C
C      0.12771  0.38649  0.37291     C
O      0.13778  0.17952  0.37696     O
O      0.13778  0.30574  0.17952     O
O      0.13778  0.37696  0.30574     O
H       0.1541   0.0675   0.2923     H
H       0.1541   0.2923   0.4861     H
H       0.1541   0.4861   0.0675     H
H       0.1542   0.2794   0.9932     H
H       0.1542   0.5732   0.2794     H
H       0.1542   0.9932   0.5732     H
O      0.17952  0.13778  0.87696     O
O      0.17952  0.80574  0.13778     O
O      0.17952  0.87696  0.80574     O
C       0.1821   0.3113   0.9321     C
C       0.1821   0.5745   0.3113     C
C       0.1821   0.9321   0.5745     C
C       0.1887   0.0679   0.3179     C
C       0.1887   0.3179   0.4255     C
C       0.1887   0.4255   0.0679     C
O      0.19426  0.36222  0.62304     O
O      0.19426  0.62304  0.82048     O
O      0.19426  0.82048  0.36222     O
H       0.2077   0.3459   0.9325     H
H       0.2077   0.5139   0.3459     H
H       0.2077   0.9325   0.5139     H
H       0.2206   0.0068   0.3458     H
H       0.2206   0.3458   0.4268     H
H       0.2206   0.4268   0.0068     H
O         0.25   0.1125     0.25     O
La        0.25     0.25     0.25    La
O         0.25     0.25   0.3875     O
La        0.25     0.25     0.75    La
O         0.25     0.25   0.8875     O
O         0.25   0.3875   0.1125     O
O         0.25   0.6125     0.25     O
La        0.25     0.75     0.25    La
La        0.25     0.75     0.75    La
O         0.25   0.8875   0.6125     O
H       0.2794   0.0732   0.1542     H
H       0.2794   0.1542   0.4932     H
H       0.2794   0.4932   0.0732     H
H       0.2923   0.1541   0.9861     H
H       0.2923   0.5675   0.1541     H
H       0.2923   0.9861   0.5675     H
O      0.30574  0.13778  0.67952     O
O      0.30574  0.67952  0.87696     O
O      0.30574  0.87696  0.13778     O
C       0.3113   0.0745   0.1821     C
C       0.3113   0.1821   0.4321     C
C       0.3113   0.4321   0.0745     C
C       0.3179   0.1887   0.9255     C
C       0.3179   0.5679   0.1887     C
C       0.3179   0.9255   0.5679     C
O      0.32048  0.36222  0.69426     O
O      0.32048  0.62304  0.36222     O
O      0.32048  0.69426  0.62304     O
H       0.3458   0.2206   0.9268     H
H       0.3458   0.5068   0.2206     H
H       0.3458   0.9268   0.5068     H
H       0.3459   0.0139   0.2077     H
H       0.3459   0.2077   0.4325     H
H       0.3459   0.4325   0.0139     H
O      0.36222  0.12304  0.32048     O
O      0.36222  0.19426  0.12304     O
O      0.36222  0.32048  0.19426     O
C      0.37229  0.11351  0.38711     C
C      0.37229  0.12709  0.11351     C
C      0.37229  0.38711  0.12709     C
C      0.37291  0.12771  0.61289     C
C      0.37291  0.61289  0.88649     C
C      0.37291  0.88649  0.12771     C
O      0.37696  0.13778  0.80574     O
O      0.37696  0.67952  0.13778     O
O      0.37696  0.80574  0.67952     O
C      0.38649  0.12771  0.87291     C
C      0.38649  0.61289  0.12771     C
C      0.38649  0.87291  0.61289     C
C      0.38711  0.37229  0.62709     C
C      0.38711  0.61351  0.37229     C
C      0.38711  0.62709  0.61351     C
O       0.3875     0.25   0.6125     O
O       0.3875   0.6125     0.75     O
O       0.3875     0.75     0.25     O
O      0.39605  0.07131  0.58105     O
O      0.39605  0.58105  0.95159     O
O      0.39605  0.95159  0.07131     O
O      0.41895  0.42869  0.60395     O
O      0.41895  0.54841  0.42869     O
O      0.41895  0.60395  0.54841     O
C       0.4255   0.1887   0.5679     C
C       0.4255   0.5679   0.8179     C
C       0.4255   0.8179   0.1887     C
H       0.4268   0.2206   0.5068     H
H       0.4268   0.5068   0.8458     H
H       0.4268   0.8458   0.2206     H
O      0.42869  0.04841  0.41895     O
O      0.42869  0.10395  0.04841     O
O      0.42869  0.41895  0.10395     O
C       0.4321   0.3113   0.5745     C
C       0.4321   0.5745   0.6821     C
C       0.4321   0.6821   0.3113     C
H       0.4325   0.3459   0.5139     H
H       0.4325   0.5139   0.7077     H
H       0.4325   0.7077   0.3459     H
O      0.45159  0.07131  0.89605     O
O      0.45159  0.58105  0.07131     O
O      0.45159  0.89605  0.58105     O
H       0.4861   0.1541   0.5675     H
H       0.4861   0.5675   0.7923     H
H       0.4861   0.7923   0.1541     H
H       0.4932   0.2794   0.5732     H
H       0.4932   0.5732   0.6542     H
H       0.4932   0.6542   0.2794     H
Mg         0.5      0.0      0.0    Mg
Mg         0.5      0.0      0.5    Mg
Mg         0.5      0.5      0.0    Mg
Mg         0.5      0.5      0.5    Mg
H       0.5068   0.3458   0.7206     H
H       0.5068   0.4268   0.3458     H
H       0.5068   0.7206   0.4268     H
H       0.5139   0.2077   0.8459     H
H       0.5139   0.4325   0.2077     H
H       0.5139   0.8459   0.4325     H
O      0.54841  0.10395  0.41895     O
O      0.54841  0.41895  0.92869     O
O      0.54841  0.92869  0.10395     O
H       0.5675   0.2923   0.6541     H
H       0.5675   0.4861   0.2923     H
H       0.5675   0.6541   0.4861     H
C       0.5679   0.3179   0.6887     C
C       0.5679   0.4255   0.3179     C
C       0.5679   0.6887   0.4255     C
O      0.57131  0.58105  0.89605     O
O      0.57131  0.89605  0.95159     O
O      0.57131  0.95159  0.58105     O
H       0.5732   0.1542   0.7794     H
H       0.5732   0.4932   0.1542     H
H       0.5732   0.7794   0.4932     H
C       0.5745   0.1821   0.8113     C
C       0.5745   0.4321   0.1821     C
C       0.5745   0.8113   0.4321     C
O      0.58105  0.39605  0.45159     O
O      0.58105  0.45159  0.57131     O
O      0.58105  0.57131  0.39605     O
O      0.60395  0.04841  0.92869     O
O      0.60395  0.41895  0.04841     O
O      0.60395  0.92869  0.41895     O
O       0.6125     0.25     0.75     O
O       0.6125   0.3875     0.25     O
O       0.6125     0.75   0.3875     O
C      0.61289  0.37291  0.38649     C
C      0.61289  0.38649  0.62771     C
C      0.61289  0.62771  0.37291     C
C      0.61351  0.12709  0.38711     C
C      0.61351  0.38711  0.87229     C
C      0.61351  0.87229  0.12709     C
O      0.62304  0.19426  0.32048     O
O      0.62304  0.32048  0.86222     O
O      0.62304  0.86222  0.19426     O
C      0.62709  0.11351  0.87229     C
C      0.62709  0.38711  0.11351     C
C      0.62709  0.87229  0.38711     C
C      0.62771  0.61289  0.87291     C
C      0.62771  0.87291  0.88649     C
C      0.62771  0.88649  0.61289     C
O      0.63778  0.67952  0.80574     O
O      0.63778  0.80574  0.87696     O
O      0.63778  0.87696  0.67952     O
H       0.6541   0.5675   0.9861     H
H       0.6541   0.7923   0.5675     H
H       0.6541   0.9861   0.7923     H
H       0.6542   0.0732   0.4932     H
H       0.6542   0.4932   0.7794     H
H       0.6542   0.7794   0.0732     H
O      0.67952  0.30574  0.37696     O
O      0.67952  0.37696  0.63778     O
O      0.67952  0.63778  0.30574     O
C       0.6821   0.0745   0.4321     C
C       0.6821   0.4321   0.8113     C
C       0.6821   0.8113   0.0745     C
C       0.6887   0.5679   0.9255     C
C       0.6887   0.8179   0.5679     C
C       0.6887   0.9255   0.8179     C
O      0.69426  0.12304  0.86222     O
O      0.69426  0.32048  0.12304     O
O      0.69426  0.86222  0.32048     O
H       0.7077   0.0139   0.4325     H
H       0.7077   0.4325   0.8459     H
H       0.7077   0.8459   0.0139     H
H       0.7206   0.5068   0.9268     H
H       0.7206   0.8458   0.5068     H
H       0.7206   0.9268   0.8458     H
O         0.75   0.1125   0.3875     O
La        0.75     0.25     0.25    La
La        0.75     0.25     0.75    La
O         0.75   0.3875     0.75     O
O         0.75   0.6125   0.8875     O
O         0.75     0.75   0.1125     O
La        0.75     0.75     0.25    La
O         0.75     0.75   0.6125     O
La        0.75     0.75     0.75    La
O         0.75   0.8875     0.75     O
H       0.7794   0.5732   0.9932     H
H       0.7794   0.6542   0.5732     H
H       0.7794   0.9932   0.6542     H
H       0.7923   0.0675   0.4861     H
H       0.7923   0.4861   0.6541     H
H       0.7923   0.6541   0.0675     H
O      0.80574  0.17952  0.63778     O
O      0.80574  0.37696  0.17952     O
O      0.80574  0.63778  0.37696     O
C       0.8113   0.5745   0.9321     C
C       0.8113   0.6821   0.5745     C
C       0.8113   0.9321   0.6821     C
C       0.8179   0.0679   0.4255     C
C       0.8179   0.4255   0.6887     C
C       0.8179   0.6887   0.0679     C
O      0.82048  0.12304  0.19426     O
O      0.82048  0.19426  0.86222     O
O      0.82048  0.86222  0.12304     O
H       0.8458   0.0068   0.4268     H
H       0.8458   0.4268   0.7206     H
H       0.8458   0.7206   0.0068     H
H       0.8459   0.5139   0.9325     H
H       0.8459   0.7077   0.5139     H
H       0.8459   0.9325   0.7077     H
O      0.86222  0.62304  0.69426     O
O      0.86222  0.69426  0.82048     O
O      0.86222  0.82048  0.62304     O
C      0.87229  0.61351  0.62709     C
C      0.87229  0.62709  0.88711     C
C      0.87229  0.88711  0.61351     C
C      0.87291  0.11289  0.62771     C
C      0.87291  0.38649  0.11289     C
C      0.87291  0.62771  0.38649     C
O      0.87696  0.17952  0.30574     O
O      0.87696  0.30574  0.63778     O
O      0.87696  0.63778  0.17952     O
C      0.88649  0.11289  0.37291     C
C      0.88649  0.37291  0.62771     C
C      0.88649  0.62771  0.11289     C
C      0.88711  0.11351  0.12709     C
C      0.88711  0.12709  0.87229     C
C      0.88711  0.87229  0.11351     C
O       0.8875   0.1125     0.75     O
O       0.8875     0.25   0.1125     O
O       0.8875     0.75     0.25     O
O      0.89605  0.08105  0.57131     O
O      0.89605  0.45159  0.08105     O
O      0.89605  0.57131  0.45159     O
O      0.91895  0.04841  0.10395     O
O      0.91895  0.10395  0.92869     O
O      0.91895  0.92869  0.04841     O
C       0.9255   0.0679   0.6887     C
C       0.9255   0.3179   0.0679     C
C       0.9255   0.6887   0.3179     C
H       0.9268   0.0068   0.7206     H
H       0.9268   0.3458   0.0068     H
H       0.9268   0.7206   0.3458     H
O      0.92869  0.54841  0.60395     O
O      0.92869  0.60395  0.91895     O
O      0.92869  0.91895  0.54841     O
C       0.9321   0.0745   0.8113     C
C       0.9321   0.1821   0.0745     C
C       0.9321   0.8113   0.1821     C
H       0.9325   0.0139   0.8459     H
H       0.9325   0.2077   0.0139     H
H       0.9325   0.8459   0.2077     H
O      0.95159  0.08105  0.39605     O
O      0.95159  0.39605  0.57131     O
O      0.95159  0.57131  0.08105     O
H       0.9861   0.0675   0.6541     H
H       0.9861   0.2923   0.0675     H
H       0.9861   0.6541   0.2923     H
H       0.9932   0.0732   0.7794     H
H       0.9932   0.1542   0.0732     H
H       0.9932   0.7794   0.1542     H
Mg         1.0      0.0      0.5    Mg
Mg         1.0      0.5      0.5    Mg
