data_I
_chemical_name_common  '/home/zhangsd/repos/MofS-CGCNN/ML/data/TSD/clean_cifs/NANMEW_clean'
_cell_length_a 15.10000
_cell_length_b 15.67700
_cell_length_c 15.67700
_cell_angle_alpha 120.00000
_cell_angle_beta  90.00000
_cell_angle_gamma 90.00000
_space_group_name_H-M_alt      'P 1'


loop_
_space_group_symop_operation_xyz
  'x, y, z' 

loop_
_atom_site_label
_atom_site_fract_x
_atom_site_fract_y
_atom_site_fract_z
_atom_site_type_symbol
Mg         0.0      0.5      0.0    Mg
Mg         0.0      0.5      0.5    Mg
Mg         0.0      1.0      0.5    Mg
O      0.09461  0.05739  0.44582     O
O      0.09461  0.38843  0.94261     O
O      0.09461  0.44582  0.38843     O
O      0.09461  0.55418  0.61157     O
O      0.09461  0.61157  0.05739     O
O      0.09461  0.94261  0.55418     O
C      0.13906  0.13402  0.48658     C
C      0.13906  0.35256  0.86598     C
C      0.13906  0.48658  0.35256     C
C      0.13906  0.51342  0.64744     C
C      0.13906  0.64744  0.13402     C
C      0.13906  0.86598  0.51342     C
O      0.14062  0.19507  0.57851     O
O      0.14062  0.38344  0.80493     O
O      0.14062  0.42149  0.61656     O
O      0.14062  0.57851  0.38344     O
O      0.14062  0.61656  0.19507     O
O      0.14062  0.80493  0.42149     O
H        0.156   0.0534   0.2884     H
H        0.156    0.235   0.9466     H
H        0.156   0.2884    0.235     H
H        0.156   0.7116    0.765     H
H        0.156    0.765   0.0534     H
H        0.156   0.9466   0.7116     H
C      0.19426  0.10652  0.32163     C
C      0.19426  0.21511  0.89348     C
C      0.19426  0.32163  0.21511     C
C      0.19426  0.67837  0.78489     C
C      0.19426  0.78489  0.10652     C
C      0.19426  0.89348  0.67837     C
C      0.19694  0.15892  0.42361     C
C      0.19694  0.26469  0.84108     C
C      0.19694  0.42361  0.26469     C
C      0.19694  0.57639  0.73531     C
C      0.19694  0.73531  0.15892     C
C      0.19694  0.84108  0.57639     C
H         0.25    0.101    0.202     H
H         0.25    0.101    0.899     H
C         0.25  0.13525   0.2705     C
C         0.25  0.13525  0.86475     C
H         0.25    0.202    0.101     H
N         0.25  0.23653  0.47306     N
N         0.25  0.23653  0.76348     N
C         0.25   0.2705  0.13525     C
La        0.25  0.33333  0.66666    La
N         0.25  0.47305  0.23652     N
N         0.25  0.52695  0.76348     N
La        0.25  0.66667  0.33334    La
C         0.25   0.7295  0.86475     C
N         0.25  0.76347  0.23652     N
N         0.25  0.76347  0.52694     N
H         0.25    0.798    0.899     H
C         0.25  0.86475  0.13525     C
C         0.25  0.86475   0.7295     C
H         0.25    0.899    0.101     H
H         0.25    0.899    0.798     H
C      0.30306  0.15892  0.73531     C
C      0.30306  0.26469  0.42361     C
C      0.30306  0.42361  0.15892     C
C      0.30306  0.57639  0.84108     C
C      0.30306  0.73531  0.57639     C
C      0.30306  0.84108  0.26469     C
C      0.30574  0.10652  0.78489     C
C      0.30574  0.21511  0.32163     C
C      0.30574  0.32163  0.10652     C
C      0.30574  0.67837  0.89348     C
C      0.30574  0.78489  0.67837     C
C      0.30574  0.89348  0.21511     C
H        0.344   0.0534    0.765     H
H        0.344    0.235   0.2884     H
H        0.344   0.2884   0.0534     H
H        0.344   0.7116   0.9466     H
H        0.344    0.765   0.7116     H
H        0.344   0.9466    0.235     H
O      0.35938  0.19507  0.61656     O
O      0.35938  0.38344  0.57851     O
O      0.35938  0.42149  0.80493     O
O      0.35938  0.57851  0.19507     O
O      0.35938  0.61656  0.42149     O
O      0.35938  0.80493  0.38344     O
C      0.36094  0.13402  0.64744     C
C      0.36094  0.35256  0.48658     C
C      0.36094  0.48658  0.13402     C
C      0.36094  0.51342  0.86598     C
C      0.36094  0.64744  0.51342     C
C      0.36094  0.86598  0.35256     C
O      0.40539  0.05739  0.61157     O
O      0.40539  0.38843  0.44582     O
O      0.40539  0.44582  0.05739     O
O      0.40539  0.55418  0.94261     O
O      0.40539  0.61157  0.55418     O
O      0.40539  0.94261  0.38843     O
Mg         0.5      0.5      0.0    Mg
Mg         0.5      0.5      0.5    Mg
Mg         0.5      1.0      0.5    Mg
O      0.59461  0.05739  0.61157     O
O      0.59461  0.38843  0.44582     O
O      0.59461  0.44582  0.05739     O
O      0.59461  0.55418  0.94261     O
O      0.59461  0.61157  0.55418     O
O      0.59461  0.94261  0.38843     O
C      0.63906  0.13402  0.64744     C
C      0.63906  0.35256  0.48658     C
C      0.63906  0.48658  0.13402     C
C      0.63906  0.51342  0.86598     C
C      0.63906  0.64744  0.51342     C
C      0.63906  0.86598  0.35256     C
O      0.64062  0.19507  0.61656     O
O      0.64062  0.38344  0.57851     O
O      0.64062  0.42149  0.80493     O
O      0.64062  0.57851  0.19507     O
O      0.64062  0.61656  0.42149     O
O      0.64062  0.80493  0.38344     O
H        0.656   0.0534    0.765     H
H        0.656    0.235   0.2884     H
H        0.656   0.2884   0.0534     H
H        0.656   0.7116   0.9466     H
H        0.656    0.765   0.7116     H
H        0.656   0.9466    0.235     H
C      0.69426  0.10652  0.78489     C
C      0.69426  0.21511  0.32163     C
C      0.69426  0.32163  0.10652     C
C      0.69426  0.67837  0.89348     C
C      0.69426  0.78489  0.67837     C
C      0.69426  0.89348  0.21511     C
C      0.69694  0.15892  0.73531     C
C      0.69694  0.26469  0.42361     C
C      0.69694  0.42361  0.15892     C
C      0.69694  0.57639  0.84108     C
C      0.69694  0.73531  0.57639     C
C      0.69694  0.84108  0.26469     C
H         0.75    0.101    0.202     H
H         0.75    0.101    0.899     H
C         0.75  0.13525   0.2705     C
C         0.75  0.13525  0.86475     C
H         0.75    0.202    0.101     H
N         0.75  0.23653  0.47306     N
N         0.75  0.23653  0.76348     N
C         0.75   0.2705  0.13525     C
La        0.75  0.33333  0.66666    La
N         0.75  0.47305  0.23652     N
N         0.75  0.52695  0.76348     N
La        0.75  0.66667  0.33334    La
C         0.75   0.7295  0.86475     C
N         0.75  0.76347  0.23652     N
N         0.75  0.76347  0.52694     N
H         0.75    0.798    0.899     H
C         0.75  0.86475  0.13525     C
C         0.75  0.86475   0.7295     C
H         0.75    0.899    0.101     H
H         0.75    0.899    0.798     H
C      0.80306  0.15892  0.42361     C
C      0.80306  0.26469  0.84108     C
C      0.80306  0.42361  0.26469     C
C      0.80306  0.57639  0.73531     C
C      0.80306  0.73531  0.15892     C
C      0.80306  0.84108  0.57639     C
C      0.80574  0.10652  0.32163     C
C      0.80574  0.21511  0.89348     C
C      0.80574  0.32163  0.21511     C
C      0.80574  0.67837  0.78489     C
C      0.80574  0.78489  0.10652     C
C      0.80574  0.89348  0.67837     C
H        0.844   0.0534   0.2884     H
H        0.844    0.235   0.9466     H
H        0.844   0.2884    0.235     H
H        0.844   0.7116    0.765     H
H        0.844    0.765   0.0534     H
H        0.844   0.9466   0.7116     H
O      0.85938  0.19507  0.57851     O
O      0.85938  0.38344  0.80493     O
O      0.85938  0.42149  0.61656     O
O      0.85938  0.57851  0.38344     O
O      0.85938  0.61656  0.19507     O
O      0.85938  0.80493  0.42149     O
C      0.86094  0.13402  0.48658     C
C      0.86094  0.35256  0.86598     C
C      0.86094  0.48658  0.35256     C
C      0.86094  0.51342  0.64744     C
C      0.86094  0.64744  0.13402     C
C      0.86094  0.86598  0.51342     C
O      0.90539  0.05739  0.44582     O
O      0.90539  0.38843  0.94261     O
O      0.90539  0.44582  0.38843     O
O      0.90539  0.55418  0.61157     O
O      0.90539  0.61157  0.05739     O
O      0.90539  0.94261  0.55418     O
