data_I
_chemical_name_common  '/home/zhangsd/repos/MofS-CGCNN/ML/data/TSD/clean_cifs/NARMUR_clean'
_cell_length_a  9.61200
_cell_length_b 22.86800
_cell_length_c 10.15900
_cell_angle_alpha 90.00000
_cell_angle_beta  101.07000
_cell_angle_gamma 90.00000
_space_group_name_H-M_alt      'P 1'


loop_
_space_group_symop_operation_xyz
  'x, y, z' 

loop_
_atom_site_label
_atom_site_fract_x
_atom_site_fract_y
_atom_site_fract_z
_atom_site_type_symbol
O       0.0196  0.54852   0.1352     O
O       0.0196  0.95148   0.6352     O
H      0.02768  0.11219  0.93666     H
H      0.02768  0.38781  0.43666     H
O       0.0391  0.20871   0.3552     O
O       0.0391  0.29129   0.8552     O
C       0.0449  0.01981   0.4617     C
C       0.0449  0.48019   0.9617     C
C       0.0449  0.64986   0.9812     C
C       0.0449  0.85014   0.4812     C
C       0.0581  0.67444   0.1268     C
C       0.0581  0.82556   0.6268     C
O       0.0688  0.15935   0.5988     O
O       0.0688  0.34065   0.0988     O
C       0.0923   0.0804    0.953     C
C       0.0923   0.4196    0.453     C
H      0.10051   0.0653  0.75819     H
H      0.10051   0.4347  0.25819     H
H      0.11408  0.07964   0.1571     H
H      0.11408  0.42036   0.6571     H
C       0.1368  0.05219   0.8469     C
C       0.1368  0.44781   0.3469     C
C       0.1438  0.06138   0.0832     C
C       0.1438  0.43862   0.5832     C
O       0.1497  0.62122   0.9573     O
O       0.1497  0.87878   0.4573     O
O        0.161  0.65697   0.2138     O
O        0.161  0.84303   0.7138     O
O       0.1781  0.01973   0.5062     O
O       0.1781  0.48027   0.0062     O
N       0.2287  0.00727   0.8641     N
N       0.2287  0.49273   0.3641     N
C       0.2405  0.01474   0.1036     C
C       0.2405  0.48526   0.6036     C
Pr     0.25589  0.22201  0.53749    Pr
Pr     0.25589  0.27799  0.03749    Pr
H      0.27728  0.00057  0.19131     H
H      0.27728  0.49943  0.69131     H
Pr     0.27959  0.56451  0.14966    Pr
Pr     0.27959  0.93549  0.64966    Pr
C       0.2806  0.50997   0.4923     C
C       0.2806  0.99003   0.9923     C
O       0.2832  0.20324   0.8799     O
O       0.2832  0.29676   0.3799     O
C       0.3646  0.16631   0.8404     C
C       0.3646  0.33369   0.3404     C
O       0.3756  0.15904   0.7205     O
O       0.3756  0.34096   0.2205     O
O       0.3794  0.20254   0.1809     O
O       0.3794  0.29746   0.6809     O
C        0.383  0.55847   0.4986     C
C        0.383  0.94153   0.9986     C
N       0.4028  0.58408   0.3861     N
N       0.4028  0.91592   0.8861     N
O       0.4036  0.56431   0.9559     O
O       0.4036  0.93569   0.4559     O
C       0.4573  0.12813   0.9402     C
C       0.4573  0.37187   0.4402     C
C       0.4618  0.15993   0.1946     C
C       0.4618  0.34007   0.6946     C
N       0.4664   0.5837   0.6058     N
N       0.4664   0.9163   0.1058     N
O       0.4711  0.01032   0.6642     O
O       0.4711  0.48968   0.1642     O
H      0.47129  0.57367   0.6902     H
H      0.47129  0.92633   0.1902     H
O       0.4779  0.63963   0.1909     O
O       0.4779  0.86037   0.6909     O
C       0.4797  0.52178   0.9405     C
C       0.4797  0.97822   0.4405     C
C       0.4982  0.12723   0.0785     C
C       0.4982  0.37277   0.5785     C
C       0.5018  0.62723   0.4215     C
C       0.5018  0.87277   0.9215     C
C       0.5203  0.02178   0.5595     C
C       0.5203  0.47822   0.0595     C
O       0.5221  0.13963   0.3091     O
O       0.5221  0.36037   0.8091     O
H      0.52871  0.07367   0.8098     H
H      0.52871  0.42633   0.3098     H
O       0.5289  0.51032   0.8358     O
O       0.5289  0.98968   0.3358     O
N       0.5336   0.0837   0.8942     N
N       0.5336   0.4163   0.3942     N
C       0.5382  0.65993   0.3054     C
C       0.5382  0.84007   0.8054     C
C       0.5427  0.62813   0.5598     C
C       0.5427  0.87187   0.0598     C
O       0.5964  0.06431   0.5441     O
O       0.5964  0.43569   0.0441     O
N       0.5972  0.08408   0.1139     N
N       0.5972  0.41592   0.6139     N
C        0.617  0.05847   0.0014     C
C        0.617  0.44153   0.5014     C
O       0.6206  0.70254   0.3191     O
O       0.6206  0.79746   0.8191     O
O       0.6244  0.65904   0.7795     O
O       0.6244  0.84096   0.2795     O
C       0.6354  0.66631   0.6596     C
C       0.6354  0.83369   0.1596     C
O       0.7168  0.70324   0.6201     O
O       0.7168  0.79676   0.1201     O
C       0.7194  0.00997   0.0077     C
C       0.7194  0.49003   0.5077     C
Pr     0.72041  0.06451  0.35034    Pr
Pr     0.72041  0.43549  0.85034    Pr
H      0.72272  0.50057  0.30869     H
H      0.72272  0.99943  0.80869     H
Pr     0.74411  0.72201  0.96251    Pr
Pr     0.74411  0.77799  0.46251    Pr
C       0.7595  0.51474   0.3964     C
C       0.7595  0.98526   0.8964     C
N       0.7713  0.50727   0.6359     N
N       0.7713  0.99273   0.1359     N
O       0.8219  0.51973   0.9938     O
O       0.8219  0.98027   0.4938     O
O        0.839  0.15697   0.2862     O
O        0.839  0.34303   0.7862     O
O       0.8503  0.12122   0.5427     O
O       0.8503  0.37878   0.0427     O
C       0.8562  0.56138   0.4168     C
C       0.8562  0.93862   0.9168     C
C       0.8632  0.55219   0.6531     C
C       0.8632  0.94781   0.1531     C
H      0.88592  0.57964   0.3429     H
H      0.88592  0.92036   0.8429     H
H      0.89949   0.5653  0.74181     H
H      0.89949   0.9347  0.24181     H
C       0.9077   0.5804    0.547     C
C       0.9077   0.9196    0.047     C
O       0.9312  0.65935   0.9012     O
O       0.9312  0.84065   0.4012     O
C       0.9419  0.17444   0.3732     C
C       0.9419  0.32556   0.8732     C
C       0.9551  0.14986   0.5188     C
C       0.9551  0.35014   0.0188     C
C       0.9551  0.51981   0.0383     C
C       0.9551  0.98019   0.5383     C
O       0.9609  0.70871   0.1448     O
O       0.9609  0.79129   0.6448     O
H      0.97232  0.61219  0.56334     H
H      0.97232  0.88781  0.06334     H
O       0.9804  0.04852   0.3648     O
O       0.9804  0.45148   0.8648     O
