data_I
_chemical_name_common  '/home/zhangsd/repos/MofS-CGCNN/ML/data/TSD/clean_cifs/NAWKII_clean'
_cell_length_a 13.41910
_cell_length_b 18.06690
_cell_length_c 20.97460
_cell_angle_alpha 90.00000
_cell_angle_beta  99.65900
_cell_angle_gamma 90.00000
_space_group_name_H-M_alt      'P 1'


loop_
_space_group_symop_operation_xyz
  'x, y, z' 

loop_
_atom_site_label
_atom_site_fract_x
_atom_site_fract_y
_atom_site_fract_z
_atom_site_type_symbol
Mg         0.0  0.25246     0.25    Mg
Mg         0.0  0.74754     0.75    Mg
O      0.00251  0.17118  0.17868     O
O      0.00251  0.82882  0.67868     O
O       0.0172  0.33621  0.18339     O
O       0.0172  0.66379  0.68339     O
C       0.0245  0.08897  0.09449     C
C       0.0245  0.91103  0.59449     C
C       0.0362   0.4631  0.39028     C
C       0.0362   0.5369  0.89028     C
C       0.0367  0.41186  0.09482     C
C       0.0367  0.58814  0.59482     C
C       0.0368   0.4749  0.99235     C
C       0.0368   0.5251  0.49235     C
C       0.0525  0.00316  0.01062     C
C       0.0525  0.99684  0.51062     C
H       0.0602   0.4592   0.3513     H
H       0.0602   0.5408   0.8513     H
C       0.0638  0.14134  0.14943     C
C       0.0638  0.85866  0.64943     C
C        0.069  0.34676  0.14006     C
C        0.069  0.65324  0.64006     C
C       0.0713   0.4823  0.93241     C
C       0.0713   0.5177  0.43241     C
C       0.0728   0.4185  0.03784     C
C       0.0728   0.5815  0.53784     C
C       0.0817  0.08159  0.42672     C
C       0.0817  0.91841  0.92672     C
C       0.0893  0.04941  0.06321     C
C       0.0893  0.95059  0.56321     C
H       0.1169   0.3581   0.4948     H
H       0.1169   0.6419   0.9948     H
H       0.1188    0.449   0.9218     H
H       0.1188    0.551   0.4218     H
C       0.1189    0.037  0.47725     C
C       0.1189    0.963  0.97725     C
H       0.1217   0.3855   0.0286     H
H       0.1217   0.6145   0.5286     H
H       0.1262   0.1077   0.4056     H
H       0.1262   0.8923   0.9056     H
O       0.1426  0.31012  0.13015     O
O       0.1426  0.68988  0.63015     O
H       0.1437   0.3587   0.6052     H
H       0.1437   0.6413   0.1052     H
H       0.1486   0.3024   0.3902     H
H       0.1486   0.6976   0.8902     H
O      0.15804   0.1518  0.15879     O
O      0.15804   0.8482  0.65879     O
H       0.1587   0.0533   0.0771     H
H       0.1587   0.9467   0.5771     H
O      0.16002  0.25508   0.2767     O
O      0.16002  0.74492   0.7767     O
C       0.1629  0.32507  0.51746     C
C       0.1629  0.67493  0.01746     C
C       0.1794  0.32607  0.58318     C
C       0.1794  0.67393  0.08318     C
H       0.1884   0.0328   0.4901     H
H       0.1884   0.9672   0.9901     H
O      0.19517  0.30259  0.71722     O
O      0.19517  0.69741  0.21722     O
C       0.1965  0.27129   0.4137     C
C       0.1965  0.72871   0.9137     C
C       0.2144  0.27472  0.48277     C
C       0.2144  0.72528  0.98277     C
C       0.2359  0.22434  0.30973     C
C       0.2359  0.77566  0.80973     C
Mg     0.24024    0.241  0.19118    Mg
Mg     0.24024    0.759  0.69118    Mg
C       0.2488  0.22296  0.38201     C
C       0.2488  0.77704  0.88201     C
C       0.2512  0.27704  0.61799     C
C       0.2512  0.72296  0.11799     C
Mg     0.25976    0.259  0.80882    Mg
Mg     0.25976    0.741  0.30882    Mg
C       0.2641  0.27566  0.69027     C
C       0.2641  0.72434  0.19027     C
C       0.2856  0.22528  0.51723     C
C       0.2856  0.77472  0.01723     C
C       0.3035  0.22871   0.5863     C
C       0.3035  0.77129   0.0863     C
O      0.30483  0.19741  0.28278     O
O      0.30483  0.80259  0.78278     O
H       0.3116   0.4672   0.5099     H
H       0.3116   0.5328   0.0099     H
C       0.3206  0.17393  0.41682     C
C       0.3206  0.82607  0.91682     C
C       0.3371  0.17493  0.48254     C
C       0.3371  0.82507  0.98254     C
O      0.33998  0.24492   0.7233     O
O      0.33998  0.75508   0.2233     O
H       0.3413   0.4467   0.9229     H
H       0.3413   0.5533   0.4229     H
O      0.34196   0.3482  0.84121     O
O      0.34196   0.6518  0.34121     O
H       0.3514   0.1976   0.6098     H
H       0.3514   0.8024   0.1098     H
H       0.3563   0.1413   0.3948     H
H       0.3563   0.8587   0.8948     H
O       0.3574  0.18988  0.86985     O
O       0.3574  0.81012  0.36985     O
H       0.3738   0.3923   0.5944     H
H       0.3738   0.6077   0.0944     H
H       0.3783   0.1145   0.9714     H
H       0.3783   0.8855   0.4714     H
C       0.3811    0.463  0.52275     C
C       0.3811    0.537  0.02275     C
H       0.3812    0.051   0.0782     H
H       0.3812    0.949   0.5782     H
H       0.3831   0.1419   0.5052     H
H       0.3831   0.8581   0.0052     H
C       0.4107  0.45059  0.93679     C
C       0.4107  0.54941  0.43679     C
C       0.4183  0.41841  0.57328     C
C       0.4183  0.58159  0.07328     C
C       0.4272   0.0815  0.96216     C
C       0.4272   0.9185  0.46216     C
C       0.4287   0.0177  0.06759     C
C       0.4287   0.9823  0.56759     C
C        0.431  0.15324  0.85994     C
C        0.431  0.84676  0.35994     C
C       0.4362  0.35866  0.85057     C
C       0.4362  0.64134  0.35057     C
H       0.4398   0.0408   0.6487     H
H       0.4398   0.9592   0.1487     H
C       0.4475  0.49684  0.98938     C
C       0.4475  0.50316  0.48938     C
C       0.4632   0.0251  0.00765     C
C       0.4632   0.9749  0.50765     C
C       0.4633  0.08814  0.90518     C
C       0.4633  0.91186  0.40518     C
C       0.4638   0.0369  0.60972     C
C       0.4638   0.9631  0.10972     C
C       0.4755  0.41103  0.90551     C
C       0.4755  0.58897  0.40551     C
O       0.4828  0.16379  0.81661     O
O       0.4828  0.83621  0.31661     O
O      0.49749  0.32882  0.82132     O
O      0.49749  0.67118  0.32132     O
Mg         0.5  0.24754     0.75    Mg
Mg         0.5  0.75246     0.25    Mg
O      0.50251  0.32882  0.67868     O
O      0.50251  0.67118  0.17868     O
O       0.5172  0.16379  0.68339     O
O       0.5172  0.83621  0.18339     O
C       0.5245  0.41103  0.59449     C
C       0.5245  0.58897  0.09449     C
C       0.5362   0.0369  0.89028     C
C       0.5362   0.9631  0.39028     C
C       0.5367  0.08814  0.59482     C
C       0.5367  0.91186  0.09482     C
C       0.5368   0.0251  0.49235     C
C       0.5368   0.9749  0.99235     C
C       0.5525  0.49684  0.51062     C
C       0.5525  0.50316  0.01062     C
H       0.5602   0.0408   0.8513     H
H       0.5602   0.9592   0.3513     H
C       0.5638  0.35866  0.64943     C
C       0.5638  0.64134  0.14943     C
C        0.569  0.15324  0.64006     C
C        0.569  0.84676  0.14006     C
C       0.5713   0.0177  0.43241     C
C       0.5713   0.9823  0.93241     C
C       0.5728   0.0815  0.53784     C
C       0.5728   0.9185  0.03784     C
C       0.5817  0.41841  0.92672     C
C       0.5817  0.58159  0.42672     C
C       0.5893  0.45059  0.56321     C
C       0.5893  0.54941  0.06321     C
H       0.6169   0.1419   0.9948     H
H       0.6169   0.8581   0.4948     H
H       0.6188    0.051   0.4218     H
H       0.6188    0.949   0.9218     H
C       0.6189    0.463  0.97725     C
C       0.6189    0.537  0.47725     C
H       0.6217   0.1145   0.5286     H
H       0.6217   0.8855   0.0286     H
H       0.6262   0.3923   0.9056     H
H       0.6262   0.6077   0.4056     H
O       0.6426  0.18988  0.63015     O
O       0.6426  0.81012  0.13015     O
H       0.6437   0.1413   0.1052     H
H       0.6437   0.8587   0.6052     H
H       0.6486   0.1976   0.8902     H
H       0.6486   0.8024   0.3902     H
O      0.65804   0.3482  0.65879     O
O      0.65804   0.6518  0.15879     O
H       0.6587   0.4467   0.5771     H
H       0.6587   0.5533   0.0771     H
O      0.66002  0.24492   0.7767     O
O      0.66002  0.75508   0.2767     O
C       0.6629  0.17493  0.01746     C
C       0.6629  0.82507  0.51746     C
C       0.6794  0.17393  0.08318     C
C       0.6794  0.82607  0.58318     C
H       0.6884   0.4672   0.9901     H
H       0.6884   0.5328   0.4901     H
O      0.69517  0.19741  0.21722     O
O      0.69517  0.80259  0.71722     O
C       0.6965  0.22871   0.9137     C
C       0.6965  0.77129   0.4137     C
C       0.7144  0.22528  0.98277     C
C       0.7144  0.77472  0.48277     C
C       0.7359  0.27566  0.80973     C
C       0.7359  0.72434  0.30973     C
Mg     0.74024    0.259  0.69118    Mg
Mg     0.74024    0.741  0.19118    Mg
C       0.7488  0.27704  0.88201     C
C       0.7488  0.72296  0.38201     C
C       0.7512  0.22296  0.11799     C
C       0.7512  0.77704  0.61799     C
Mg     0.75976    0.241  0.30882    Mg
Mg     0.75976    0.759  0.80882    Mg
C       0.7641  0.22434  0.19027     C
C       0.7641  0.77566  0.69027     C
C       0.7856  0.27472  0.01723     C
C       0.7856  0.72528  0.51723     C
C       0.8035  0.27129   0.0863     C
C       0.8035  0.72871   0.5863     C
O      0.80483  0.30259  0.78278     O
O      0.80483  0.69741  0.28278     O
H       0.8116   0.0328   0.0099     H
H       0.8116   0.9672   0.5099     H
C       0.8206  0.32607  0.91682     C
C       0.8206  0.67393  0.41682     C
C       0.8371  0.32507  0.98254     C
C       0.8371  0.67493  0.48254     C
O      0.83998  0.25508   0.2233     O
O      0.83998  0.74492   0.7233     O
H       0.8413   0.0533   0.4229     H
H       0.8413   0.9467   0.9229     H
O      0.84196   0.1518  0.34121     O
O      0.84196   0.8482  0.84121     O
H       0.8514   0.3024   0.1098     H
H       0.8514   0.6976   0.6098     H
H       0.8563   0.3587   0.8948     H
H       0.8563   0.6413   0.3948     H
O       0.8574  0.31012  0.36985     O
O       0.8574  0.68988  0.86985     O
H       0.8738   0.1077   0.0944     H
H       0.8738   0.8923   0.5944     H
H       0.8783   0.3855   0.4714     H
H       0.8783   0.6145   0.9714     H
C       0.8811    0.037  0.02275     C
C       0.8811    0.963  0.52275     C
H       0.8812    0.449   0.5782     H
H       0.8812    0.551   0.0782     H
H       0.8831   0.3581   0.0052     H
H       0.8831   0.6419   0.5052     H
C       0.9107  0.04941  0.43679     C
C       0.9107  0.95059  0.93679     C
C       0.9183  0.08159  0.07328     C
C       0.9183  0.91841  0.57328     C
C       0.9272   0.4185  0.46216     C
C       0.9272   0.5815  0.96216     C
C       0.9287   0.4823  0.56759     C
C       0.9287   0.5177  0.06759     C
C        0.931  0.34676  0.35994     C
C        0.931  0.65324  0.85994     C
C       0.9362  0.14134  0.35057     C
C       0.9362  0.85866  0.85057     C
H       0.9398   0.4592   0.1487     H
H       0.9398   0.5408   0.6487     H
C       0.9475  0.00316  0.48938     C
C       0.9475  0.99684  0.98938     C
C       0.9632   0.4749  0.50765     C
C       0.9632   0.5251  0.00765     C
C       0.9633  0.41186  0.40518     C
C       0.9633  0.58814  0.90518     C
C       0.9638   0.4631  0.10972     C
C       0.9638   0.5369  0.60972     C
C       0.9755  0.08897  0.40551     C
C       0.9755  0.91103  0.90551     C
O       0.9828  0.33621  0.31661     O
O       0.9828  0.66379  0.81661     O
O      0.99749  0.17118  0.32132     O
O      0.99749  0.82882  0.82132     O
