data_I
_chemical_name_common  '/home/zhangsd/repos/MofS-CGCNN/ML/data/TSD/clean_cifs/NAYZOE_clean'
_cell_length_a 23.21100
_cell_length_b 23.21100
_cell_length_c 23.21100
_cell_angle_alpha 90.00000
_cell_angle_beta  90.00000
_cell_angle_gamma 90.00000
_space_group_name_H-M_alt      'P 1'


loop_
_space_group_symop_operation_xyz
  'x, y, z' 

loop_
_atom_site_label
_atom_site_fract_x
_atom_site_fract_y
_atom_site_fract_z
_atom_site_type_symbol
Cu         0.0  0.19352      0.5    Cu
Cu         0.0  0.30648      0.5    Cu
Cu         0.0  0.69352      0.5    Cu
Cu         0.0  0.80648      0.5    Cu
O      0.05897  0.29728    0.441     O
O      0.05897  0.29728    0.559     O
O      0.05897  0.70272    0.441     O
O      0.05897  0.70272    0.559     O
O        0.059  0.20272  0.44103     O
O        0.059  0.20272  0.55897     O
O        0.059  0.79728  0.44103     O
O        0.059  0.79728  0.55897     O
C       0.0776     0.25   0.4224     C
C       0.0776     0.25   0.5776     C
C       0.0776     0.75   0.4224     C
C       0.0776     0.75   0.5776     C
C        0.121     0.25    0.379     C
C        0.121     0.25    0.621     C
C        0.121     0.75    0.379     C
C        0.121     0.75    0.621     C
H       0.1289   0.3345   0.3702     H
H       0.1289   0.3345   0.6298     H
H       0.1289   0.6655   0.3702     H
H       0.1289   0.6655   0.6298     H
H       0.1298   0.1655   0.3711     H
H       0.1298   0.1655   0.6289     H
H       0.1298   0.8345   0.3711     H
H       0.1298   0.8345   0.6289     H
C       0.1428   0.2004   0.3565     C
C       0.1428   0.2004   0.6435     C
C       0.1428   0.7996   0.3565     C
C       0.1428   0.7996   0.6435     C
C       0.1435   0.2996   0.3572     C
C       0.1435   0.2996   0.6428     C
C       0.1435   0.7004   0.3572     C
C       0.1435   0.7004   0.6428     C
H       0.1648   0.2967   0.1957     H
H       0.1648   0.2967   0.8043     H
H       0.1648   0.7033   0.1957     H
H       0.1648   0.7033   0.8043     H
H       0.1655   0.3711   0.1298     H
H       0.1655   0.3711   0.8702     H
H       0.1655   0.6289   0.1298     H
H       0.1655   0.6289   0.8702     H
C        0.184   0.1997   0.3126     C
C        0.184   0.1997   0.6874     C
C        0.184   0.8003   0.3126     C
C        0.184   0.8003   0.6874     C
C       0.1874   0.3003    0.316     C
C       0.1874   0.3003    0.684     C
C       0.1874   0.6997    0.316     C
C       0.1874   0.6997    0.684     C
Cu     0.19352      0.5      0.0    Cu
H       0.1957   0.1648   0.2967     H
H       0.1957   0.1648   0.7033     H
H       0.1957   0.8352   0.2967     H
H       0.1957   0.8352   0.7033     H
C       0.1997   0.3126    0.184     C
C       0.1997   0.3126    0.816     C
C       0.1997   0.6874    0.184     C
C       0.1997   0.6874    0.816     C
C       0.2004   0.3565   0.1428     C
C       0.2004   0.3565   0.8572     C
C       0.2004   0.6435   0.1428     C
C       0.2004   0.6435   0.8572     C
O      0.20272  0.44103    0.059     O
O      0.20272  0.44103    0.941     O
O      0.20272  0.55897    0.059     O
O      0.20272  0.55897    0.941     O
H       0.2033   0.3352   0.3043     H
H       0.2033   0.3352   0.6957     H
H       0.2033   0.6648   0.3043     H
H       0.2033   0.6648   0.6957     H
C       0.2069     0.25   0.2931     C
C       0.2069     0.25   0.7069     C
C       0.2069     0.75   0.2931     C
C       0.2069     0.75   0.7069     C
N         0.25     0.25     0.25     N
N         0.25     0.25     0.75     N
C         0.25   0.2931   0.2069     C
C         0.25   0.2931   0.7931     C
C         0.25    0.379    0.121     C
C         0.25    0.379    0.879     C
C         0.25   0.4224   0.0776     C
C         0.25   0.4224   0.9224     C
C         0.25   0.5776   0.0776     C
C         0.25   0.5776   0.9224     C
C         0.25    0.621    0.121     C
C         0.25    0.621    0.879     C
C         0.25   0.7069   0.2069     C
C         0.25   0.7069   0.7931     C
N         0.25     0.75     0.25     N
N         0.25     0.75     0.75     N
C       0.2931   0.2069     0.25     C
C       0.2931   0.2069     0.75     C
C       0.2931   0.7931     0.25     C
C       0.2931   0.7931     0.75     C
H       0.2967   0.1957   0.1648     H
H       0.2967   0.1957   0.8352     H
H       0.2967   0.8043   0.1648     H
H       0.2967   0.8043   0.8352     H
O      0.29728    0.441  0.05897     O
O      0.29728    0.441  0.94103     O
O      0.29728    0.559  0.05897     O
O      0.29728    0.559  0.94103     O
C       0.2996   0.3572   0.1435     C
C       0.2996   0.3572   0.8565     C
C       0.2996   0.6428   0.1435     C
C       0.2996   0.6428   0.8565     C
C       0.3003    0.316   0.1874     C
C       0.3003    0.316   0.8126     C
C       0.3003    0.684   0.1874     C
C       0.3003    0.684   0.8126     C
H       0.3043   0.2033   0.3352     H
H       0.3043   0.2033   0.6648     H
H       0.3043   0.7967   0.3352     H
H       0.3043   0.7967   0.6648     H
Cu     0.30648      0.5      0.0    Cu
C       0.3126    0.184   0.1997     C
C       0.3126    0.184   0.8003     C
C       0.3126    0.816   0.1997     C
C       0.3126    0.816   0.8003     C
C        0.316   0.1874   0.3003     C
C        0.316   0.1874   0.6997     C
C        0.316   0.8126   0.3003     C
C        0.316   0.8126   0.6997     C
H       0.3345   0.3702   0.1289     H
H       0.3345   0.3702   0.8711     H
H       0.3345   0.6298   0.1289     H
H       0.3345   0.6298   0.8711     H
H       0.3352   0.3043   0.2033     H
H       0.3352   0.3043   0.7967     H
H       0.3352   0.6957   0.2033     H
H       0.3352   0.6957   0.7967     H
C       0.3565   0.1428   0.2004     C
C       0.3565   0.1428   0.7996     C
C       0.3565   0.8572   0.2004     C
C       0.3565   0.8572   0.7996     C
C       0.3572   0.1435   0.2996     C
C       0.3572   0.1435   0.7004     C
C       0.3572   0.8565   0.2996     C
C       0.3572   0.8565   0.7004     C
H       0.3702   0.1289   0.3345     H
H       0.3702   0.1289   0.6655     H
H       0.3702   0.8711   0.3345     H
H       0.3702   0.8711   0.6655     H
H       0.3711   0.1298   0.1655     H
H       0.3711   0.1298   0.8345     H
H       0.3711   0.8702   0.1655     H
H       0.3711   0.8702   0.8345     H
C        0.379    0.121     0.25     C
C        0.379    0.121     0.75     C
C        0.379    0.879     0.25     C
C        0.379    0.879     0.75     C
C       0.4224   0.0776     0.25     C
C       0.4224   0.0776     0.75     C
C       0.4224   0.9224     0.25     C
C       0.4224   0.9224     0.75     C
O        0.441  0.05897  0.29728     O
O        0.441  0.05897  0.70272     O
O        0.441  0.94103  0.29728     O
O        0.441  0.94103  0.70272     O
O      0.44103    0.059  0.20272     O
O      0.44103    0.059  0.79728     O
O      0.44103    0.941  0.20272     O
O      0.44103    0.941  0.79728     O
Cu         0.5      0.0  0.19352    Cu
Cu         0.5      0.0  0.30648    Cu
Cu         0.5      0.0  0.69352    Cu
Cu         0.5      0.0  0.80648    Cu
O      0.55897    0.059  0.20272     O
O      0.55897    0.059  0.79728     O
O      0.55897    0.941  0.20272     O
O      0.55897    0.941  0.79728     O
O        0.559  0.05897  0.29728     O
O        0.559  0.05897  0.70272     O
O        0.559  0.94103  0.29728     O
O        0.559  0.94103  0.70272     O
C       0.5776   0.0776     0.25     C
C       0.5776   0.0776     0.75     C
C       0.5776   0.9224     0.25     C
C       0.5776   0.9224     0.75     C
C        0.621    0.121     0.25     C
C        0.621    0.121     0.75     C
C        0.621    0.879     0.25     C
C        0.621    0.879     0.75     C
H       0.6289   0.1298   0.1655     H
H       0.6289   0.1298   0.8345     H
H       0.6289   0.8702   0.1655     H
H       0.6289   0.8702   0.8345     H
H       0.6298   0.1289   0.3345     H
H       0.6298   0.1289   0.6655     H
H       0.6298   0.8711   0.3345     H
H       0.6298   0.8711   0.6655     H
C       0.6428   0.1435   0.2996     C
C       0.6428   0.1435   0.7004     C
C       0.6428   0.8565   0.2996     C
C       0.6428   0.8565   0.7004     C
C       0.6435   0.1428   0.2004     C
C       0.6435   0.1428   0.7996     C
C       0.6435   0.8572   0.2004     C
C       0.6435   0.8572   0.7996     C
H       0.6648   0.3043   0.2033     H
H       0.6648   0.3043   0.7967     H
H       0.6648   0.6957   0.2033     H
H       0.6648   0.6957   0.7967     H
H       0.6655   0.3702   0.1289     H
H       0.6655   0.3702   0.8711     H
H       0.6655   0.6298   0.1289     H
H       0.6655   0.6298   0.8711     H
C        0.684   0.1874   0.3003     C
C        0.684   0.1874   0.6997     C
C        0.684   0.8126   0.3003     C
C        0.684   0.8126   0.6997     C
C       0.6874    0.184   0.1997     C
C       0.6874    0.184   0.8003     C
C       0.6874    0.816   0.1997     C
C       0.6874    0.816   0.8003     C
Cu     0.69352      0.5      0.0    Cu
H       0.6957   0.2033   0.3352     H
H       0.6957   0.2033   0.6648     H
H       0.6957   0.7967   0.3352     H
H       0.6957   0.7967   0.6648     H
C       0.6997    0.316   0.1874     C
C       0.6997    0.316   0.8126     C
C       0.6997    0.684   0.1874     C
C       0.6997    0.684   0.8126     C
C       0.7004   0.3572   0.1435     C
C       0.7004   0.3572   0.8565     C
C       0.7004   0.6428   0.1435     C
C       0.7004   0.6428   0.8565     C
O      0.70272    0.441  0.05897     O
O      0.70272    0.441  0.94103     O
O      0.70272    0.559  0.05897     O
O      0.70272    0.559  0.94103     O
H       0.7033   0.1957   0.1648     H
H       0.7033   0.1957   0.8352     H
H       0.7033   0.8043   0.1648     H
H       0.7033   0.8043   0.8352     H
C       0.7069   0.2069     0.25     C
C       0.7069   0.2069     0.75     C
C       0.7069   0.7931     0.25     C
C       0.7069   0.7931     0.75     C
N         0.75     0.25     0.25     N
N         0.75     0.25     0.75     N
C         0.75   0.2931   0.2069     C
C         0.75   0.2931   0.7931     C
C         0.75    0.379    0.121     C
C         0.75    0.379    0.879     C
C         0.75   0.4224   0.0776     C
C         0.75   0.4224   0.9224     C
C         0.75   0.5776   0.0776     C
C         0.75   0.5776   0.9224     C
C         0.75    0.621    0.121     C
C         0.75    0.621    0.879     C
C         0.75   0.7069   0.2069     C
C         0.75   0.7069   0.7931     C
N         0.75     0.75     0.25     N
N         0.75     0.75     0.75     N
C       0.7931     0.25   0.2931     C
C       0.7931     0.25   0.7069     C
C       0.7931     0.75   0.2931     C
C       0.7931     0.75   0.7069     C
H       0.7967   0.3352   0.3043     H
H       0.7967   0.3352   0.6957     H
H       0.7967   0.6648   0.3043     H
H       0.7967   0.6648   0.6957     H
O      0.79728  0.44103    0.059     O
O      0.79728  0.44103    0.941     O
O      0.79728  0.55897    0.059     O
O      0.79728  0.55897    0.941     O
C       0.7996   0.3565   0.1428     C
C       0.7996   0.3565   0.8572     C
C       0.7996   0.6435   0.1428     C
C       0.7996   0.6435   0.8572     C
C       0.8003   0.3126    0.184     C
C       0.8003   0.3126    0.816     C
C       0.8003   0.6874    0.184     C
C       0.8003   0.6874    0.816     C
H       0.8043   0.1648   0.2967     H
H       0.8043   0.1648   0.7033     H
H       0.8043   0.8352   0.2967     H
H       0.8043   0.8352   0.7033     H
Cu     0.80648      0.5      0.0    Cu
C       0.8126   0.3003    0.316     C
C       0.8126   0.3003    0.684     C
C       0.8126   0.6997    0.316     C
C       0.8126   0.6997    0.684     C
C        0.816   0.1997   0.3126     C
C        0.816   0.1997   0.6874     C
C        0.816   0.8003   0.3126     C
C        0.816   0.8003   0.6874     C
H       0.8345   0.3711   0.1298     H
H       0.8345   0.3711   0.8702     H
H       0.8345   0.6289   0.1298     H
H       0.8345   0.6289   0.8702     H
H       0.8352   0.2967   0.1957     H
H       0.8352   0.2967   0.8043     H
H       0.8352   0.7033   0.1957     H
H       0.8352   0.7033   0.8043     H
C       0.8565   0.2996   0.3572     C
C       0.8565   0.2996   0.6428     C
C       0.8565   0.7004   0.3572     C
C       0.8565   0.7004   0.6428     C
C       0.8572   0.2004   0.3565     C
C       0.8572   0.2004   0.6435     C
C       0.8572   0.7996   0.3565     C
C       0.8572   0.7996   0.6435     C
H       0.8702   0.1655   0.3711     H
H       0.8702   0.1655   0.6289     H
H       0.8702   0.8345   0.3711     H
H       0.8702   0.8345   0.6289     H
H       0.8711   0.3345   0.3702     H
H       0.8711   0.3345   0.6298     H
H       0.8711   0.6655   0.3702     H
H       0.8711   0.6655   0.6298     H
C        0.879     0.25    0.379     C
C        0.879     0.25    0.621     C
C        0.879     0.75    0.379     C
C        0.879     0.75    0.621     C
C       0.9224     0.25   0.4224     C
C       0.9224     0.25   0.5776     C
C       0.9224     0.75   0.4224     C
C       0.9224     0.75   0.5776     C
O        0.941  0.20272  0.44103     O
O        0.941  0.20272  0.55897     O
O        0.941  0.79728  0.44103     O
O        0.941  0.79728  0.55897     O
O      0.94103  0.29728    0.441     O
O      0.94103  0.29728    0.559     O
O      0.94103  0.70272    0.441     O
O      0.94103  0.70272    0.559     O
