data_I
_chemical_name_common  '/home/zhangsd/repos/MofS-CGCNN/ML/data/TSD/clean_cifs/NEGZUW_clean'
_cell_length_a 17.29990
_cell_length_b 18.03960
_cell_length_c 24.67700
_cell_angle_alpha 90.00000
_cell_angle_beta  90.00000
_cell_angle_gamma 90.00000
_space_group_name_H-M_alt      'P 1'


loop_
_space_group_symop_operation_xyz
  'x, y, z' 

loop_
_atom_site_label
_atom_site_fract_x
_atom_site_fract_y
_atom_site_fract_z
_atom_site_type_symbol
N      0.01585  0.38416  0.26137     N
N      0.01585  0.88416  0.23863     N
C       0.0269   0.1661  0.83445     C
C       0.0269   0.6661  0.66555     C
H       0.0284   0.1898   0.8688     H
H       0.0284   0.6898   0.6312     H
N      0.03709    0.351  0.30904     N
N      0.03709    0.851  0.19096     N
C       0.0601   0.1153  0.76129     C
C       0.0601   0.6153  0.73871     C
N       0.0901   0.1465  0.80653     N
N       0.0901   0.6465  0.69347     N
H       0.0905   0.0954   0.7327     H
H       0.0905   0.5954   0.7673     H
O      0.09221  0.12403  0.57348     O
O      0.09221  0.62403  0.92652     O
O      0.09249  0.27281   0.5732     O
O      0.09249  0.77281   0.9268     O
Zn     0.09564  0.42922  0.20371    Zn
Zn     0.09564  0.92922  0.29629    Zn
V       0.0958  0.19825  0.52313     V
V       0.0958  0.69825  0.97687     V
O      0.14835  0.12897  0.47124     O
O      0.14835  0.62897  0.02876     O
O      0.14883   0.2658   0.4712     O
O      0.14883   0.7658   0.0288     O
Zn     0.14919  0.34948  0.33225    Zn
Zn     0.14919  0.84948  0.16775    Zn
O      0.16126  0.19846   0.6524     O
O      0.16126  0.69846   0.8476     O
V      0.16317  0.19448  0.40768     V
V      0.16317  0.69448  0.09232     V
N       0.1665   0.4848  0.26336     N
N       0.1665   0.9848  0.23664     N
N      0.16775  0.33444  0.20797     N
N      0.16775  0.83444  0.29203     N
V      0.18179  0.11363  0.61506     V
V      0.18179  0.61363  0.88494     V
V      0.18206   0.2833  0.61444     V
V      0.18206   0.7833  0.88556     V
N        0.186  0.45268  0.31238     N
N        0.186  0.95268  0.18762     N
N       0.1869   0.3052  0.25791     N
N       0.1869   0.8052  0.24209     N
Zn     0.19861  0.15078  0.83271    Zn
Zn     0.19861  0.65078  0.66729    Zn
H       0.1998   0.2997   0.1339     H
H       0.1998   0.7997   0.3661     H
H       0.2001    0.082   0.2671     H
H       0.2001    0.582   0.2329     H
C       0.2027   0.0483  0.23761     C
C       0.2027   0.5483  0.26239     C
C       0.2029   0.2923    0.172     C
C       0.2029   0.7923    0.328     C
O      0.20939  0.27336   0.3714     O
O      0.20939  0.77336   0.1286     O
O      0.21017  0.12264  0.36994     O
O      0.21017  0.62264  0.13006     O
O      0.22034  0.05116  0.55087     O
O      0.22034  0.55116  0.94913     O
O      0.22052  0.34487  0.55039     O
O      0.22052  0.84487  0.94961     O
O      0.22131  0.19773  0.55043     O
O      0.22131  0.69773  0.94957     O
C       0.2311   0.4995  0.33686     C
C       0.2311   0.9995  0.16314     C
C       0.2313   0.2481  0.24834     C
C       0.2313   0.7481  0.25166     C
N       0.2438  0.23735  0.19551     N
N       0.2438  0.73735  0.30449     N
N       0.2443    0.061  0.19228     N
N       0.2443    0.561  0.30772     N
H       0.2475   0.2175    0.724     H
H       0.2475   0.4911   0.6282     H
H       0.2475   0.7175    0.776     H
H       0.2475   0.9911   0.8718     H
V         0.25  0.10701      0.5     V
V         0.25  0.28807      0.5     V
V         0.25  0.60701      0.0     V
V         0.25  0.78807      0.0     V
H       0.2525   0.2175    0.276     H
H       0.2525   0.4911   0.3718     H
H       0.2525   0.7175    0.224     H
H       0.2525   0.9911   0.1282     H
N       0.2557    0.061  0.80772     N
N       0.2557    0.561  0.69228     N
N       0.2562  0.23735  0.80449     N
N       0.2562  0.73735  0.69551     N
C       0.2687   0.2481  0.75166     C
C       0.2687   0.7481  0.74834     C
C       0.2689   0.4995  0.66314     C
C       0.2689   0.9995  0.83686     C
O      0.27869  0.19773  0.44957     O
O      0.27869  0.69773  0.05043     O
O      0.27948  0.34487  0.44961     O
O      0.27948  0.84487  0.05039     O
O      0.27966  0.05116  0.44913     O
O      0.27966  0.55116  0.05087     O
O      0.28983  0.12264  0.63006     O
O      0.28983  0.62264  0.86994     O
O      0.29061  0.27336   0.6286     O
O      0.29061  0.77336   0.8714     O
C       0.2971   0.2923    0.828     C
C       0.2971   0.7923    0.672     C
C       0.2973   0.0483  0.76239     C
C       0.2973   0.5483  0.73761     C
H       0.2999    0.082   0.7329     H
H       0.2999    0.582   0.7671     H
H       0.3002   0.2997   0.8661     H
H       0.3002   0.7997   0.6339     H
Zn     0.30139  0.15078  0.16729    Zn
Zn     0.30139  0.65078  0.33271    Zn
N       0.3131   0.3052  0.74209     N
N       0.3131   0.8052  0.75791     N
N        0.314  0.45268  0.68762     N
N        0.314  0.95268  0.81238     N
V      0.31794   0.2833  0.38556     V
V      0.31794   0.7833  0.11444     V
V      0.31821  0.11363  0.38494     V
V      0.31821  0.61363  0.11506     V
N      0.33225  0.33444  0.79203     N
N      0.33225  0.83444  0.70797     N
N       0.3335   0.4848  0.73664     N
N       0.3335   0.9848  0.76336     N
V      0.33683  0.19448  0.59232     V
V      0.33683  0.69448  0.90768     V
O      0.33874  0.19846   0.3476     O
O      0.33874  0.69846   0.1524     O
Zn     0.35081  0.34948  0.66775    Zn
Zn     0.35081  0.84948  0.83225    Zn
O      0.35117   0.2658   0.5288     O
O      0.35117   0.7658   0.9712     O
O      0.35165  0.12897  0.52876     O
O      0.35165  0.62897  0.97124     O
V       0.4042  0.19825  0.47687     V
V       0.4042  0.69825  0.02313     V
Zn     0.40436  0.42922  0.79629    Zn
Zn     0.40436  0.92922  0.70371    Zn
O      0.40751  0.27281   0.4268     O
O      0.40751  0.77281   0.0732     O
O      0.40779  0.12403  0.42652     O
O      0.40779  0.62403  0.07348     O
H       0.4095   0.0954   0.2673     H
H       0.4095   0.5954   0.2327     H
N       0.4099   0.1465  0.19347     N
N       0.4099   0.6465  0.30653     N
C       0.4399   0.1153  0.23871     C
C       0.4399   0.6153  0.26129     C
N      0.46291    0.351  0.69096     N
N      0.46291    0.851  0.80904     N
H       0.4716   0.1898   0.1312     H
H       0.4716   0.6898   0.3688     H
C       0.4731   0.1661  0.16555     C
C       0.4731   0.6661  0.33445     C
N      0.48415  0.38416  0.73863     N
N      0.48415  0.88416  0.76137     N
N      0.51585  0.11584  0.23863     N
N      0.51585  0.61584  0.26137     N
C       0.5269   0.3339  0.66555     C
C       0.5269   0.8339  0.83445     C
H       0.5284   0.3102   0.6312     H
H       0.5284   0.8102   0.8688     H
N      0.53709    0.149  0.19096     N
N      0.53709    0.649  0.30904     N
C       0.5601   0.3847  0.73871     C
C       0.5601   0.8847  0.76129     C
N       0.5901   0.3535  0.69347     N
N       0.5901   0.8535  0.80653     N
H       0.5905   0.4046   0.7673     H
H       0.5905   0.9046   0.7327     H
O      0.59221  0.37597  0.92652     O
O      0.59221  0.87597  0.57348     O
O      0.59249  0.22719   0.9268     O
O      0.59249  0.72719   0.5732     O
Zn     0.59564  0.07078  0.29629    Zn
Zn     0.59564  0.57078  0.20371    Zn
V       0.5958  0.30175  0.97687     V
V       0.5958  0.80175  0.52313     V
O      0.64835  0.37103  0.02876     O
O      0.64835  0.87103  0.47124     O
O      0.64883   0.2342   0.0288     O
O      0.64883   0.7342   0.4712     O
Zn     0.64919  0.15052  0.16775    Zn
Zn     0.64919  0.65052  0.33225    Zn
O      0.66126  0.30154   0.8476     O
O      0.66126  0.80154   0.6524     O
V      0.66317  0.30552  0.09232     V
V      0.66317  0.80552  0.40768     V
N       0.6665   0.0152  0.23664     N
N       0.6665   0.5152  0.26336     N
N      0.66775  0.16556  0.29203     N
N      0.66775  0.66556  0.20797     N
V      0.68179  0.38637  0.88494     V
V      0.68179  0.88637  0.61506     V
V      0.68206   0.2167  0.88556     V
V      0.68206   0.7167  0.61444     V
N        0.686  0.04732  0.18762     N
N        0.686  0.54732  0.31238     N
N       0.6869   0.1948  0.24209     N
N       0.6869   0.6948  0.25791     N
Zn     0.69861  0.34922  0.66729    Zn
Zn     0.69861  0.84922  0.83271    Zn
H       0.6998   0.2003   0.3661     H
H       0.6998   0.7003   0.1339     H
H       0.7001    0.418   0.2329     H
H       0.7001    0.918   0.2671     H
C       0.7027   0.4517  0.26239     C
C       0.7027   0.9517  0.23761     C
C       0.7029   0.2077    0.328     C
C       0.7029   0.7077    0.172     C
O      0.70939  0.22664   0.1286     O
O      0.70939  0.72664   0.3714     O
O      0.71017  0.37736  0.13006     O
O      0.71017  0.87736  0.36994     O
O      0.72034  0.44884  0.94913     O
O      0.72034  0.94884  0.55087     O
O      0.72052  0.15513  0.94961     O
O      0.72052  0.65513  0.55039     O
O      0.72131  0.30227  0.94957     O
O      0.72131  0.80227  0.55043     O
C       0.7311   0.0005  0.16314     C
C       0.7311   0.5005  0.33686     C
C       0.7313   0.2519  0.25166     C
C       0.7313   0.7519  0.24834     C
N       0.7438  0.26265  0.30449     N
N       0.7438  0.76265  0.19551     N
N       0.7443    0.439  0.30772     N
N       0.7443    0.939  0.19228     N
H       0.7475   0.0089   0.8718     H
H       0.7475   0.2825    0.776     H
H       0.7475   0.5089   0.6282     H
H       0.7475   0.7825    0.724     H
V         0.75  0.21193      0.0     V
V         0.75  0.39299      0.0     V
V         0.75  0.71193      0.5     V
V         0.75  0.89299      0.5     V
H       0.7525   0.0089   0.1282     H
H       0.7525   0.2825    0.224     H
H       0.7525   0.5089   0.3718     H
H       0.7525   0.7825    0.276     H
N       0.7557    0.439  0.69228     N
N       0.7557    0.939  0.80772     N
N       0.7562  0.26265  0.69551     N
N       0.7562  0.76265  0.80449     N
C       0.7687   0.2519  0.74834     C
C       0.7687   0.7519  0.75166     C
C       0.7689   0.0005  0.83686     C
C       0.7689   0.5005  0.66314     C
O      0.77869  0.30227  0.05043     O
O      0.77869  0.80227  0.44957     O
O      0.77948  0.15513  0.05039     O
O      0.77948  0.65513  0.44961     O
O      0.77966  0.44884  0.05087     O
O      0.77966  0.94884  0.44913     O
O      0.78983  0.37736  0.86994     O
O      0.78983  0.87736  0.63006     O
O      0.79061  0.22664   0.8714     O
O      0.79061  0.72664   0.6286     O
C       0.7971   0.2077    0.672     C
C       0.7971   0.7077    0.828     C
C       0.7973   0.4517  0.73761     C
C       0.7973   0.9517  0.76239     C
H       0.7999    0.418   0.7671     H
H       0.7999    0.918   0.7329     H
H       0.8002   0.2003   0.6339     H
H       0.8002   0.7003   0.8661     H
Zn     0.80139  0.34922  0.33271    Zn
Zn     0.80139  0.84922  0.16729    Zn
N       0.8131   0.1948  0.75791     N
N       0.8131   0.6948  0.74209     N
N        0.814  0.04732  0.81238     N
N        0.814  0.54732  0.68762     N
V      0.81794   0.2167  0.11444     V
V      0.81794   0.7167  0.38556     V
V      0.81821  0.38637  0.11506     V
V      0.81821  0.88637  0.38494     V
N      0.83225  0.16556  0.70797     N
N      0.83225  0.66556  0.79203     N
N       0.8335   0.0152  0.76336     N
N       0.8335   0.5152  0.73664     N
V      0.83683  0.30552  0.90768     V
V      0.83683  0.80552  0.59232     V
O      0.83874  0.30154   0.1524     O
O      0.83874  0.80154   0.3476     O
Zn     0.85081  0.15052  0.83225    Zn
Zn     0.85081  0.65052  0.66775    Zn
O      0.85117   0.2342   0.9712     O
O      0.85117   0.7342   0.5288     O
O      0.85165  0.37103  0.97124     O
O      0.85165  0.87103  0.52876     O
V       0.9042  0.30175  0.02313     V
V       0.9042  0.80175  0.47687     V
Zn     0.90436  0.07078  0.70371    Zn
Zn     0.90436  0.57078  0.79629    Zn
O      0.90751  0.22719   0.0732     O
O      0.90751  0.72719   0.4268     O
O      0.90779  0.37597  0.07348     O
O      0.90779  0.87597  0.42652     O
H       0.9095   0.4046   0.2327     H
H       0.9095   0.9046   0.2673     H
N       0.9099   0.3535  0.30653     N
N       0.9099   0.8535  0.19347     N
C       0.9399   0.3847  0.26129     C
C       0.9399   0.8847  0.23871     C
N      0.96291    0.149  0.80904     N
N      0.96291    0.649  0.69096     N
H       0.9716   0.3102   0.3688     H
H       0.9716   0.8102   0.1312     H
C       0.9731   0.3339  0.33445     C
C       0.9731   0.8339  0.16555     C
N      0.98415  0.11584  0.76137     N
N      0.98415  0.61584  0.73863     N
