data_I
_chemical_name_common  '/home/zhangsd/repos/MofS-CGCNN/ML/data/TSD/clean_cifs/NELVAC_clean'
_cell_length_a 10.86580
_cell_length_b 16.60500
_cell_length_c 10.39260
_cell_angle_alpha 90.00000
_cell_angle_beta  103.96500
_cell_angle_gamma 90.00000
_space_group_name_H-M_alt      'P 1'


loop_
_space_group_symop_operation_xyz
  'x, y, z' 

loop_
_atom_site_label
_atom_site_fract_x
_atom_site_fract_y
_atom_site_fract_z
_atom_site_type_symbol
O       0.0479   0.1572   0.7154     O
O       0.0479   0.3428   0.2154     O
Zn     0.05502  0.16658  0.40351    Zn
Zn     0.05502  0.33342  0.90351    Zn
O       0.0933   0.0541   0.4095     O
O       0.0933   0.4459   0.9095     O
O       0.1029    0.194   0.2403     O
O       0.1029    0.306   0.7403     O
O       0.1283   0.6685   0.1191     O
O       0.1283   0.8315   0.6191     O
Zn     0.13487  0.66469   0.8169    Zn
Zn     0.13487  0.83531   0.3169    Zn
P      0.13789  0.22292   0.6926     P
P      0.13789  0.27708   0.1926     P
O       0.1437   0.2314   0.5484     O
O       0.1437   0.2686   0.0484     O
O       0.1641   0.6808   0.6402     O
O       0.1641   0.8192   0.1402     O
H       0.1947   0.5674   0.1018     H
H       0.1947   0.9326   0.6018     H
O        0.206   0.7465   0.9448     O
O        0.206   0.7535   0.4448     O
P      0.20862  0.73997  0.09049     P
P      0.20862  0.76003  0.59049     P
P      0.21256  0.00579   0.4555     P
P      0.21256  0.49421   0.9555     P
O       0.2201   0.5636   0.8668     O
O       0.2201   0.9364   0.3668     O
O       0.2258   0.5224   0.1017     O
O       0.2258   0.9776   0.6017     O
C       0.2944   0.1948   0.7851     C
C       0.2944   0.3052   0.2851     C
H        0.298   0.1995    0.879     H
H        0.298   0.3005    0.379     H
H       0.3087   0.1388    0.767     H
H       0.3087   0.3612    0.267     H
H       0.3376   0.1171   0.5166     H
H       0.3376   0.3829   0.0166     H
C       0.3498   0.0687   0.4689     C
C       0.3498   0.4313   0.9689     C
H       0.3531    0.085   0.3802     H
H       0.3531    0.415   0.8802     H
C       0.3663   0.7197   0.1835     C
C       0.3663   0.7803   0.6835     C
H       0.3673   0.7218    0.277     H
H       0.3673   0.7782    0.777     H
H       0.3832   0.1987   0.2664     H
H       0.3832   0.3013   0.7664     H
H        0.388   0.6652    0.164     H
H        0.388   0.8348    0.664     H
C       0.4003   0.2448   0.7544     C
C       0.4003   0.2552   0.2544     C
H       0.4012   0.2369   0.6621     H
H       0.4012   0.2631   0.1621     H
H        0.448    0.669    0.677     H
H        0.448    0.831    0.177     H
H        0.459   0.5758   0.9495     H
H        0.459   0.9242   0.4495     H
C       0.4691    0.724    0.659     C
C       0.4691    0.776    0.159     C
H       0.4715   0.7271   0.5665     H
H       0.4715   0.7729   0.0665     H
H        0.474   0.0132   0.6233     H
H        0.474   0.4868   0.1233     H
C       0.4782   0.0331   0.5367     C
C       0.4782   0.4669   0.0367     C
C       0.5218   0.5331   0.9633     C
C       0.5218   0.9669   0.4633     C
H        0.526   0.5132   0.8767     H
H        0.526   0.9868   0.3767     H
H       0.5285   0.2271   0.9335     H
H       0.5285   0.2729   0.4335     H
C       0.5309    0.224    0.841     C
C       0.5309    0.276    0.341     C
H        0.541   0.0758   0.5505     H
H        0.541   0.4242   0.0505     H
H        0.552    0.169    0.823     H
H        0.552    0.331    0.323     H
H       0.5988   0.7369   0.8379     H
H       0.5988   0.7631   0.3379     H
C       0.5997   0.7448   0.7456     C
C       0.5997   0.7552   0.2456     C
H        0.612   0.1652    0.336     H
H        0.612   0.3348    0.836     H
H       0.6168   0.6987   0.2336     H
H       0.6168   0.8013   0.7336     H
H       0.6327   0.2218    0.223     H
H       0.6327   0.2782    0.723     H
C       0.6337   0.2197   0.3165     C
C       0.6337   0.2803   0.8165     C
H       0.6469    0.585   0.1198     H
H       0.6469    0.915   0.6198     H
C       0.6502   0.5687   0.0311     C
C       0.6502   0.9313   0.5311     C
H       0.6624   0.6171   0.9834     H
H       0.6624   0.8829   0.4834     H
H       0.6913   0.6388    0.733     H
H       0.6913   0.8612    0.233     H
H        0.702   0.6995    0.621     H
H        0.702   0.8005    0.121     H
C       0.7056   0.6948   0.7149     C
C       0.7056   0.8052   0.2149     C
O       0.7742   0.0224   0.3983     O
O       0.7742   0.4776   0.8983     O
O       0.7799   0.0636   0.6332     O
O       0.7799   0.4364   0.1332     O
P      0.78744  0.50579   0.0445     P
P      0.78744  0.99421   0.5445     P
P      0.79138  0.23997  0.40951     P
P      0.79138  0.26003  0.90951     P
O        0.794   0.2465   0.5552     O
O        0.794   0.2535   0.0552     O
H       0.8053   0.0674   0.3982     H
H       0.8053   0.4326   0.8982     H
O       0.8359   0.1808   0.8598     O
O       0.8359   0.3192   0.3598     O
O       0.8563   0.7314   0.9516     O
O       0.8563   0.7686   0.4516     O
P      0.86211  0.72292   0.8074     P
P      0.86211  0.77708   0.3074     P
Zn     0.86513  0.16469   0.6831    Zn
Zn     0.86513  0.33531   0.1831    Zn
O       0.8717   0.1685   0.3809     O
O       0.8717   0.3315   0.8809     O
O       0.8971    0.694   0.2597     O
O       0.8971    0.806   0.7597     O
O       0.9067   0.5541   0.0905     O
O       0.9067   0.9459   0.5905     O
Zn     0.94498  0.66658  0.09649    Zn
Zn     0.94498  0.83342  0.59649    Zn
O       0.9521   0.6572   0.7846     O
O       0.9521   0.8428   0.2846     O
