data_I
_chemical_name_common  '/home/zhangsd/repos/MofS-CGCNN/ML/data/TSD/clean_cifs/NEVJOP_clean'
_cell_length_a 15.79910
_cell_length_b 11.42570
_cell_length_c 18.75820
_cell_angle_alpha 90.00000
_cell_angle_beta  103.36700
_cell_angle_gamma 90.00000
_space_group_name_H-M_alt      'P 1'


loop_
_space_group_symop_operation_xyz
  'x, y, z' 

loop_
_atom_site_label
_atom_site_fract_x
_atom_site_fract_y
_atom_site_fract_z
_atom_site_type_symbol
C        7e-05   0.6948  0.44836     C
H       0.0007   0.3794   0.4481     H
H       0.0048   0.2806   0.3639     H
C       0.0054   0.2441   0.9349     C
H       0.0105   0.6966   0.0352     H
O      0.01453  0.79521  0.42611     O
C        0.018   0.9376   0.1255     C
C      0.02893   0.1088   0.3947     C
C      0.03107   0.7868  0.62761     C
H        0.036   0.5402   0.2339     H
N      0.03759    0.702  0.27733     N
O      0.03889  0.07168    0.461     O
C      0.04125   0.6543  0.52571     C
O      0.04549  0.38014  0.59296     O
C      0.04709   0.8531   0.0844     C
H       0.0504   0.0076   0.1383     H
C       0.0579   0.0798   0.8521     C
H       0.0613   0.8678   0.3063     H
O        0.065   0.0683  0.34873     O
C       0.0714  0.60713  0.24853     C
H       0.0715   0.8054    0.675     H
H       0.0758   0.0207   0.8231     H
Zn     0.07898  0.31644  0.69397    Zn
C       0.0818   0.2546   0.9101     C
H       0.0819   0.5984   0.5243     H
Zn     0.08296  0.90912  0.49965    Zn
N      0.08381  0.74933  0.57509     N
C       0.0856   0.8002  0.28941     C
H       0.0988   0.6512   0.7839     H
N      0.10858   0.1752  0.86857     N
H       0.1165   0.3225   0.9236     H
O      0.12196  0.44894  0.75782     O
C       0.1322   0.8662  0.06372     C
H       0.1362   0.0429   0.0609     H
O      0.14041  0.98097  0.59969     O
H       0.1421   0.8447   0.8068     H
C       0.1547   0.6075   0.2406     C
C      0.15696   0.6691  0.80851     C
H       0.1596    0.545   0.6133     H
H       0.1603   0.6908   0.0597     H
O        0.161  0.18992   0.7168     O
C       0.1674   0.9737   0.0553     C
C        0.168   0.8065  0.27831     C
C       0.1727   0.7222  0.61497     C
H       0.1788   0.5383   0.2254     H
C       0.1818   0.7674  0.05493     C
C      0.18325   0.7839  0.82225     C
C      0.19092   0.4573  0.80802     C
C      0.19947   0.6068  0.62995     C
H       0.1997   0.8778   0.2868     H
N      0.20418   0.8878  0.46909     N
C      0.20485   0.7085  0.25467     C
H       0.2059   0.7154   0.4657     H
C      0.21241   0.9436  0.63721     C
C      0.21703   0.5806  0.83135     C
Zn     0.22625  0.19162  0.82987    Zn
O      0.22982  0.00897    0.828     O
H         0.23   0.0571   0.4673     H
C      0.23172   0.8139  0.64186     C
O      0.23785  0.37403  0.83634     O
C       0.2389   0.7831  0.46057     C
C       0.2476   0.9815  0.03882     C
C       0.2524   0.9815  0.46118     C
C       0.2611   0.7831  0.03943     C
O      0.26215  0.37403  0.66366     O
C      0.26828   0.8139  0.85814     C
H         0.27   0.0571   0.0327     H
O      0.27018  0.00897    0.672     O
Zn     0.27375  0.19162  0.67013    Zn
C      0.28297   0.5806  0.66865     C
C      0.28759   0.9436  0.86279     C
H       0.2941   0.7154   0.0343     H
C      0.29515   0.7085  0.24533     C
N      0.29582   0.8878  0.03091     N
H       0.3003   0.8778   0.2132     H
C      0.30053   0.6068  0.87005     C
C      0.30908   0.4573  0.69198     C
C      0.31675   0.7839  0.67775     C
C       0.3182   0.7674  0.44507     C
H       0.3212   0.5383   0.2746     H
C       0.3273   0.7222  0.88503     C
C        0.332   0.8065  0.22169     C
C       0.3326   0.9737   0.4447     C
O        0.339  0.18992   0.7832     O
H       0.3397   0.6908   0.4403     H
H       0.3404    0.545   0.8867     H
C      0.34304   0.6691  0.69149     C
C       0.3453   0.6075   0.2594     C
H       0.3579   0.8447   0.6932     H
O      0.35959  0.98097  0.90031     O
H       0.3638   0.0429   0.4391     H
C       0.3678   0.8662  0.43628     C
O      0.37804  0.44894  0.74218     O
H       0.3835   0.3225   0.5764     H
N      0.39142   0.1752  0.63143     N
H       0.4012   0.6512   0.7161     H
C       0.4144   0.8002  0.21059     C
N      0.41619  0.74933  0.92491     N
Zn     0.41704  0.90912  0.00035    Zn
H       0.4181   0.5984   0.9757     H
C       0.4182   0.2546   0.5899     C
Zn     0.42102  0.31644  0.80604    Zn
H       0.4242   0.0207   0.6769     H
H       0.4285   0.8054    0.825     H
C       0.4286  0.60713  0.25147     C
O        0.435   0.0683  0.15127     O
H       0.4387   0.8678   0.1937     H
C       0.4421   0.0798   0.6479     C
H       0.4496   0.0076   0.3617     H
C      0.45291   0.8531   0.4156     C
O      0.45451  0.38014  0.90704     O
C      0.45875   0.6543  0.97429     C
O      0.46111  0.07168    0.039     O
N      0.46241    0.702  0.22267     N
H        0.464   0.5402   0.2661     H
C      0.46893   0.7868  0.87239     C
C      0.47107   0.1088   0.1053     C
C        0.482   0.9376   0.3745     C
O      0.48547  0.79521  0.07389     O
H       0.4895   0.6966   0.4648     H
C       0.4946   0.2441   0.5651     C
H       0.4952   0.2806   0.1361     H
H       0.4993   0.3794   0.0519     H
C      0.49993   0.6948  0.05164     C
C      0.50007   0.3052  0.94836     C
H       0.5007   0.6206   0.9481     H
H       0.5048   0.7194   0.8639     H
C       0.5054   0.7559   0.4349     C
H       0.5105   0.3034   0.5352     H
O      0.51453  0.20479  0.92611     O
C        0.518   0.0624   0.6255     C
C      0.52893   0.8912   0.8947     C
C      0.53107   0.2132  0.12761     C
H        0.536   0.4598   0.7339     H
N      0.53759    0.298  0.77733     N
O      0.53889  0.92832    0.961     O
C      0.54125   0.3457  0.02571     C
O      0.54549  0.61986  0.09296     O
C      0.54709   0.1469   0.5844     C
H       0.5504   0.9924   0.6383     H
C       0.5579   0.9202   0.3521     C
H       0.5613   0.1322   0.8063     H
O        0.565   0.9317  0.84873     O
C       0.5714  0.39287  0.74853     C
H       0.5715   0.1946    0.175     H
H       0.5758   0.9793   0.3231     H
Zn     0.57898  0.68356  0.19397    Zn
C       0.5818   0.7454   0.4101     C
H       0.5819   0.4016   0.0243     H
Zn     0.58296  0.09088  0.99966    Zn
N      0.58381  0.25067  0.07509     N
C       0.5856   0.1998  0.78941     C
H       0.5988   0.3488   0.2839     H
N      0.60858   0.8248  0.36857     N
H       0.6165   0.6775   0.4236     H
O      0.62196  0.55106  0.25782     O
C       0.6322   0.1338  0.56372     C
H       0.6362   0.9571   0.5609     H
O      0.64041  0.01903  0.09969     O
H       0.6421   0.1553   0.3068     H
C       0.6547   0.3925   0.7406     C
C      0.65696   0.3309  0.30851     C
H       0.6596    0.455   0.1133     H
H       0.6603   0.3092   0.5597     H
O        0.661  0.81008   0.2168     O
C       0.6674   0.0263   0.5553     C
C        0.668   0.1935  0.77831     C
C       0.6727   0.2778  0.11497     C
H       0.6788   0.4617   0.7254     H
C       0.6818   0.2326  0.55493     C
C      0.68325   0.2161  0.32225     C
C      0.69092   0.5427  0.30802     C
C      0.69947   0.3932  0.12995     C
H       0.6997   0.1222   0.7868     H
N      0.70418   0.1122  0.96909     N
C      0.70485   0.2915  0.75467     C
H       0.7059   0.2846   0.9657     H
C      0.71241   0.0564  0.13721     C
C      0.71703   0.4194  0.33135     C
Zn     0.72625  0.80838  0.32987    Zn
O      0.72982  0.99103    0.328     O
H         0.73   0.9429   0.9673     H
C      0.73172   0.1861  0.14186     C
O      0.73785  0.62597  0.33634     O
C       0.7389   0.2169  0.96057     C
C       0.7476   0.0185  0.53882     C
C       0.7524   0.0185  0.96118     C
C       0.7611   0.2169  0.53943     C
O      0.76215  0.62597  0.16366     O
C      0.76828   0.1861  0.35814     C
H         0.77   0.9429   0.5327     H
O      0.77018  0.99103    0.172     O
Zn     0.77375  0.80838  0.17013    Zn
C      0.78297   0.4194  0.16865     C
C      0.78759   0.0564  0.36279     C
H       0.7941   0.2846   0.5343     H
C      0.79515   0.2915  0.74533     C
N      0.79582   0.1122  0.53091     N
H       0.8003   0.1222   0.7132     H
C      0.80053   0.3932  0.37005     C
C      0.80908   0.5427  0.19198     C
C      0.81675   0.2161  0.17775     C
C       0.8182   0.2326  0.94507     C
H       0.8212   0.4617   0.7746     H
C       0.8273   0.2778  0.38503     C
C        0.832   0.1935  0.72169     C
C       0.8326   0.0263   0.9447     C
O        0.839  0.81008   0.2832     O
H       0.8397   0.3092   0.9403     H
H       0.8404    0.455   0.3867     H
C      0.84304   0.3309  0.19149     C
C       0.8453   0.3925   0.7594     C
H       0.8579   0.1553   0.1932     H
O      0.85959  0.01903  0.40031     O
H       0.8638   0.9571   0.9391     H
C       0.8678   0.1338  0.93628     C
O      0.87804  0.55106  0.24218     O
H       0.8835   0.6775   0.0764     H
N      0.89142   0.8248  0.13143     N
H       0.9012   0.3488   0.2161     H
C       0.9144   0.1998  0.71059     C
N      0.91619  0.25067  0.42491     N
Zn     0.91704  0.09088  0.50035    Zn
H       0.9181   0.4016   0.4757     H
C       0.9182   0.7454   0.0899     C
Zn     0.92102  0.68356  0.30603    Zn
H       0.9242   0.9793   0.1769     H
H       0.9285   0.1946    0.325     H
C       0.9286  0.39287  0.75147     C
O        0.935   0.9317  0.65127     O
H       0.9387   0.1322   0.6937     H
C       0.9421   0.9202   0.1479     C
H       0.9496   0.9924   0.8617     H
C      0.95291   0.1469   0.9156     C
O      0.95451  0.61986  0.40704     O
C      0.95875   0.3457  0.47429     C
O      0.96111  0.92832    0.539     O
N      0.96241    0.298  0.72267     N
H        0.964   0.4598   0.7661     H
C      0.96893   0.2132  0.37239     C
C      0.97107   0.8912   0.6053     C
C        0.982   0.0624   0.8745     C
O      0.98547  0.20479  0.57389     O
H       0.9895   0.3034   0.9648     H
C       0.9946   0.7559   0.0651     C
H       0.9952   0.7194   0.6361     H
H       0.9993   0.6206   0.5519     H
C      0.99993   0.3052  0.55164     C
