data_I
_chemical_name_common  '/home/zhangsd/repos/MofS-CGCNN/ML/data/TSD/clean_cifs/NEYYUN_clean'
_cell_length_a 16.89440
_cell_length_b 16.89440
_cell_length_c  7.54540
_cell_angle_alpha 90.00000
_cell_angle_beta  90.00000
_cell_angle_gamma 90.00000
_space_group_name_H-M_alt      'P 1'


loop_
_space_group_symop_operation_xyz
  'x, y, z' 

loop_
_atom_site_label
_atom_site_fract_x
_atom_site_fract_y
_atom_site_fract_z
_atom_site_type_symbol
Ni         0.0      0.0      0.5    Ni
Ni         0.0      0.5     0.75    Ni
C       0.0067   0.6826   0.6778     C
C       0.0067   0.8174   0.5722     C
O       0.0363   0.6192   0.7335     O
O       0.0363   0.8808   0.5165     O
C       0.0475     0.75    0.625     C
N       0.0764   0.1865   0.5745     N
N       0.0764   0.3135   0.6755     N
H       0.1019    0.145   0.5411     H
H       0.1019    0.355   0.7089     H
H       0.1026     0.75    0.625     H
O       0.1192   0.0363   0.4835     O
O       0.1192   0.4637   0.7665     O
C       0.1199     0.25    0.625     C
H        0.145   0.6019   0.7911     H
H        0.145   0.8981   0.4589     H
C       0.1826   0.0067   0.4278     C
C       0.1826   0.4933   0.8222     C
N       0.1865   0.5764   0.8245     N
N       0.1865   0.9236   0.4255     N
S      0.21713     0.25    0.625     S
C         0.25   0.0475    0.375     C
H         0.25   0.1026    0.375     H
H         0.25   0.3974    0.875     H
C         0.25   0.4525    0.875     C
C         0.25   0.6199    0.875     C
S         0.25  0.71713    0.875     S
S         0.25  0.78287    0.375     S
C         0.25   0.8801    0.375     C
S      0.28287     0.25    0.125     S
N       0.3135   0.5764   0.9255     N
N       0.3135   0.9236   0.3245     N
C       0.3174   0.0067   0.3222     C
C       0.3174   0.4933   0.9278     C
H        0.355   0.6019   0.9589     H
H        0.355   0.8981   0.2911     H
C       0.3801     0.25    0.125     C
O       0.3808   0.0363   0.2665     O
O       0.3808   0.4637   0.9835     O
H       0.3974     0.75    0.125     H
H       0.3981    0.145   0.2089     H
H       0.3981    0.355   0.0411     H
N       0.4236   0.1865   0.1755     N
N       0.4236   0.3135   0.0745     N
C       0.4525     0.75    0.125     C
O       0.4637   0.6192   0.0165     O
O       0.4637   0.8808   0.2335     O
C       0.4933   0.6826   0.0722     C
C       0.4933   0.8174   0.1778     C
Ni         0.5      0.0     0.25    Ni
Ni         0.5      0.5      0.0    Ni
C       0.5067   0.1826   0.1778     C
C       0.5067   0.3174   0.0722     C
O       0.5363   0.1192   0.2335     O
O       0.5363   0.3808   0.0165     O
C       0.5475     0.25    0.125     C
N       0.5764   0.6865   0.0745     N
N       0.5764   0.8135   0.1755     N
H       0.6019    0.645   0.0411     H
H       0.6019    0.855   0.2089     H
H       0.6026     0.25    0.125     H
O       0.6192   0.5363   0.9835     O
O       0.6192   0.9637   0.2665     O
C       0.6199     0.75    0.125     C
H        0.645   0.1019   0.2911     H
H        0.645   0.3981   0.9589     H
C       0.6826   0.5067   0.9278     C
C       0.6826   0.9933   0.3222     C
N       0.6865   0.0764   0.3245     N
N       0.6865   0.4236   0.9255     N
S      0.71713     0.75    0.125     S
C         0.75   0.1199    0.375     C
S         0.75  0.21713    0.375     S
S         0.75  0.28287    0.875     S
C         0.75   0.3801    0.875     C
C         0.75   0.5475    0.875     C
H         0.75   0.6026    0.875     H
H         0.75   0.8974    0.375     H
C         0.75   0.9525    0.375     C
S      0.78287     0.75    0.625     S
N       0.8135   0.0764   0.4255     N
N       0.8135   0.4236   0.8245     N
C       0.8174   0.5067   0.8222     C
C       0.8174   0.9933   0.4278     C
H        0.855   0.1019   0.4589     H
H        0.855   0.3981   0.7911     H
C       0.8801     0.75    0.625     C
O       0.8808   0.5363   0.7665     O
O       0.8808   0.9637   0.4835     O
H       0.8974     0.25    0.625     H
H       0.8981    0.645   0.7089     H
H       0.8981    0.855   0.5411     H
N       0.9236   0.6865   0.6755     N
N       0.9236   0.8135   0.5745     N
C       0.9525     0.25    0.625     C
O       0.9637   0.1192   0.5165     O
O       0.9637   0.3808   0.7335     O
C       0.9933   0.1826   0.5722     C
C       0.9933   0.3174   0.6778     C
