data_I
_chemical_name_common  '/home/zhangsd/repos/MofS-CGCNN/ML/data/TSD/clean_cifs/NEYZAU_clean'
_cell_length_a 16.96430
_cell_length_b 16.96430
_cell_length_c  7.60670
_cell_angle_alpha 90.00000
_cell_angle_beta  90.00000
_cell_angle_gamma 90.00000
_space_group_name_H-M_alt      'P 1'


loop_
_space_group_symop_operation_xyz
  'x, y, z' 

loop_
_atom_site_label
_atom_site_fract_x
_atom_site_fract_y
_atom_site_fract_z
_atom_site_type_symbol
Mg         0.0      0.0      0.5    Mg
Mg         0.0      0.5     0.75    Mg
C       0.0038   0.6832    0.678     C
C       0.0038   0.8168    0.572     C
O       0.0348   0.6193   0.7331     O
O       0.0348   0.8807   0.5169     O
C       0.0458     0.75    0.625     C
N        0.077   0.1865   0.5777     N
N        0.077   0.3135   0.6723     N
H       0.1006     0.75    0.625     H
H        0.102   0.1444   0.5486     H
H        0.102   0.3556   0.7014     H
O       0.1193   0.0348   0.4831     O
O       0.1193   0.4652   0.7669     O
C       0.1216     0.25    0.625     C
H       0.1444    0.602   0.7986     H
H       0.1444    0.898   0.4514     H
C       0.1832   0.0038    0.428     C
C       0.1832   0.4962    0.822     C
N       0.1865    0.577   0.8277     N
N       0.1865    0.923   0.4223     N
S      0.21757     0.25    0.625     S
C         0.25   0.0458    0.375     C
H         0.25   0.1006    0.375     H
H         0.25   0.3994    0.875     H
C         0.25   0.4542    0.875     C
C         0.25   0.6216    0.875     C
S         0.25  0.71757    0.875     S
S         0.25  0.78243    0.375     S
C         0.25   0.8784    0.375     C
S      0.28243     0.25    0.125     S
N       0.3135    0.577   0.9223     N
N       0.3135    0.923   0.3277     N
C       0.3168   0.0038    0.322     C
C       0.3168   0.4962    0.928     C
H       0.3556    0.602   0.9514     H
H       0.3556    0.898   0.2986     H
C       0.3784     0.25    0.125     C
O       0.3807   0.0348   0.2669     O
O       0.3807   0.4652   0.9831     O
H        0.398   0.1444   0.2014     H
H        0.398   0.3556   0.0486     H
H       0.3994     0.75    0.125     H
N        0.423   0.1865   0.1723     N
N        0.423   0.3135   0.0777     N
C       0.4542     0.75    0.125     C
O       0.4652   0.6193   0.0169     O
O       0.4652   0.8807   0.2331     O
C       0.4962   0.6832    0.072     C
C       0.4962   0.8168    0.178     C
Mg         0.5      0.0     0.25    Mg
Mg         0.5      0.5      0.0    Mg
C       0.5038   0.1832    0.178     C
C       0.5038   0.3168    0.072     C
O       0.5348   0.1193   0.2331     O
O       0.5348   0.3807   0.0169     O
C       0.5458     0.25    0.125     C
N        0.577   0.6865   0.0777     N
N        0.577   0.8135   0.1723     N
H       0.6006     0.25    0.125     H
H        0.602   0.6444   0.0486     H
H        0.602   0.8556   0.2014     H
O       0.6193   0.5348   0.9831     O
O       0.6193   0.9652   0.2669     O
C       0.6216     0.75    0.125     C
H       0.6444    0.102   0.2986     H
H       0.6444    0.398   0.9514     H
C       0.6832   0.5038    0.928     C
C       0.6832   0.9962    0.322     C
N       0.6865    0.077   0.3277     N
N       0.6865    0.423   0.9223     N
S      0.71757     0.75    0.125     S
C         0.75   0.1216    0.375     C
S         0.75  0.21757    0.375     S
S         0.75  0.28243    0.875     S
C         0.75   0.3784    0.875     C
C         0.75   0.5458    0.875     C
H         0.75   0.6006    0.875     H
H         0.75   0.8994    0.375     H
C         0.75   0.9542    0.375     C
S      0.78243     0.75    0.625     S
N       0.8135    0.077   0.4223     N
N       0.8135    0.423   0.8277     N
C       0.8168   0.5038    0.822     C
C       0.8168   0.9962    0.428     C
H       0.8556    0.102   0.4514     H
H       0.8556    0.398   0.7986     H
C       0.8784     0.75    0.625     C
O       0.8807   0.5348   0.7669     O
O       0.8807   0.9652   0.4831     O
H        0.898   0.6444   0.7014     H
H        0.898   0.8556   0.5486     H
H       0.8994     0.25    0.625     H
N        0.923   0.6865   0.6723     N
N        0.923   0.8135   0.5777     N
C       0.9542     0.25    0.625     C
O       0.9652   0.1193   0.5169     O
O       0.9652   0.3807   0.7331     O
C       0.9962   0.1832    0.572     C
C       0.9962   0.3168    0.678     C
