data_I
_chemical_name_common  '/home/zhangsd/repos/MofS-CGCNN/ML/data/TSD/clean_cifs/NEZBOK_clean'
_cell_length_a  6.06270
_cell_length_b 10.71220
_cell_length_c 10.38720
_cell_angle_alpha 90.00000
_cell_angle_beta  97.95600
_cell_angle_gamma 90.00000
_space_group_name_H-M_alt      'P 1'


loop_
_space_group_symop_operation_xyz
  'x, y, z' 

loop_
_atom_site_label
_atom_site_fract_x
_atom_site_fract_y
_atom_site_fract_z
_atom_site_type_symbol
P      0.03461  0.65644  0.72871     P
P      0.03461  0.84356  0.22871     P
O       0.0672   0.2065  0.65522     O
O       0.0672   0.2935  0.15522     O
O       0.0874  0.51696  0.74742     O
O       0.0874  0.98304  0.24742     O
O       0.1015  0.18927   0.8991     O
O       0.1015  0.31073   0.3991     O
Mn     0.11358  0.11295  0.09155    Mn
Mn     0.11358  0.38705  0.59155    Mn
H       0.1781   0.6989     0.73     H
H       0.1781   0.8011     0.23     H
O       0.2308  0.55855  0.48354     O
O       0.2308  0.94145  0.98354     O
C        0.428  0.55091  0.46074     C
C        0.428  0.94909  0.96074     C
O       0.4822  0.11665  0.11598     O
O       0.4822  0.38335  0.61598     O
O       0.5178  0.61665  0.38402     O
O       0.5178  0.88335  0.88402     O
C        0.572  0.05091  0.03926     C
C        0.572  0.44909  0.53926     C
O       0.7692  0.05855  0.01646     O
O       0.7692  0.44145  0.51646     O
H       0.8219   0.1989     0.77     H
H       0.8219   0.3011     0.27     H
Mn     0.88642  0.61295  0.40845    Mn
Mn     0.88642  0.88705  0.90845    Mn
O       0.8985  0.68927   0.6009     O
O       0.8985  0.81073   0.1009     O
O       0.9126  0.01696  0.75258     O
O       0.9126  0.48304  0.25258     O
O       0.9328   0.7065  0.84478     O
O       0.9328   0.7935  0.34478     O
P      0.96539  0.15644  0.77129     P
P      0.96539  0.34356  0.27129     P
