data_I
_chemical_name_common  '/home/zhangsd/repos/MofS-CGCNN/ML/data/TSD/clean_cifs/NIGFIT_clean'
_cell_length_a 10.88940
_cell_length_b 10.88940
_cell_length_c 19.68030
_cell_angle_alpha 75.71560
_cell_angle_beta  75.71560
_cell_angle_gamma 64.67260
_space_group_name_H-M_alt      'P 1'


loop_
_space_group_symop_operation_xyz
  'x, y, z' 

loop_
_atom_site_label
_atom_site_fract_x
_atom_site_fract_y
_atom_site_fract_z
_atom_site_type_symbol
C        0.017   0.3682   0.3915     C
O       0.0285   0.6673   0.6497     O
O       0.0581   0.5895   0.5541     O
C       0.1641   0.3553    0.374     C
H       0.1694   0.4008   0.4668     H
H       0.2015   0.3119   0.2755     H
C       0.2207   0.3807   0.4226     C
C       0.2405   0.3271    0.308     C
Er     0.25507  0.59459   0.5833    Er
O       0.2834    0.577   0.7036     O
O       0.2934    0.395   0.6703     O
C       0.2982   0.4534   0.7173     C
H       0.3119   0.2015   0.7755     H
C       0.3212   0.3736   0.7897     C
C       0.3271   0.2405    0.808     C
O       0.3327   0.9715   0.8503     O
H        0.344   0.5194   0.8275     H
C       0.3468   0.4302   0.8392     C
O       0.3506   0.4178   0.5184     O
C       0.3539   0.3761   0.4049     C
C       0.3553   0.1641    0.874     C
C       0.3682    0.017   0.8915     C
C       0.3736   0.3212   0.2897     C
C       0.3761   0.3539   0.9049     C
C       0.3807   0.2207   0.9226     C
O        0.395   0.2934   0.1703     O
H       0.4008   0.1694   0.9668     H
Er     0.40541  0.74493   0.9167    Er
C       0.4067   0.4155   0.9564     C
O       0.4105   0.9419   0.9459     O
C       0.4155   0.4067   0.4564     C
O       0.4178   0.3506   0.0184     O
O       0.4199   0.5285   0.9341     O
O        0.423   0.7166   0.7964     O
C       0.4302   0.3468   0.3392     C
C       0.4534   0.2982   0.2173     C
O       0.4715   0.5801   0.5659     O
H       0.4806    0.656   0.6725     H
H       0.5194    0.344   0.3275     H
O       0.5285   0.4199   0.4341     O
C       0.5466   0.7018   0.7827     C
C       0.5698   0.6532   0.6608     C
O        0.577   0.2834   0.2036     O
O       0.5801   0.4715   0.0659     O
O       0.5822   0.6494   0.9816     O
C       0.5845   0.5933   0.5436     C
O       0.5895   0.0581   0.0541     O
C       0.5933   0.5845   0.0436     C
Er     0.59459  0.25507   0.0833    Er
H       0.5992   0.8306   0.0332     H
O        0.605   0.7066   0.8297     O
C       0.6193   0.7793   0.0774     C
C       0.6239   0.6461   0.0951     C
C       0.6264   0.6788   0.7103     C
C       0.6318    0.983   0.1085     C
C       0.6447   0.8359    0.126     C
C       0.6461   0.6239   0.5951     C
O       0.6494   0.5822   0.4816     O
C       0.6532   0.5698   0.1608     C
H        0.656   0.4806   0.1725     H
O       0.6673   0.0285   0.1497     O
C       0.6729   0.7595    0.192     C
C       0.6788   0.6264   0.2103     C
H       0.6881   0.7985   0.2245     H
C       0.7018   0.5466   0.2827     C
O       0.7066    0.605   0.3297     O
O       0.7166    0.423   0.2964     O
Er     0.74493  0.40541   0.4167    Er
C       0.7595   0.6729    0.692     C
C       0.7793   0.6193   0.5774     C
H       0.7985   0.6881   0.7245     H
H       0.8306   0.5992   0.5332     H
C       0.8359   0.6447    0.626     C
O       0.9419   0.4105   0.4459     O
O       0.9715   0.3327   0.3503     O
C        0.983   0.6318   0.6085     C
