data_I
_chemical_name_common  '/home/zhangsd/repos/MofS-CGCNN/ML/data/TSD/clean_cifs/NIMXIS_clean'
_cell_length_a 12.93760
_cell_length_b 12.93760
_cell_length_c 14.16210
_cell_angle_alpha 85.05810
_cell_angle_beta  85.05810
_cell_angle_gamma 89.59630
_space_group_name_H-M_alt      'P 1'


loop_
_space_group_symop_operation_xyz
  'x, y, z' 

loop_
_atom_site_label
_atom_site_fract_x
_atom_site_fract_y
_atom_site_fract_z
_atom_site_type_symbol
Zn         0.0      0.0      0.5    Zn
O       0.0096     0.66    0.171     O
Zn     0.01724  0.18736  0.33517    Zn
O       0.0204   0.1454   0.2063     O
O      0.02093  0.85913   0.4238     O
N        0.035   0.7068   0.2344     N
O       0.0371   0.7981   0.2257     O
C       0.0374   0.0374   0.0804     C
H       0.0374  0.50341  0.25964     H
O      0.04706  0.33208   0.3412     O
C       0.0475   0.9159   0.9598     C
C       0.0679   0.5429   0.3206     C
C       0.0693   0.6483    0.318     C
C       0.0698   0.0698    0.171     C
C       0.0841   0.9525   0.0402     C
H      0.08752  0.84719  0.92684     H
O      0.09276  0.09276   0.4163     O
C       0.0999   0.3689   0.4031     C
C       0.1018   0.8182   0.3924     C
C       0.1026   0.7022   0.3916     C
C       0.1038   0.4846   0.3978     C
O      0.13603  0.81351   0.6342     O
C       0.1396   0.6422   0.4669     C
O      0.14087  0.97907   0.5762     O
C        0.142   0.5356   0.4708     C
O       0.1454   0.0204   0.2063     O
O      0.14703  0.31899   0.4652     O
H      0.15281  0.91248  0.07316     H
Zn     0.16584  0.16584  0.50514    Zn
H      0.16878  0.68394  0.52714     H
H      0.17503  0.48908  0.53336     H
C       0.1818   0.8982   0.6076     C
O      0.18649  0.86397   0.3658     O
Zn     0.18736  0.01724  0.33517    Zn
O       0.2019   0.9629   0.7743     O
N       0.2932    0.965   0.7656     N
C       0.2978   0.8974   0.6084     C
H      0.31606  0.83122  0.47286     H
O      0.31899  0.14703   0.4652     O
O      0.33208  0.04706   0.3412     O
O         0.34   0.9904    0.829     O
C       0.3517   0.9307    0.682     C
C       0.3578   0.8604   0.5331     C
C       0.3689   0.0999   0.4031     C
C       0.4571   0.9321   0.6794     C
C       0.4644    0.858   0.5292     C
C       0.4846   0.1038   0.3978     C
H      0.48908  0.17503  0.53336     H
H      0.49659   0.9626  0.74036     H
H      0.50341   0.0374  0.25964     H
H      0.51092  0.82497  0.46664     H
C       0.5154   0.8962   0.6022     C
C       0.5356    0.142   0.4708     C
C       0.5429   0.0679   0.3206     C
C       0.6311   0.9001   0.5969     C
C       0.6422   0.1396   0.4669     C
C       0.6483   0.0693    0.318     C
O         0.66   0.0096    0.171     O
O      0.66792  0.95294   0.6588     O
O      0.68101  0.85297   0.5348     O
H      0.68394  0.16878  0.52714     H
C       0.7022   0.1026   0.3916     C
N       0.7068    0.035   0.2344     N
O       0.7981   0.0371   0.2257     O
Zn     0.81264  0.98276  0.66483    Zn
O      0.81351  0.13603   0.6342     O
C       0.8182   0.1018   0.3924     C
H      0.82502  0.51118  0.46675     H
H      0.83049  0.31915   0.4714     H
Zn     0.83416  0.83416  0.49486    Zn
H      0.84722  0.08712  0.92644     H
O      0.85297  0.68101   0.5348     O
O       0.8546   0.9796   0.7937     O
C        0.858   0.4644   0.5292     C
O      0.85913  0.02093   0.4238     O
C       0.8604   0.3578   0.5331     C
O      0.86397  0.18649   0.3658     O
C       0.8962   0.5154   0.6022     C
C       0.8974   0.2978   0.6084     C
C       0.8982   0.1818   0.6076     C
C       0.9001   0.6311   0.5969     C
O      0.90724  0.90724   0.5837     O
H      0.91288  0.15278  0.07356     H
C       0.9159   0.0475   0.9598     C
C       0.9302   0.9302    0.829     C
C       0.9307   0.3517    0.682     C
C       0.9321   0.4571   0.6794     C
C       0.9525   0.0841   0.0402     C
O      0.95294  0.66792   0.6588     O
H      0.96242  0.49747  0.73993     H
C       0.9626   0.9626   0.9196     C
O       0.9629   0.2019   0.7743     O
N        0.965   0.2932   0.7656     N
O      0.97907  0.14087   0.5762     O
O       0.9796   0.8546   0.7937     O
Zn     0.98276  0.81264  0.66483    Zn
O       0.9904     0.34    0.829     O
