data_I
_chemical_name_common  '/home/zhangsd/repos/MofS-CGCNN/ML/data/TSD/clean_cifs/NIVZOJ_clean'
_cell_length_a 14.50560
_cell_length_b 14.89810
_cell_length_c 22.99340
_cell_angle_alpha 90.53400
_cell_angle_beta  92.84400
_cell_angle_gamma 104.15300
_space_group_name_H-M_alt      'P 1'


loop_
_space_group_symop_operation_xyz
  'x, y, z' 

loop_
_atom_site_label
_atom_site_fract_x
_atom_site_fract_y
_atom_site_fract_z
_atom_site_type_symbol
Ag         0.0      0.0      0.0    Ag
Ag         0.0      0.5      0.5    Ag
H       0.0261    0.062   0.1404     H
Ag      0.0376   0.9668   0.0086    Ag
N       0.0482    0.109   0.0609     N
C        0.049    0.114   0.1182     C
H       0.0497   0.5034   0.3568     H
Ag     0.07044  0.40934  0.07171    Ag
N       0.0761   0.6525   0.9555     N
C       0.0806    0.201   0.0497     C
H        0.082   0.2751   0.2089     H
H       0.0827   0.1734   0.2255     H
N       0.0846   0.1943   0.1411     N
H       0.0852   0.2233    0.012     H
H        0.089   0.8389   0.1338     H
H       0.0913   0.6245   0.0407     H
C        0.101    0.504    0.383     C
N        0.104   0.2551   0.0951     N
N       0.1053   0.4959   0.4436     N
C       0.1095   0.2237   0.2001     C
C       0.1211    0.653   0.0084     C
H       0.1216   0.5031    0.258     H
H       0.1381   0.5675   0.1603     H
H       0.1393   0.6956   0.8814     H
H       0.1432   0.8803   0.3441     H
C       0.1448     0.87   0.1172     C
C       0.1455    0.689   0.9215     C
N       0.1534    0.899   0.0607     N
H       0.1784   0.4303   0.2746     H
C        0.182    0.471   0.4523     C
C        0.185    0.494   0.2631     C
N        0.194    0.512   0.3725     N
H       0.1952   0.4412   0.1902     H
H       0.2015   0.4565   0.4895     H
C       0.2058   0.5749   0.1688     C
C        0.206    0.901   0.3582     C
N       0.2106   0.4993   0.0755     N
N        0.211    0.697   0.0094     N
C       0.2144   0.2529   0.2122     C
H       0.2199   0.6136   0.3097     H
C       0.2209   0.5004   0.2101     C
N       0.2248    0.716   0.9539     N
H       0.2273   0.2851   0.2496     H
H       0.2292   0.8828   0.9504     H
H       0.2301    0.128   0.1844     H
C        0.231    0.552   0.3136     C
H       0.2313   0.6354   0.1871     H
N       0.2326    0.921   0.4171     N
N        0.234    0.468   0.4085     N
N       0.2372   0.8968   0.1457     N
H       0.2417   0.2963   0.1828     H
N        0.244   0.9403   0.0582     N
H       0.2503   0.0238   0.9887     H
N       0.2523   0.5687   0.1155     N
H       0.2584   0.1476   0.2509     H
Ag      0.2603   0.8873  0.23502    Ag
C       0.2625   0.1752   0.2128     C
N        0.275   0.9138   0.3266     N
H       0.2788   0.4677   0.0036     H
C       0.2819   0.5066   0.0359     C
C        0.287    0.982   0.0033     C
H        0.289   0.5076   0.2157     H
C        0.292    0.922   0.9592     C
C        0.293    0.934   0.1067     C
H       0.2996    0.559   0.3139     H
H       0.3115   0.9577   0.9249     H
H       0.3164   0.7772   0.8952     H
C       0.3198   0.7654   0.9365     C
N       0.3234    0.933   0.4178     N
N       0.3347   0.1706   0.0956     N
C       0.3356   0.6133   0.0992     C
H       0.3443   0.1975    0.009     H
H       0.3491   0.9893   0.4959     H
H        0.351   0.0185   0.0135     H
C       0.3533   0.9292   0.3615     C
N       0.3548   0.5772   0.0512     N
H        0.359   0.9547   0.1121     H
C       0.3607    0.859   0.9703     C
C        0.363     0.22   0.0466     C
H       0.3633    0.726   0.9431     H
C       0.3672   0.2083   0.1987     C
H       0.3672   0.8486   0.0117     H
H       0.3717   0.8923   0.4912     H
H       0.3754   0.6638   0.1191     H
N       0.3774   0.2317   0.1363     N
C        0.378    0.951   0.4718     C
H       0.3971   0.2625   0.2227     H
H       0.3997   0.1602    0.208     H
H       0.4155    0.936   0.3506     H
N       0.4172   0.3007   0.0573     N
H        0.423    0.889    0.957     H
C       0.4282   0.3068   0.1131     C
H       0.4665   0.3571   0.1341     H
C       0.4763    0.994   0.4705     C
Ag     0.48274  0.62186   0.0023    Ag
H       0.4841   0.0543    0.453     H
H       0.4935    0.043   0.5535     H
H       0.5065    0.957   0.4465     H
H       0.5159   0.9457    0.547     H
Ag     0.51726  0.37814   0.9977    Ag
C       0.5237    0.006   0.5295     C
H       0.5335   0.6429   0.8659     H
C       0.5718   0.6932   0.8869     C
H        0.577    0.111    0.043     H
N       0.5828   0.6993   0.9427     N
H       0.5845    0.064   0.6494     H
H       0.6003   0.8398    0.792     H
H       0.6029   0.7375   0.7773     H
C        0.622    0.049   0.5282     C
N       0.6226   0.7683   0.8637     N
H       0.6246   0.3362   0.8809     H
H       0.6283   0.1077   0.5088     H
H       0.6328   0.1514   0.9883     H
C       0.6328   0.7917   0.8013     C
H       0.6367    0.274   0.0569     H
C        0.637     0.78   0.9534     C
C       0.6393    0.141   0.0297     C
H        0.641   0.0453   0.8879     H
N       0.6452   0.4228   0.9488     N
C       0.6467   0.0708   0.6385     C
H        0.649   0.9815   0.9865     H
H       0.6509   0.0107   0.5041     H
H       0.6557   0.8025    0.991     H
C       0.6644   0.3867   0.9008     C
N       0.6653   0.8294   0.9044     N
N       0.6766    0.067   0.5822     N
C       0.6802   0.2346   0.0635     C
H       0.6836   0.2228   0.1048     H
H       0.6885   0.0423   0.0751     H
H       0.7004    0.441   0.6861     H
C        0.707    0.066   0.8933     C
C        0.708    0.078   0.0408     C
H        0.711   0.4924   0.7843     H
C        0.713    0.018   0.9967     C
C       0.7181   0.4934   0.9641     C
H       0.7212   0.5323   0.9964     H
N        0.725   0.0862   0.6734     N
C       0.7375   0.8248   0.7872     C
Ag      0.7397   0.1127  0.76498    Ag
H       0.7416   0.8524   0.7491     H
N       0.7477   0.4313   0.8845     N
H       0.7497   0.9762   0.0113     H
N        0.756   0.0597   0.9418     N
H       0.7583   0.7037   0.8172     H
N       0.7628   0.1032   0.8543     N
N        0.766    0.532   0.5915     N
N       0.7674    0.079   0.5829     N
H       0.7687   0.3646   0.8129     H
C        0.769    0.448   0.6864     C
H       0.7699    0.872   0.8156     H
H       0.7708   0.1172   0.0496     H
H       0.7727   0.7149   0.7504     H
N       0.7752    0.284   0.0461     N
C       0.7791   0.4996   0.7899     C
H       0.7801   0.3864   0.6903     H
C       0.7856   0.7471   0.7878     C
N        0.789    0.303   0.9906     N
N       0.7894   0.5007   0.9245     N
C        0.794    0.099   0.6418     C
C       0.7942   0.4251   0.8312     C
H       0.7985   0.5435   0.5105     H
H       0.8048   0.5588   0.8098     H
N        0.806    0.488   0.6275     N
C        0.815    0.506   0.7369     C
C        0.818    0.529   0.5477     C
H       0.8216   0.5697   0.7254     H
N       0.8466    0.101   0.9393     N
C       0.8545    0.311   0.0785     C
C       0.8552     0.13   0.8828     C
H       0.8568   0.1197   0.6559     H
H       0.8607   0.3044   0.1186     H
H       0.8619   0.4325   0.8397     H
H       0.8784   0.4969    0.742     H
C       0.8789    0.347   0.9916     C
C       0.8905   0.7763   0.7999     C
N       0.8947   0.5041   0.5564     N
N        0.896   0.7449   0.9049     N
C        0.899    0.496    0.617     C
H       0.9087   0.3755   0.9593     H
H        0.911   0.1611   0.8662     H
H       0.9148   0.7767    0.988     H
N       0.9154   0.8057   0.8589     N
H       0.9173   0.8266   0.7745     H
H        0.918   0.7249   0.7911     H
C       0.9194    0.799   0.9503     C
N       0.9239   0.3475   0.0445     N
Ag     0.92956  0.59066  0.92829    Ag
H       0.9503   0.4966   0.6432     H
C        0.951    0.886   0.8818     C
N       0.9518    0.891   0.9391     N
Ag      0.9624   0.0332   0.9914    Ag
H       0.9739    0.938   0.8596     H
