data_I
_chemical_name_common  '/home/zhangsd/repos/MofS-CGCNN/ML/data/TSD/clean_cifs/NIWZIE12_clean'
_cell_length_a  7.26420
_cell_length_b  7.26420
_cell_length_c  8.21230
_cell_angle_alpha 90.00000
_cell_angle_beta  90.00000
_cell_angle_gamma 120.00000
_space_group_name_H-M_alt      'P 1'


loop_
_space_group_symop_operation_xyz
  'x, y, z' 

loop_
_atom_site_label
_atom_site_fract_x
_atom_site_fract_y
_atom_site_fract_z
_atom_site_type_symbol
H          0.0   0.4317      0.5     H
C          0.0   0.4403      0.0     C
C          0.0   0.5597      0.5     C
H          0.0   0.5683      0.0     H
O       0.1094  0.41947    0.106     O
O       0.1094  0.68993    0.394     O
O      0.31007  0.41947    0.394     O
O      0.31007   0.8906    0.106     O
Mg     0.33333  0.66667     0.25    Mg
O      0.41947   0.1094    0.894     O
O      0.41947  0.31007    0.606     O
H       0.4317      0.0      0.5     H
H       0.4317   0.4317      0.0     H
C       0.4403      0.0      0.0     C
C       0.4403   0.4403      0.5     C
C       0.5597      0.0      0.5     C
C       0.5597   0.5597      0.0     C
H       0.5683      0.0      0.0     H
H       0.5683   0.5683      0.5     H
O      0.58053  0.68993    0.106     O
O      0.58053   0.8906    0.394     O
Mg     0.66667  0.33333     0.75    Mg
O      0.68993   0.1094    0.606     O
O      0.68993  0.58053    0.894     O
O       0.8906  0.31007    0.894     O
O       0.8906  0.58053    0.606     O
