data_I
_chemical_name_common  '/home/zhangsd/repos/MofS-CGCNN/ML/data/TSD/clean_cifs/NIWZIE10_clean'
_cell_length_a 12.57200
_cell_length_b 12.57200
_cell_length_c  8.21840
_cell_angle_alpha 90.00000
_cell_angle_beta  90.00000
_cell_angle_gamma 120.00000
_space_group_name_H-M_alt      'P 1'


loop_
_space_group_symop_operation_xyz
  'x, y, z' 

loop_
_atom_site_label
_atom_site_fract_x
_atom_site_fract_y
_atom_site_fract_z
_atom_site_type_symbol
Mg     0.00128  0.33402  0.08666    Mg
C      0.03978  0.52238   0.3321     C
H       0.0455   0.5171   0.8268     H
O      0.06537  0.82401  0.44338     O
O      0.06814  0.24438  0.23118     O
O      0.08924  0.59978  0.44121     O
O      0.09129  0.49168  0.22919     O
H       0.1418   0.2878   0.8321     H
C      0.14461  0.29339   0.3419     C
H        0.146   0.8582   0.8321     H
C      0.14878  0.85539   0.3419     C
O      0.15618  0.73223  0.72978     O
O      0.15812  0.42331  0.94191     O
O      0.17599  0.24136  0.44338     O
O      0.17624  0.93186  0.23118     O
H       0.1825   0.3784   0.3496     H
C       0.1864  0.37318   0.8347     C
C      0.18678   0.8136   0.8347     C
H       0.1959   0.8175   0.3496     H
O      0.24136  0.06537  0.94338     O
O      0.24438  0.17624  0.73118     O
O      0.26519  0.84188  0.94191     O
O      0.26777  0.42395  0.72978     O
H       0.2878    0.146   0.3321     H
C      0.29339  0.14878   0.8419     C
Mg     0.33274  0.99872  0.08666    Mg
Mg     0.33402  0.33274  0.58666    Mg
C      0.37318  0.18678   0.3347     C
H       0.3784   0.1959   0.8496     H
O      0.40022  0.48946  0.44121     O
O      0.40039  0.90871  0.22919     O
O      0.42331  0.26519  0.44191     O
O      0.42395  0.15618  0.22978     O
H       0.4716   0.9545   0.8268     H
C      0.47762   0.5174   0.3321     C
C       0.4826  0.96022   0.3321     C
H       0.4829   0.5284   0.8268     H
O      0.48946  0.08924  0.94121     O
O      0.49168  0.40039  0.72919     O
O      0.50832  0.59961  0.22919     O
O      0.51054  0.91076  0.44121     O
H       0.5171   0.4716   0.3268     H
C       0.5174  0.03978   0.8321     C
C      0.52238   0.4826   0.8321     C
H       0.5284   0.0455   0.3268     H
O      0.57605  0.84382  0.72978     O
O      0.57669  0.73481  0.94191     O
O      0.59961  0.09129  0.72919     O
O      0.59978  0.51054  0.94121     O
H       0.6216   0.8041   0.3496     H
C      0.62682  0.81322   0.8347     C
Mg     0.66598  0.66726  0.08666    Mg
Mg     0.66726  0.00128  0.58666    Mg
C      0.70661  0.85122   0.3419     C
H       0.7122    0.854   0.8321     H
O      0.73223  0.57605  0.22978     O
O      0.73481  0.15812  0.44191     O
O      0.75562  0.82376  0.23118     O
O      0.75864  0.93463  0.44338     O
H       0.8041   0.1825   0.8496     H
C      0.81322   0.1864   0.3347     C
C       0.8136  0.62682   0.3347     C
H       0.8175   0.6216   0.8496     H
O      0.82376  0.06814  0.73118     O
O      0.82401  0.75864  0.94338     O
O      0.84188  0.57669  0.44191     O
O      0.84382  0.26777  0.22978     O
C      0.85122  0.14461   0.8419     C
H        0.854   0.1418   0.3321     H
C      0.85539  0.70661   0.8419     C
H       0.8582   0.7122   0.3321     H
O      0.90871  0.50832  0.72919     O
O      0.91076  0.40022  0.94121     O
O      0.93186  0.75562  0.73118     O
O      0.93463  0.17599  0.94338     O
H       0.9545   0.4829   0.3268     H
C      0.96022  0.47762   0.8321     C
Mg     0.99872  0.66598  0.58666    Mg
