data_I
_chemical_name_common  '/home/zhangsd/repos/MofS-CGCNN/ML/data/TSD/clean_cifs/NOFQOQ_clean'
_cell_length_a 17.10000
_cell_length_b 13.30300
_cell_length_c  7.29700
_cell_angle_alpha 90.00000
_cell_angle_beta  90.00000
_cell_angle_gamma 90.00000
_space_group_name_H-M_alt      'P 1'


loop_
_space_group_symop_operation_xyz
  'x, y, z' 

loop_
_atom_site_label
_atom_site_fract_x
_atom_site_fract_y
_atom_site_fract_z
_atom_site_type_symbol
C       0.0026    0.152    0.715     C
C       0.0026    0.348    0.215     C
H        0.005   0.2252   0.7107     H
H        0.005   0.2748   0.2107     H
H        0.026   0.1241   0.6027     H
H        0.026   0.3759   0.1027     H
C       0.0334   0.0358    0.993     C
C       0.0334   0.4642    0.493     C
C       0.0457   0.1152    0.874     C
C       0.0457   0.3848    0.374     C
H        0.052   0.6301   0.2231     H
H        0.052   0.8699   0.7231     H
H       0.0828   0.5103   0.8762     H
H       0.0828   0.9897   0.3762     H
H        0.095   0.5995   0.7317     H
H        0.095   0.9005   0.2317     H
C       0.0955   0.0368    0.119     C
C       0.0955   0.4632    0.619     C
C       0.1115   0.5316    0.767     C
C       0.1115   0.9684    0.267     C
N       0.1122   0.1588   0.9299     N
N       0.1122   0.3412   0.4299     N
H       0.1328   0.2116   0.8757     H
H       0.1328   0.2884   0.3757     H
N       0.1448   0.1136   0.0783     N
N       0.1448   0.3864   0.5783     N
H       0.1678   0.5315   0.7928     H
H       0.1678   0.9685   0.2928     H
Cu        0.25   0.1516   0.1679    Cu
I         0.25  0.15236  0.53478     I
I         0.25  0.34764  0.03478     I
Cu        0.25   0.3484   0.6679    Cu
H       0.3322   0.5315   0.7928     H
H       0.3322   0.9685   0.2928     H
N       0.3552   0.1136   0.0783     N
N       0.3552   0.3864   0.5783     N
H       0.3672   0.2116   0.8757     H
H       0.3672   0.2884   0.3757     H
N       0.3878   0.1588   0.9299     N
N       0.3878   0.3412   0.4299     N
C       0.3885   0.5316    0.767     C
C       0.3885   0.9684    0.267     C
C       0.4045   0.0368    0.119     C
C       0.4045   0.4632    0.619     C
H        0.405   0.5995   0.7317     H
H        0.405   0.9005   0.2317     H
H       0.4172   0.5103   0.8762     H
H       0.4172   0.9897   0.3762     H
H        0.448   0.6301   0.2231     H
H        0.448   0.8699   0.7231     H
C       0.4543   0.1152    0.874     C
C       0.4543   0.3848    0.374     C
C       0.4666   0.0358    0.993     C
C       0.4666   0.4642    0.493     C
H        0.474   0.1241   0.6027     H
H        0.474   0.3759   0.1027     H
H        0.495   0.2252   0.7107     H
H        0.495   0.2748   0.2107     H
C       0.4974    0.152    0.715     C
C       0.4974    0.348    0.215     C
C       0.5026    0.652    0.215     C
C       0.5026    0.848    0.715     C
H        0.505   0.7252   0.2107     H
H        0.505   0.7748   0.7107     H
H        0.526   0.6241   0.1027     H
H        0.526   0.8759   0.6027     H
C       0.5334   0.5358    0.493     C
C       0.5334   0.9642    0.993     C
C       0.5457   0.6152    0.374     C
C       0.5457   0.8848    0.874     C
H        0.552   0.1301   0.7231     H
H        0.552   0.3699   0.2231     H
H       0.5828   0.0103   0.3762     H
H       0.5828   0.4897   0.8762     H
H        0.595   0.0995   0.2317     H
H        0.595   0.4005   0.7317     H
C       0.5955   0.5368    0.619     C
C       0.5955   0.9632    0.119     C
C       0.6115   0.0316    0.267     C
C       0.6115   0.4684    0.767     C
N       0.6122   0.6588   0.4299     N
N       0.6122   0.8412   0.9299     N
H       0.6328   0.7116   0.3757     H
H       0.6328   0.7884   0.8757     H
N       0.6448   0.6136   0.5783     N
N       0.6448   0.8864   0.0783     N
H       0.6678   0.0315   0.2928     H
H       0.6678   0.4685   0.7928     H
Cu        0.75   0.6516   0.6679    Cu
I         0.75  0.65236  0.03478     I
I         0.75  0.84764  0.53478     I
Cu        0.75   0.8484   0.1679    Cu
H       0.8322   0.0315   0.2928     H
H       0.8322   0.4685   0.7928     H
N       0.8552   0.6136   0.5783     N
N       0.8552   0.8864   0.0783     N
H       0.8672   0.7116   0.3757     H
H       0.8672   0.7884   0.8757     H
N       0.8878   0.6588   0.4299     N
N       0.8878   0.8412   0.9299     N
C       0.8885   0.0316    0.267     C
C       0.8885   0.4684    0.767     C
C       0.9045   0.5368    0.619     C
C       0.9045   0.9632    0.119     C
H        0.905   0.0995   0.2317     H
H        0.905   0.4005   0.7317     H
H       0.9172   0.0103   0.3762     H
H       0.9172   0.4897   0.8762     H
H        0.948   0.1301   0.7231     H
H        0.948   0.3699   0.2231     H
C       0.9543   0.6152    0.374     C
C       0.9543   0.8848    0.874     C
C       0.9666   0.5358    0.493     C
C       0.9666   0.9642    0.993     C
H        0.974   0.6241   0.1027     H
H        0.974   0.8759   0.6027     H
H        0.995   0.7252   0.2107     H
H        0.995   0.7748   0.7107     H
C       0.9974    0.652    0.215     C
C       0.9974    0.848    0.715     C
