data_I
_chemical_name_common  '/home/zhangsd/repos/MofS-CGCNN/ML/data/TSD/clean_cifs/NOHKUS_clean'
_cell_length_a 15.30600
_cell_length_b  6.72600
_cell_length_c 14.38600
_cell_angle_alpha 90.00000
_cell_angle_beta  90.00000
_cell_angle_gamma 90.00000
_space_group_name_H-M_alt      'P 1'


loop_
_space_group_symop_operation_xyz
  'x, y, z' 

loop_
_atom_site_label
_atom_site_fract_x
_atom_site_fract_y
_atom_site_fract_z
_atom_site_type_symbol
C       0.0021     0.25   0.4918     C
C         0.02     0.75   0.6669     C
O       0.0229     0.75   0.8301     O
C       0.0271     0.25   0.2401     C
N       0.0335     0.25   0.4045     N
O       0.0495     0.25   0.6475     O
C       0.0712     0.25   0.5664     C
C       0.0857     0.75   0.4925     C
C       0.1065     0.75   0.6521     C
O       0.1084     0.25   0.2411     O
C       0.1291     0.75   0.3993     C
N        0.143     0.75   0.5631     N
O       0.1479   0.5869   0.3624     O
O       0.1479   0.9131   0.3624     O
O       0.1502     0.25   0.5371     O
C       0.1734     0.75    0.729     C
Eu     0.19846     0.25   0.3789    Eu
O       0.2056    0.585   0.7549     O
O       0.2056    0.915   0.7549     O
Na      0.2361     0.75    0.189    Na
Na      0.2639     0.25    0.689    Na
O       0.2944    0.085   0.2549     O
O       0.2944    0.415   0.2549     O
Eu     0.30154     0.75   0.8789    Eu
C       0.3266     0.25    0.229     C
O       0.3498     0.75   0.0371     O
O       0.3521   0.0869   0.8624     O
O       0.3521   0.4131   0.8624     O
N        0.357     0.25   0.0631     N
C       0.3709     0.25   0.8993     C
O       0.3916     0.75   0.7411     O
C       0.3935     0.25   0.1521     C
C       0.4143     0.25   0.9925     C
C       0.4288     0.75   0.0664     C
O       0.4505     0.75   0.1475     O
N       0.4665     0.75   0.9045     N
C       0.4729     0.75   0.7401     C
O       0.4771     0.25   0.3301     O
C         0.48     0.25   0.1669     C
C       0.4979     0.75   0.9918     C
C       0.5021     0.25   0.0082     C
C         0.52     0.75   0.8331     C
O       0.5229     0.75   0.6699     O
C       0.5271     0.25   0.2599     C
N       0.5335     0.25   0.0955     N
O       0.5495     0.25   0.8525     O
C       0.5712     0.25   0.9336     C
C       0.5857     0.75   0.0075     C
C       0.6065     0.75   0.8479     C
O       0.6084     0.25   0.2589     O
C       0.6291     0.75   0.1007     C
N        0.643     0.75   0.9369     N
O       0.6479   0.5869   0.1376     O
O       0.6479   0.9131   0.1376     O
O       0.6502     0.25   0.9629     O
C       0.6734     0.75    0.771     C
Eu     0.69846     0.25   0.1211    Eu
O       0.7056    0.585   0.7451     O
O       0.7056    0.915   0.7451     O
Na      0.7361     0.75    0.311    Na
Na      0.7639     0.25    0.811    Na
O       0.7944    0.085   0.2451     O
O       0.7944    0.415   0.2451     O
Eu     0.80154     0.75   0.6211    Eu
C       0.8266     0.25    0.271     C
O       0.8498     0.75   0.4629     O
O       0.8521   0.0869   0.6376     O
O       0.8521   0.4131   0.6376     O
N        0.857     0.25   0.4369     N
C       0.8709     0.25   0.6007     C
O       0.8916     0.75   0.7589     O
C       0.8935     0.25   0.3479     C
C       0.9143     0.25   0.5075     C
C       0.9288     0.75   0.4336     C
O       0.9505     0.75   0.3525     O
N       0.9665     0.75   0.5955     N
C       0.9729     0.75   0.7599     C
O       0.9771     0.25   0.1699     O
C         0.98     0.25   0.3331     C
C       0.9979     0.75   0.5082     C
