data_I
_chemical_name_common  '/home/zhangsd/repos/MofS-CGCNN/ML/data/TSD/clean_cifs/NOHLED_clean'
_cell_length_a 15.41400
_cell_length_b  6.71800
_cell_length_c 14.32200
_cell_angle_alpha 90.00000
_cell_angle_beta  90.00000
_cell_angle_gamma 90.00000
_space_group_name_H-M_alt      'P 1'


loop_
_space_group_symop_operation_xyz
  'x, y, z' 

loop_
_atom_site_label
_atom_site_fract_x
_atom_site_fract_y
_atom_site_fract_z
_atom_site_type_symbol
C       0.0029     0.25    0.493     C
C       0.0209     0.25   0.2404     C
C       0.0214     0.75   0.6651     C
O       0.0273     0.75   0.8286     O
N       0.0334     0.25   0.4052     N
O       0.0502     0.25   0.6502     O
C       0.0727     0.25   0.5693     C
C       0.0852     0.75   0.4903     C
O       0.1028     0.25   0.2402     O
C       0.1113     0.75   0.6481     C
C       0.1256     0.75    0.392     C
N       0.1425     0.75    0.562     N
O       0.1447   0.5868   0.3585     O
O       0.1447   0.9132   0.3585     O
O       0.1503     0.25   0.5378     O
H         0.17   0.6149   0.9665     H
H         0.17   0.8851   0.9665     H
C        0.178     0.75   0.7225     C
H       0.1909   0.0336   0.9048     H
H       0.1909   0.4664   0.9048     H
Ce     0.19666     0.25  0.37657    Ce
O       0.2045    0.522   0.9555     O
O       0.2045    0.978   0.9555     O
O       0.2069   0.5849   0.7522     O
O       0.2069   0.9151   0.7522     O
Na      0.2414     0.75   0.1909    Na
Na      0.2586     0.25   0.6909    Na
O       0.2931   0.0849   0.2522     O
O       0.2931   0.4151   0.2522     O
O       0.2955    0.022   0.4555     O
O       0.2955    0.478   0.4555     O
Ce     0.30334     0.75  0.87657    Ce
H       0.3091   0.5336   0.4048     H
H       0.3091   0.9664   0.4048     H
C        0.322     0.25   0.2225     C
H         0.33   0.1149   0.4665     H
H         0.33   0.3851   0.4665     H
O       0.3497     0.75   0.0378     O
O       0.3553   0.0868   0.8585     O
O       0.3553   0.4132   0.8585     O
N       0.3575     0.25    0.062     N
C       0.3744     0.25    0.892     C
C       0.3887     0.25   0.1481     C
O       0.3972     0.75   0.7402     O
C       0.4148     0.25   0.9903     C
C       0.4273     0.75   0.0693     C
O       0.4498     0.75   0.1502     O
N       0.4666     0.75   0.9052     N
O       0.4727     0.25   0.3286     O
C       0.4786     0.25   0.1651     C
C       0.4791     0.75   0.7404     C
C       0.4971     0.75    0.993     C
C       0.5029     0.25    0.007     C
C       0.5209     0.25   0.2596     C
C       0.5214     0.75   0.8349     C
O       0.5273     0.75   0.6714     O
N       0.5334     0.25   0.0948     N
O       0.5502     0.25   0.8498     O
C       0.5727     0.25   0.9307     C
C       0.5852     0.75   0.0097     C
O       0.6028     0.25   0.2598     O
C       0.6113     0.75   0.8519     C
C       0.6256     0.75    0.108     C
N       0.6425     0.75    0.938     N
O       0.6447   0.5868   0.1415     O
O       0.6447   0.9132   0.1415     O
O       0.6503     0.25   0.9622     O
H         0.67   0.6149   0.5335     H
H         0.67   0.8851   0.5335     H
C        0.678     0.75   0.7775     C
H       0.6909   0.0336   0.5952     H
H       0.6909   0.4664   0.5952     H
Ce     0.69666     0.25  0.12343    Ce
O       0.7045    0.522   0.5445     O
O       0.7045    0.978   0.5445     O
O       0.7069   0.5849   0.7478     O
O       0.7069   0.9151   0.7478     O
Na      0.7414     0.75   0.3091    Na
Na      0.7586     0.25   0.8091    Na
O       0.7931   0.0849   0.2478     O
O       0.7931   0.4151   0.2478     O
O       0.7955    0.022   0.0445     O
O       0.7955    0.478   0.0445     O
Ce     0.80334     0.75  0.62343    Ce
H       0.8091   0.5336   0.0952     H
H       0.8091   0.9664   0.0952     H
C        0.822     0.25   0.2775     C
H         0.83   0.1149   0.0335     H
H         0.83   0.3851   0.0335     H
O       0.8497     0.75   0.4622     O
O       0.8553   0.0868   0.6415     O
O       0.8553   0.4132   0.6415     O
N       0.8575     0.25    0.438     N
C       0.8744     0.25    0.608     C
C       0.8887     0.25   0.3519     C
O       0.8972     0.75   0.7598     O
C       0.9148     0.25   0.5097     C
C       0.9273     0.75   0.4307     C
O       0.9498     0.75   0.3498     O
N       0.9666     0.75   0.5948     N
O       0.9727     0.25   0.1714     O
C       0.9786     0.25   0.3349     C
C       0.9791     0.75   0.7596     C
C       0.9971     0.75    0.507     C
