data_I
_chemical_name_common  '/home/zhangsd/repos/MofS-CGCNN/ML/data/TSD/clean_cifs/NOHLAZ_clean'
_cell_length_a 15.56900
_cell_length_b  6.85330
_cell_length_c 14.39700
_cell_angle_alpha 90.00000
_cell_angle_beta  90.00000
_cell_angle_gamma 90.00000
_space_group_name_H-M_alt      'P 1'


loop_
_space_group_symop_operation_xyz
  'x, y, z' 

loop_
_atom_site_label
_atom_site_fract_x
_atom_site_fract_y
_atom_site_fract_z
_atom_site_type_symbol
C       0.0012     0.25   0.4934     C
C       0.0183     0.25   0.2418     C
C       0.0223     0.75   0.6635     C
O       0.0283     0.75   0.8265     O
N       0.0319     0.25   0.4066     N
O       0.0445     0.25   0.6501     O
C       0.0693     0.25    0.569     C
C       0.0874     0.75    0.491     C
O       0.0988     0.25   0.2409     O
C       0.1109     0.75   0.6474     C
C       0.1292     0.75    0.396     C
N       0.1422     0.75   0.5617     N
O        0.146     0.25   0.5409     O
O       0.1474   0.5893   0.3615     O
O       0.1474   0.9107   0.3615     O
C       0.1789     0.75   0.7225     C
Sm     0.19819     0.25  0.37857    Sm
O       0.2064    0.591   0.7497     O
O       0.2064    0.909   0.7497     O
Na      0.2405     0.75   0.1921    Na
Na      0.2595     0.25   0.6921    Na
O       0.2936    0.091   0.2497     O
O       0.2936    0.409   0.2497     O
Sm     0.30181     0.75  0.87857    Sm
C       0.3211     0.25   0.2225     C
O       0.3526   0.0893   0.8615     O
O       0.3526   0.4107   0.8615     O
O        0.354     0.75   0.0409     O
N       0.3578     0.25   0.0617     N
C       0.3708     0.25    0.896     C
C       0.3891     0.25   0.1474     C
O       0.4012     0.75   0.7409     O
C       0.4126     0.25    0.991     C
C       0.4307     0.75    0.069     C
O       0.4555     0.75   0.1501     O
N       0.4681     0.75   0.9066     N
O       0.4717     0.25   0.3265     O
C       0.4777     0.25   0.1635     C
C       0.4817     0.75   0.7418     C
C       0.4988     0.75   0.9934     C
C       0.5012     0.25   0.0066     C
C       0.5183     0.25   0.2582     C
C       0.5223     0.75   0.8365     C
O       0.5283     0.75   0.6735     O
N       0.5319     0.25   0.0934     N
O       0.5445     0.25   0.8499     O
C       0.5693     0.25    0.931     C
C       0.5874     0.75    0.009     C
O       0.5988     0.25   0.2591     O
C       0.6109     0.75   0.8526     C
C       0.6292     0.75    0.104     C
N       0.6422     0.75   0.9383     N
O        0.646     0.25   0.9591     O
O       0.6474   0.5893   0.1385     O
O       0.6474   0.9107   0.1385     O
C       0.6789     0.75   0.7775     C
Sm     0.69819     0.25  0.12143    Sm
O       0.7064    0.591   0.7503     O
O       0.7064    0.909   0.7503     O
Na      0.7405     0.75   0.3079    Na
Na      0.7595     0.25   0.8079    Na
O       0.7936    0.091   0.2503     O
O       0.7936    0.409   0.2503     O
Sm     0.80181     0.75  0.62143    Sm
C       0.8211     0.25   0.2775     C
O       0.8526   0.0893   0.6385     O
O       0.8526   0.4107   0.6385     O
O        0.854     0.75   0.4591     O
N       0.8578     0.25   0.4383     N
C       0.8708     0.25    0.604     C
C       0.8891     0.25   0.3526     C
O       0.9012     0.75   0.7591     O
C       0.9126     0.25    0.509     C
C       0.9307     0.75    0.431     C
O       0.9555     0.75   0.3499     O
N       0.9681     0.75   0.5934     N
O       0.9717     0.25   0.1735     O
C       0.9777     0.25   0.3365     C
C       0.9817     0.75   0.7582     C
C       0.9988     0.75   0.5066     C
