data_I
_chemical_name_common  '/home/zhangsd/repos/MofS-CGCNN/ML/data/TSD/clean_cifs/NUCREJ_clean'
_cell_length_a 11.32100
_cell_length_b 11.32100
_cell_length_c 19.87200
_cell_angle_alpha 90.00000
_cell_angle_beta  90.00000
_cell_angle_gamma 120.00000
_space_group_name_H-M_alt      'P 1'


loop_
_space_group_symop_operation_xyz
  'x, y, z' 

loop_
_atom_site_label
_atom_site_fract_x
_atom_site_fract_y
_atom_site_fract_z
_atom_site_type_symbol
Zn         0.0  0.62177  0.16667    Zn
H       0.0071   0.5322  0.99113     H
H       0.0445   0.7261   0.4283     H
C       0.0489   0.7375  0.91133     C
O       0.0524   0.3545  0.93253     O
N        0.083   0.3425   0.5763     N
C       0.0841   0.4701  0.91513     C
H       0.0869   0.1791   0.5317     H
H       0.0922   0.9131  0.86503     H
C       0.0945   0.5694  0.96863     C
O       0.1068   0.7799  0.10957     O
Zn     0.11015  0.40838  0.77826    Zn
O       0.1116   0.5169  0.85533     O
C       0.1247   0.8654  0.88973     C
N       0.1328   0.7035  0.94403     N
C       0.1346   0.2593   0.5564     C
O       0.1459   0.5675  0.14417     O
H         0.15   0.7203   0.5308     H
H       0.1575     0.71   0.7645     H
O        0.159   0.6223  0.25127     O
N       0.1608   0.5596     0.71     N
H        0.161   0.5777  0.00183     H
H       0.1625   0.3655  0.32777     H
C        0.168   0.6805   0.7224     C
H       0.1791   0.0869  0.13497     H
C         0.18   0.5555   0.6449     C
C       0.1867   0.4465     0.61     C
C       0.1923   0.7509   0.6657     C
C       0.1959   0.5747  0.20227     C
N       0.1985   0.6709   0.6147     N
H        0.203   0.8375   0.6611     H
H       0.2092    0.624   0.5228     H
O       0.2201   0.3269  0.77623     O
C       0.2241   0.7065   0.5451     C
C       0.2491   0.4414  0.33237     C
C       0.2593   0.1346  0.11027     C
N       0.2595    0.917  0.90963     N
C       0.2598   0.8133  0.94333     C
C       0.2625   0.3114    0.578     C
H       0.2739   0.3184  0.09497     H
H       0.2797   0.4297  0.19747     H
H         0.29   0.4475  0.43117     H
C       0.2935   0.5176  0.21177     C
N       0.2965   0.4293   0.6107     N
Zn     0.29823  0.88985  0.11159    Zn
O       0.3021   0.9476  0.26587     O
C       0.3114   0.2625  0.08867     C
H       0.3184   0.2739   0.5717     H
C       0.3195   0.4875  0.38907     C
O       0.3269   0.2201  0.89043     O
N       0.3291   0.5276  0.28137     N
N       0.3425    0.083  0.09037     N
O       0.3545   0.0524  0.73413     O
H       0.3655   0.1625   0.3389     H
C       0.3755     0.82  0.97823     C
H        0.376   0.5852  0.18947     H
O       0.3777   0.5367  0.91793     O
Zn     0.37823  0.37823  0.83333    Zn
C       0.3788   0.8041   0.5356     C
C        0.386   0.9159  0.24847     C
N       0.3988   0.8392  0.04333     N
O       0.4053   0.8884  0.18867     O
Zn     0.40838  0.11015  0.88841    Zn
H       0.4148   0.7908  0.85613     H
H       0.4167    0.839  0.33517     H
O       0.4216   0.8541   0.4775     O
H       0.4223   0.5833   0.6685     H
C       0.4253   0.6212  0.86893     C
N       0.4293   0.2965  0.05597     N
H       0.4297   0.2797   0.4692     H
C       0.4306   0.5251   0.6353     C
O       0.4325   0.5784  0.81083     O
N       0.4404   0.6012  0.37667     N
C       0.4414   0.2491   0.3343     C
C       0.4445   0.6245  0.31157     C
C       0.4465   0.1867  0.05667     C
H       0.4475     0.29   0.2355     H
O       0.4633    0.841   0.5846     O
H       0.4678   0.4749   0.6578     H
C       0.4701   0.0841  0.75153     C
N       0.4724   0.8015  0.94803     N
H       0.4749   0.4678  0.00887     H
C       0.4749   0.9055  0.30197     C
C       0.4824   0.7759  0.87843     C
O       0.4831   0.5947    0.522     O
C       0.4875   0.3195   0.2776     C
C       0.5125    0.832  0.05573     C
O       0.5169   0.1116  0.81133     O
C       0.5176   0.2935   0.4549     C
C       0.5251   0.4306  0.03137     C
H       0.5251   0.9929  0.32447     H
N       0.5276   0.3291   0.3853     N
C       0.5299    0.614   0.5818     C
H       0.5322   0.0071  0.67553     H
O       0.5367   0.3777  0.74873     O
H       0.5525   0.8425  0.09783     H
C       0.5535   0.7402  0.27667     C
C       0.5555     0.18  0.02177     C
C       0.5586   0.8077  0.99903     C
N       0.5596   0.1608  0.95667     N
O       0.5675   0.1459   0.5225     O
C       0.5694   0.0945  0.69803     C
H       0.5703     0.85  0.86413     H
N       0.5707   0.8672  0.27737     N
C       0.5747   0.1959   0.4644     C
H       0.5777    0.161  0.66483     H
O       0.5784   0.4325  0.85583     O
H       0.5833   0.4223  0.99817     H
H       0.5852    0.376   0.4772     H
Zn     0.59162  0.70177  0.44493    Zn
O       0.5947   0.4831  0.14467     O
N       0.6012   0.4404     0.29     N
C        0.614   0.5299  0.08487     C
C       0.6212   0.4253  0.79773     C
Zn     0.62177      0.0      0.5    Zn
O       0.6223    0.159   0.4154     O
H        0.624   0.2092  0.14387     H
C       0.6245   0.4445   0.3551     C
H       0.6345    0.797  0.99443     H
O       0.6455   0.6979   0.5992     O
N       0.6575   0.7405  0.24297     N
N       0.6709   0.1985  0.05197     N
O       0.6731   0.8932   0.4429     O
C       0.6805    0.168  0.94427     C
H       0.6816   0.9555  0.76163     H
C       0.6886   0.9511  0.24467     C
O       0.6979   0.6455  0.06747     O
Zn     0.70177  0.59162  0.22174    Zn
N       0.7035   0.1328  0.72263     N
C       0.7065   0.2241  0.12157     C
H         0.71   0.1575  0.90217     H
H       0.7203     0.15  0.13587     H
H       0.7261   0.0445  0.23837     H
C       0.7375   0.0489  0.75533     C
C       0.7402   0.5535     0.39     C
N       0.7405   0.6575   0.4237     N
C       0.7407   0.8753  0.22307     C
C       0.7509   0.1923  0.00097     C
C       0.7759   0.4824  0.78823     C
O       0.7799   0.1068   0.5571     O
H       0.7908   0.4148  0.81053     H
H        0.797   0.6345  0.67223     H
N       0.8015   0.4724  0.71863     N
C       0.8041   0.3788  0.13107     C
C       0.8077   0.5586  0.66763     C
C       0.8133   0.2598  0.72333     C
C         0.82   0.3755  0.68843     C
H       0.8209   0.9078  0.19837     H
C        0.832   0.5125  0.61093     C
H       0.8375    0.203  0.00557     H
H        0.839   0.4167   0.3315     H
N       0.8392   0.3988  0.62333     N
O        0.841   0.4633  0.08207     O
H       0.8425   0.5525  0.56883     H
H         0.85   0.5703  0.80253     H
O       0.8541   0.4216  0.18917     O
C       0.8654   0.1247  0.77693     C
N       0.8672   0.5707   0.3893     N
C       0.8753   0.7407   0.4436     C
O       0.8884   0.4053    0.478     O
Zn     0.88985  0.29823  0.55507    Zn
O       0.8932   0.6731  0.22377     O
C       0.9055   0.4749   0.3647     C
H       0.9078   0.8209   0.4683     H
H       0.9131   0.0922  0.80163     H
C       0.9159    0.386   0.4182     C
N        0.917   0.2595  0.75703     N
O       0.9476   0.3021   0.4008     O
C       0.9511   0.6886    0.422     C
H       0.9555   0.6816  0.90503     H
H       0.9929   0.5251   0.3422     H
