data_I
_chemical_name_common  '/home/zhangsd/repos/MofS-CGCNN/ML/data/TSD/clean_cifs/NUDMOQ_clean'
_cell_length_a 17.80740
_cell_length_b 13.11450
_cell_length_c 11.05140
_cell_angle_alpha 90.00000
_cell_angle_beta  103.84400
_cell_angle_gamma 90.00000
_space_group_name_H-M_alt      'P 1'


loop_
_space_group_symop_operation_xyz
  'x, y, z' 

loop_
_atom_site_label
_atom_site_fract_x
_atom_site_fract_y
_atom_site_fract_z
_atom_site_type_symbol
Mg         0.0  0.40498     0.25    Mg
Mg         0.0  0.59502     0.75    Mg
O      0.02126  0.41555   0.4462     O
O      0.02126  0.58445   0.9462     O
H        0.033    0.364    0.472     H
H        0.033    0.636    0.972     H
O      0.07715  0.48486  0.72229     O
O      0.07715  0.51514  0.22229     O
O      0.08389  0.29686    0.276     O
O      0.08389  0.70314    0.776     O
Mg     0.08662  0.46597  0.04347    Mg
Mg     0.08662  0.53403  0.54347    Mg
C      0.13005   0.4333   0.7921     C
C      0.13005   0.5667   0.2921     C
O      0.13585  0.41444  0.90432     O
O      0.13585  0.58556  0.40432     O
C       0.1386   0.2892   0.2228     C
C       0.1386   0.7108   0.7228     C
O      0.14843  0.34056   0.1324     O
O      0.14843  0.65944   0.6324     O
H        0.165    0.192    0.445     H
H        0.165    0.808    0.945     H
N      0.18677   0.4312   0.6155     N
N      0.18677   0.5688   0.1155     N
C      0.19094   0.3926   0.7303     C
C      0.19094   0.6074   0.2303     C
C      0.19919   0.2097   0.2762     C
C      0.19919   0.7903   0.7762     C
C      0.20181   0.1677   0.3927     C
C      0.20181   0.8323   0.8927     C
H        0.234     0.43    0.475     H
H        0.234     0.57    0.975     H
C      0.24046   0.4012   0.5565     C
C      0.24046   0.5988   0.0565     C
C      0.24621    0.322   0.7874     C
C      0.24621    0.678   0.2874     C
H        0.247    0.299    0.877     H
H        0.247    0.701    0.377     H
H        0.253    0.201    0.123     H
H        0.253    0.799    0.623     H
C      0.25379    0.178   0.2126     C
C      0.25379    0.822   0.7126     C
C      0.25954   0.0988   0.4435     C
C      0.25954   0.9012   0.9435     C
H        0.266     0.07    0.525     H
H        0.266     0.93    0.025     H
C      0.29819   0.3323   0.6073     C
C      0.29819   0.6677   0.1073     C
C      0.30081   0.2903   0.7238     C
C      0.30081   0.7097   0.2238     C
C      0.30906   0.1074   0.2697     C
C      0.30906   0.8926   0.7697     C
N      0.31323   0.0688   0.3845     N
N      0.31323   0.9312   0.8845     N
H        0.335    0.308    0.555     H
H        0.335    0.692    0.055     H
O      0.35157  0.15944   0.8676     O
O      0.35157  0.84056   0.3676     O
C       0.3614   0.2108   0.7772     C
C       0.3614   0.7892   0.2772     C
O      0.36415  0.08556  0.09568     O
O      0.36415  0.91444  0.59568     O
C      0.36995   0.0667   0.2079     C
C      0.36995   0.9333   0.7079     C
Mg     0.41338  0.03403  0.95653    Mg
Mg     0.41338  0.96597  0.45653    Mg
O      0.41611  0.20314    0.724     O
O      0.41611  0.79686    0.224     O
O      0.42285  0.01514  0.27771     O
O      0.42285  0.98486  0.77771     O
H        0.467    0.136    0.528     H
H        0.467    0.864    0.028     H
O      0.47874  0.08445   0.5538     O
O      0.47874  0.91555   0.0538     O
Mg         0.5  0.09502     0.75    Mg
Mg         0.5  0.90498     0.25    Mg
O      0.52126  0.08445   0.9462     O
O      0.52126  0.91555   0.4462     O
H        0.533    0.136    0.972     H
H        0.533    0.864    0.472     H
O      0.57715  0.01514  0.22229     O
O      0.57715  0.98486  0.72229     O
O      0.58389  0.20314    0.776     O
O      0.58389  0.79686    0.276     O
Mg     0.58662  0.03403  0.54347    Mg
Mg     0.58662  0.96597  0.04347    Mg
C      0.63005   0.0667   0.2921     C
C      0.63005   0.9333   0.7921     C
O      0.63585  0.08556  0.40432     O
O      0.63585  0.91444  0.90432     O
C       0.6386   0.2108   0.7228     C
C       0.6386   0.7892   0.2228     C
O      0.64843  0.15944   0.6324     O
O      0.64843  0.84056   0.1324     O
H        0.665    0.308    0.945     H
H        0.665    0.692    0.445     H
N      0.68677   0.0688   0.1155     N
N      0.68677   0.9312   0.6155     N
C      0.69094   0.1074   0.2303     C
C      0.69094   0.8926   0.7303     C
C      0.69919   0.2903   0.7762     C
C      0.69919   0.7097   0.2762     C
C      0.70181   0.3323   0.8927     C
C      0.70181   0.6677   0.3927     C
H        0.734     0.07    0.975     H
H        0.734     0.93    0.475     H
C      0.74046   0.0988   0.0565     C
C      0.74046   0.9012   0.5565     C
C      0.74621    0.178   0.2874     C
C      0.74621    0.822   0.7874     C
H        0.747    0.201    0.377     H
H        0.747    0.799    0.877     H
H        0.753    0.299    0.623     H
H        0.753    0.701    0.123     H
C      0.75379    0.322   0.7126     C
C      0.75379    0.678   0.2126     C
C      0.75954   0.4012   0.9435     C
C      0.75954   0.5988   0.4435     C
H        0.766     0.43    0.025     H
H        0.766     0.57    0.525     H
C      0.79819   0.1677   0.1073     C
C      0.79819   0.8323   0.6073     C
C      0.80081   0.2097   0.2238     C
C      0.80081   0.7903   0.7238     C
C      0.80906   0.3926   0.7697     C
C      0.80906   0.6074   0.2697     C
N      0.81323   0.4312   0.8845     N
N      0.81323   0.5688   0.3845     N
H        0.835    0.192    0.055     H
H        0.835    0.808    0.555     H
O      0.85157  0.34056   0.3676     O
O      0.85157  0.65944   0.8676     O
C       0.8614   0.2892   0.2772     C
C       0.8614   0.7108   0.7772     C
O      0.86415  0.41444  0.59568     O
O      0.86415  0.58556  0.09568     O
C      0.86995   0.4333   0.7079     C
C      0.86995   0.5667   0.2079     C
Mg     0.91338  0.46597  0.45653    Mg
Mg     0.91338  0.53403  0.95653    Mg
O      0.91611  0.29686    0.224     O
O      0.91611  0.70314    0.724     O
O      0.92285  0.48486  0.77771     O
O      0.92285  0.51514  0.27771     O
H        0.967    0.364    0.028     H
H        0.967    0.636    0.528     H
O      0.97874  0.41555   0.0538     O
O      0.97874  0.58445   0.5538     O
