data_I
_chemical_name_common  '/home/zhangsd/repos/MofS-CGCNN/ML/data/TSD/clean_cifs/NUDNEH_clean'
_cell_length_a 18.04880
_cell_length_b 12.75150
_cell_length_c 10.99780
_cell_angle_alpha 90.00000
_cell_angle_beta  103.13000
_cell_angle_gamma 90.00000
_space_group_name_H-M_alt      'P 1'


loop_
_space_group_symop_operation_xyz
  'x, y, z' 

loop_
_atom_site_label
_atom_site_fract_x
_atom_site_fract_y
_atom_site_fract_z
_atom_site_type_symbol
Mg         0.0  0.09826     0.75    Mg
Mg         0.0  0.90174     0.25    Mg
O       0.0212  0.08679  0.94627     O
O       0.0212  0.91321  0.44627     O
H       0.0376    0.145    0.972     H
H       0.0376    0.855    0.472     H
O      0.07652  0.01445  0.22054     O
O      0.07652  0.98555  0.72054     O
O      0.08299  0.20971  0.77613     O
O      0.08299  0.79029  0.27613     O
Mg     0.08501   0.0365  0.54126    Mg
Mg     0.08501   0.9635  0.04126    Mg
C      0.12824  0.06787    0.289     C
C      0.12824  0.93213    0.789     C
O      0.13326  0.08933  0.40084     O
O      0.13326  0.91067  0.90084     O
C      0.13675  0.21731   0.7225     C
C      0.13675  0.78269   0.2225     C
O      0.14537  0.16607  0.63017     O
O      0.14537  0.83393  0.13017     O
H       0.1638     0.32    0.941     H
H       0.1638     0.68    0.441     H
N      0.18565  0.06677  0.11203     N
N      0.18565  0.93323  0.61203     N
C      0.19032  0.10591   0.2276     C
C      0.19032  0.89409   0.7276     C
C      0.19825   0.2957   0.7775     C
C      0.19825   0.7043   0.2775     C
C      0.20164   0.3379   0.8952     C
C      0.20164   0.6621   0.3952     C
H       0.2322    0.066    0.966     H
H       0.2322    0.934    0.466     H
C      0.23999   0.0945   0.0533     C
C      0.23999   0.9055   0.5533     C
H       0.2445    0.194    0.364     H
H       0.2445    0.806    0.864     H
C      0.24655   0.1741   0.2859     C
C      0.24655   0.8259   0.7859     C
C      0.25345   0.3259   0.7141     C
C      0.25345   0.6741   0.2141     C
H       0.2555    0.306    0.636     H
H       0.2555    0.694    0.136     H
C      0.26001   0.4055   0.9467     C
C      0.26001   0.5945   0.4467     C
H       0.2678    0.434    0.034     H
H       0.2678    0.566    0.534     H
C      0.29836   0.1621   0.1048     C
C      0.29836   0.8379   0.6048     C
C      0.30175   0.2043   0.2225     C
C      0.30175   0.7957   0.7225     C
C      0.30968  0.39409   0.7724     C
C      0.30968  0.60591   0.2724     C
N      0.31435  0.43323  0.88797     N
N      0.31435  0.56677  0.38797     N
H       0.3362     0.18    0.059     H
H       0.3362     0.82    0.559     H
O      0.35463  0.33393  0.36983     O
O      0.35463  0.66607  0.86983     O
C      0.36325  0.28269   0.2775     C
C      0.36325  0.71731   0.7775     C
O      0.36674  0.41067  0.59916     O
O      0.36674  0.58933  0.09916     O
C      0.37176  0.43213    0.711     C
C      0.37176  0.56787    0.211     C
Mg     0.41499   0.4635  0.45874    Mg
Mg     0.41499   0.5365  0.95874    Mg
O      0.41701  0.29029  0.22387     O
O      0.41701  0.70971  0.72387     O
O      0.42348  0.48555  0.77946     O
O      0.42348  0.51445  0.27946     O
H       0.4624    0.355    0.028     H
H       0.4624    0.645    0.528     H
O       0.4788  0.41321  0.05373     O
O       0.4788  0.58679  0.55373     O
Mg         0.5  0.40174     0.25    Mg
Mg         0.5  0.59826     0.75    Mg
O       0.5212  0.41321  0.44627     O
O       0.5212  0.58679  0.94627     O
H       0.5376    0.355    0.472     H
H       0.5376    0.645    0.972     H
O      0.57652  0.48555  0.72054     O
O      0.57652  0.51445  0.22054     O
O      0.58299  0.29029  0.27613     O
O      0.58299  0.70971  0.77613     O
Mg     0.58501   0.4635  0.04126    Mg
Mg     0.58501   0.5365  0.54126    Mg
C      0.62824  0.43213    0.789     C
C      0.62824  0.56787    0.289     C
O      0.63326  0.41067  0.90084     O
O      0.63326  0.58933  0.40084     O
C      0.63675  0.28269   0.2225     C
C      0.63675  0.71731   0.7225     C
O      0.64537  0.33393  0.13017     O
O      0.64537  0.66607  0.63017     O
H       0.6638     0.18    0.441     H
H       0.6638     0.82    0.941     H
N      0.68565  0.43323  0.61203     N
N      0.68565  0.56677  0.11203     N
C      0.69032  0.39409   0.7276     C
C      0.69032  0.60591   0.2276     C
C      0.69825   0.2043   0.2775     C
C      0.69825   0.7957   0.7775     C
C      0.70164   0.1621   0.3952     C
C      0.70164   0.8379   0.8952     C
H       0.7322    0.434    0.466     H
H       0.7322    0.566    0.966     H
C      0.73999   0.4055   0.5533     C
C      0.73999   0.5945   0.0533     C
H       0.7445    0.306    0.864     H
H       0.7445    0.694    0.364     H
C      0.74655   0.3259   0.7859     C
C      0.74655   0.6741   0.2859     C
C      0.75345   0.1741   0.2141     C
C      0.75345   0.8259   0.7141     C
H       0.7555    0.194    0.136     H
H       0.7555    0.806    0.636     H
C      0.76001   0.0945   0.4467     C
C      0.76001   0.9055   0.9467     C
H       0.7678    0.066    0.534     H
H       0.7678    0.934    0.034     H
C      0.79836   0.3379   0.6048     C
C      0.79836   0.6621   0.1048     C
C      0.80175   0.2957   0.7225     C
C      0.80175   0.7043   0.2225     C
C      0.80968  0.10591   0.2724     C
C      0.80968  0.89409   0.7724     C
N      0.81435  0.06677  0.38797     N
N      0.81435  0.93323  0.88797     N
H       0.8362     0.32    0.559     H
H       0.8362     0.68    0.059     H
O      0.85463  0.16607  0.86983     O
O      0.85463  0.83393  0.36983     O
C      0.86325  0.21731   0.7775     C
C      0.86325  0.78269   0.2775     C
O      0.86674  0.08933  0.09916     O
O      0.86674  0.91067  0.59916     O
C      0.87176  0.06787    0.211     C
C      0.87176  0.93213    0.711     C
Mg     0.91499   0.0365  0.95874    Mg
Mg     0.91499   0.9635  0.45874    Mg
O      0.91701  0.20971  0.72387     O
O      0.91701  0.79029  0.22387     O
O      0.92348  0.01445  0.27946     O
O      0.92348  0.98555  0.77946     O
H       0.9624    0.145    0.528     H
H       0.9624    0.855    0.028     H
O       0.9788  0.08679  0.55373     O
O       0.9788  0.91321  0.05373     O
