data_I
_chemical_name_common  '/home/zhangsd/repos/MofS-CGCNN/ML/data/TSD/clean_cifs/NUHZAS_clean'
_cell_length_a 19.61900
_cell_length_b 15.51160
_cell_length_c 13.28620
_cell_angle_alpha 90.00000
_cell_angle_beta  94.34300
_cell_angle_gamma 90.00000
_space_group_name_H-M_alt      'P 1'


loop_
_space_group_symop_operation_xyz
  'x, y, z' 

loop_
_atom_site_label
_atom_site_fract_x
_atom_site_fract_y
_atom_site_fract_z
_atom_site_type_symbol
S          0.0   0.1729     0.75     S
S          0.0   0.8271     0.25     S
H       0.0032   0.2091   0.5435     H
H       0.0032   0.7909   0.0435     H
H        0.029   0.0688   0.1448     H
H        0.029   0.9312   0.6448     H
C       0.0373   0.2432   0.5754     C
C       0.0373   0.7568   0.0754     C
C       0.0375   0.0028   0.5208     C
C       0.0375   0.9972   0.0208     C
O       0.0465   0.1255   0.8191     O
O       0.0465   0.8745   0.3191     O
C       0.0484   0.2425   0.6773     C
C       0.0484   0.7575   0.1773     C
C       0.0592   0.0365   0.1093     C
C       0.0592   0.9635   0.6093     C
H       0.0701   0.2951   0.4495     H
H       0.0701   0.7049   0.9495     H
H       0.0712   0.0766   0.4109     H
H       0.0712   0.9234   0.9109     H
C       0.0773   0.2952   0.5195     C
C       0.0773   0.7048   0.0195     C
C       0.0841     0.05   0.4721     C
C       0.0841     0.95   0.9721     C
C       0.0977   0.2942   0.7257     C
C       0.0977   0.7058   0.2257     C
H       0.1043   0.2929   0.7957     H
H       0.1043   0.7071   0.2957     H
C       0.1269   0.0274   0.1455     C
C       0.1269   0.9726   0.6455     C
C       0.1276   0.3471   0.5647     C
C       0.1276   0.6529   0.0647     C
C       0.1379   0.3487   0.6709     C
C       0.1379   0.6513   0.1709     C
H       0.1413   0.0551   0.2054     H
H       0.1413   0.9449   0.7054     H
C       0.1497   0.0578   0.5138     C
C       0.1497   0.9422   0.0138     C
H       0.1664   0.1548   0.9662     H
H       0.1664   0.8452   0.4662     H
C        0.167   0.4065   0.5014     C
C        0.167   0.5935   0.0014     C
O       0.1694   0.4517   0.7929     O
O       0.1694   0.5483   0.2929     O
N       0.1721   0.0184   0.5995     N
N       0.1721   0.9816   0.0995     N
H       0.1731   0.0776   0.8245     H
H       0.1731   0.9224   0.3245     H
O       0.1748   0.4823   0.5236     O
O       0.1748   0.5177   0.0236     O
C       0.1797   0.2997   0.0846     C
C       0.1797   0.7003   0.5846     C
H       0.1801    0.092   0.4811     H
H       0.1801    0.908   0.9811     H
C       0.1802   0.3532   0.1692     C
C       0.1802   0.6468   0.6692     C
O       0.1884   0.3726   0.4225     O
O       0.1884   0.6274   0.9225     O
C       0.1906   0.4043   0.7242     C
C       0.1906   0.5957   0.2242     C
C       0.2033   0.1629   0.9274     C
C       0.2033   0.8371   0.4274     C
C       0.2086   0.1156   0.8427     C
C       0.2086   0.8844   0.3427     C
C       0.2115   0.3018   0.2116     C
C       0.2115   0.6982   0.7116     C
C       0.2149   0.2444   0.1296     C
C       0.2149   0.7556   0.6296     C
Zn     0.23184  0.45834  0.33942    Zn
Zn     0.23184  0.54166  0.83942    Zn
N       0.2417    0.381   0.2146     N
N       0.2417    0.619   0.7146     N
C       0.2481   0.2781   0.0445     C
C       0.2481   0.7219   0.5445     C
O        0.249   0.0964    0.298     O
O        0.249   0.9036    0.798     O
O        0.251   0.4036    0.702     O
O        0.251   0.5964    0.202     O
C       0.2519   0.2219   0.9555     C
C       0.2519   0.7781   0.4555     C
N       0.2583    0.119   0.7854     N
N       0.2583    0.881   0.2854     N
Zn     0.26816  0.04166  0.66058    Zn
Zn     0.26816  0.95834  0.16058    Zn
C       0.2851   0.2556   0.8704     C
C       0.2851   0.7444   0.3704     C
C       0.2885   0.1982   0.7884     C
C       0.2885   0.8018   0.2884     C
C       0.2914   0.3844   0.1573     C
C       0.2914   0.6156   0.6573     C
C       0.2967   0.3371   0.0726     C
C       0.2967   0.6629   0.5726     C
C       0.3094   0.0957   0.2758     C
C       0.3094   0.9043   0.7758     C
O       0.3116   0.1274   0.5775     O
O       0.3116   0.8726   0.0775     O
C       0.3198   0.1468   0.8308     C
C       0.3198   0.8532   0.3308     C
H       0.3199    0.408   0.5189     H
H       0.3199    0.592   0.0189     H
C       0.3203   0.2003   0.9154     C
C       0.3203   0.7997   0.4154     C
O       0.3252   0.0177   0.4764     O
O       0.3252   0.9823   0.9764     O
H       0.3269   0.4224   0.1755     H
H       0.3269   0.5776   0.6755     H
N       0.3279   0.4816   0.4005     N
N       0.3279   0.5184   0.9005     N
O       0.3306   0.0483   0.2071     O
O       0.3306   0.9517   0.7071     O
C        0.333   0.0935   0.4986     C
C        0.333   0.9065   0.9986     C
H       0.3336   0.3452   0.0338     H
H       0.3336   0.6548   0.5338     H
C       0.3503   0.4422   0.4862     C
C       0.3503   0.5578   0.9862     C
H       0.3587   0.4449   0.7946     H
H       0.3587   0.5551   0.2946     H
C       0.3621   0.1513   0.3291     C
C       0.3621   0.8487   0.8291     C
C       0.3724   0.1529   0.4353     C
C       0.3724   0.8471   0.9353     C
C       0.3731   0.4726   0.8545     C
C       0.3731   0.5274   0.3545     C
H       0.3957   0.2071   0.2043     H
H       0.3957   0.7929   0.7043     H
C       0.4023   0.2058   0.2743     C
C       0.4023   0.7942   0.7743     C
C       0.4159     0.45   0.5279     C
C       0.4159     0.55   0.0279     C
C       0.4227   0.2048   0.4805     C
C       0.4227   0.7952   0.9805     C
H       0.4288   0.4234   0.5891     H
H       0.4288   0.5766   0.0891     H
H       0.4299   0.2049   0.5505     H
H       0.4299   0.7951   0.0505     H
C       0.4408   0.4635   0.8907     C
C       0.4408   0.5365   0.3907     C
C       0.4516   0.2575   0.3227     C
C       0.4516   0.7425   0.8227     C
O       0.4535   0.3745   0.1809     O
O       0.4535   0.6255   0.6809     O
C       0.4625   0.4972   0.4792     C
C       0.4625   0.5028   0.9792     C
C       0.4627   0.2568   0.4246     C
C       0.4627   0.7432   0.9246     C
H        0.471   0.4312   0.8552     H
H        0.471   0.5688   0.3552     H
H       0.4968   0.2909   0.4565     H
H       0.4968   0.7091   0.9565     H
S          0.5   0.3271     0.25     S
S          0.5   0.6729     0.75     S
H       0.5032   0.2909   0.0435     H
H       0.5032   0.7091   0.5435     H
H        0.529   0.4312   0.6448     H
H        0.529   0.5688   0.1448     H
C       0.5373   0.2568   0.0754     C
C       0.5373   0.7432   0.5754     C
C       0.5375   0.4972   0.0208     C
C       0.5375   0.5028   0.5208     C
O       0.5465   0.3745   0.3191     O
O       0.5465   0.6255   0.8191     O
C       0.5484   0.2575   0.1773     C
C       0.5484   0.7425   0.6773     C
C       0.5592   0.4635   0.6093     C
C       0.5592   0.5365   0.1093     C
H       0.5701   0.2049   0.9495     H
H       0.5701   0.7951   0.4495     H
H       0.5712   0.4234   0.9109     H
H       0.5712   0.5766   0.4109     H
C       0.5773   0.2048   0.0195     C
C       0.5773   0.7952   0.5195     C
C       0.5841     0.45   0.9721     C
C       0.5841     0.55   0.4721     C
C       0.5977   0.2058   0.2257     C
C       0.5977   0.7942   0.7257     C
H       0.6043   0.2071   0.2957     H
H       0.6043   0.7929   0.7957     H
C       0.6269   0.4726   0.6455     C
C       0.6269   0.5274   0.1455     C
C       0.6276   0.1529   0.0647     C
C       0.6276   0.8471   0.5647     C
C       0.6379   0.1513   0.1709     C
C       0.6379   0.8487   0.6709     C
H       0.6413   0.4449   0.7054     H
H       0.6413   0.5551   0.2054     H
C       0.6497   0.4422   0.0138     C
C       0.6497   0.5578   0.5138     C
H       0.6664   0.3452   0.4662     H
H       0.6664   0.6548   0.9662     H
C        0.667   0.0935   0.0014     C
C        0.667   0.9065   0.5014     C
O       0.6694   0.0483   0.2929     O
O       0.6694   0.9517   0.7929     O
N       0.6721   0.4816   0.0995     N
N       0.6721   0.5184   0.5995     N
H       0.6731   0.4224   0.3245     H
H       0.6731   0.5776   0.8245     H
O       0.6748   0.0177   0.0236     O
O       0.6748   0.9823   0.5236     O
C       0.6797   0.2003   0.5846     C
C       0.6797   0.7997   0.0846     C
H       0.6801    0.408   0.9811     H
H       0.6801    0.592   0.4811     H
C       0.6802   0.1468   0.6692     C
C       0.6802   0.8532   0.1692     C
O       0.6884   0.1274   0.9225     O
O       0.6884   0.8726   0.4225     O
C       0.6906   0.0957   0.2242     C
C       0.6906   0.9043   0.7242     C
C       0.7033   0.3371   0.4274     C
C       0.7033   0.6629   0.9274     C
C       0.7086   0.3844   0.3427     C
C       0.7086   0.6156   0.8427     C
C       0.7115   0.1982   0.7116     C
C       0.7115   0.8018   0.2116     C
C       0.7149   0.2556   0.6296     C
C       0.7149   0.7444   0.1296     C
Zn     0.73184  0.04166  0.83942    Zn
Zn     0.73184  0.95834  0.33942    Zn
N       0.7417    0.119   0.7146     N
N       0.7417    0.881   0.2146     N
C       0.7481   0.2219   0.5445     C
C       0.7481   0.7781   0.0445     C
O        0.749   0.4036    0.798     O
O        0.749   0.5964    0.298     O
O        0.751   0.0964    0.202     O
O        0.751   0.9036    0.702     O
C       0.7519   0.2781   0.4555     C
C       0.7519   0.7219   0.9555     C
N       0.7583    0.381   0.2854     N
N       0.7583    0.619   0.7854     N
Zn     0.76816  0.45834  0.16058    Zn
Zn     0.76816  0.54166  0.66058    Zn
C       0.7851   0.2444   0.3704     C
C       0.7851   0.7556   0.8704     C
C       0.7885   0.3018   0.2884     C
C       0.7885   0.6982   0.7884     C
C       0.7914   0.1156   0.6573     C
C       0.7914   0.8844   0.1573     C
C       0.7967   0.1629   0.5726     C
C       0.7967   0.8371   0.0726     C
C       0.8094   0.4043   0.7758     C
C       0.8094   0.5957   0.2758     C
O       0.8116   0.3726   0.0775     O
O       0.8116   0.6274   0.5775     O
C       0.8198   0.3532   0.3308     C
C       0.8198   0.6468   0.8308     C
H       0.8199    0.092   0.0189     H
H       0.8199    0.908   0.5189     H
C       0.8203   0.2997   0.4154     C
C       0.8203   0.7003   0.9154     C
O       0.8252   0.4823   0.9764     O
O       0.8252   0.5177   0.4764     O
H       0.8269   0.0776   0.6755     H
H       0.8269   0.9224   0.1755     H
N       0.8279   0.0184   0.9005     N
N       0.8279   0.9816   0.4005     N
O       0.8306   0.4517   0.7071     O
O       0.8306   0.5483   0.2071     O
C        0.833   0.4065   0.9986     C
C        0.833   0.5935   0.4986     C
H       0.8336   0.1548   0.5338     H
H       0.8336   0.8452   0.0338     H
C       0.8503   0.0578   0.9862     C
C       0.8503   0.9422   0.4862     C
H       0.8587   0.0551   0.2946     H
H       0.8587   0.9449   0.7946     H
C       0.8621   0.3487   0.8291     C
C       0.8621   0.6513   0.3291     C
C       0.8724   0.3471   0.9353     C
C       0.8724   0.6529   0.4353     C
C       0.8731   0.0274   0.3545     C
C       0.8731   0.9726   0.8545     C
H       0.8957   0.2929   0.7043     H
H       0.8957   0.7071   0.2043     H
C       0.9023   0.2942   0.7743     C
C       0.9023   0.7058   0.2743     C
C       0.9159     0.05   0.0279     C
C       0.9159     0.95   0.5279     C
C       0.9227   0.2952   0.9805     C
C       0.9227   0.7048   0.4805     C
H       0.9288   0.0766   0.0891     H
H       0.9288   0.9234   0.5891     H
H       0.9299   0.2951   0.0505     H
H       0.9299   0.7049   0.5505     H
C       0.9408   0.0365   0.3907     C
C       0.9408   0.9635   0.8907     C
C       0.9516   0.2425   0.8227     C
C       0.9516   0.7575   0.3227     C
O       0.9535   0.1255   0.6809     O
O       0.9535   0.8745   0.1809     O
C       0.9625   0.0028   0.9792     C
C       0.9625   0.9972   0.4792     C
C       0.9627   0.2432   0.9246     C
C       0.9627   0.7568   0.4246     C
H        0.971   0.0688   0.3552     H
H        0.971   0.9312   0.8552     H
H       0.9968   0.2091   0.9565     H
H       0.9968   0.7909   0.4565     H
