data_I
_chemical_name_common  '/home/zhangsd/repos/MofS-CGCNN/ML/data/TSD/clean_cifs/NUNSOG_clean'
_cell_length_a 24.36500
_cell_length_b  8.61230
_cell_length_c 36.09200
_cell_angle_alpha 90.00000
_cell_angle_beta  90.00000
_cell_angle_gamma 90.00000
_space_group_name_H-M_alt      'P 1'


loop_
_space_group_symop_operation_xyz
  'x, y, z' 

loop_
_atom_site_label
_atom_site_fract_x
_atom_site_fract_y
_atom_site_fract_z
_atom_site_type_symbol
C       0.0057   0.0155  0.26227     C
C       0.0057   0.2345  0.98773     C
C       0.0057   0.5155  0.76227     C
C       0.0057   0.7345  0.48773     C
C      0.00578   0.0399  0.77263     C
C      0.00578   0.2101  0.47737     C
C      0.00578   0.5399  0.27263     C
C      0.00578   0.7101  0.97737     C
H        0.011   0.2717   0.6944     H
H        0.011   0.4783   0.0556     H
H        0.011   0.7717   0.1944     H
H        0.011   0.9783   0.5556     H
H       0.0205   0.3463    0.197     H
H       0.0205   0.4037    0.553     H
H       0.0205   0.8463    0.697     H
H       0.0205   0.9037    0.053     H
C       0.0292   0.3689  0.52932     C
C       0.0292   0.3811  0.22068     C
C       0.0292   0.8689  0.02932     C
C       0.0292   0.8811  0.72068     C
C       0.0323   0.3515  0.70673     C
C       0.0323   0.3985  0.04327     C
C       0.0323   0.8515  0.20673     C
C       0.0323   0.8985  0.54327     C
H       0.0374   0.2671   0.9756     H
H       0.0374   0.4829   0.7744     H
H       0.0374   0.7671   0.4756     H
H       0.0374   0.9829   0.2744     H
H       0.0425    0.266   0.0861     H
H       0.0425    0.484   0.6639     H
H       0.0425    0.766   0.5861     H
H       0.0425    0.984   0.1639     H
C       0.0534   0.2606  0.46113     C
C       0.0534   0.4894  0.28887     C
C       0.0534   0.7606  0.96113     C
C       0.0534   0.9894  0.78887     C
H       0.0568    0.301   0.7241     H
H       0.0568    0.449   0.0259     H
H       0.0568    0.801   0.2241     H
H       0.0568    0.949   0.5259     H
H       0.0635   0.0254   0.8122     H
H       0.0635   0.2246   0.4378     H
H       0.0635   0.5254   0.3122     H
H       0.0635   0.7246   0.9378     H
N      0.06494   0.3109  0.07107     N
N      0.06494   0.4391  0.67893     N
N      0.06494   0.8109  0.57107     N
N      0.06494   0.9391  0.17893     N
H       0.0707   0.2607   0.6427     H
H       0.0707   0.4893   0.1073     H
H       0.0707   0.7607   0.1427     H
H       0.0707   0.9893   0.6073     H
N      0.07501   0.3287  0.23671     N
N      0.07501   0.4213  0.51329     N
N      0.07501   0.8287  0.73671     N
N      0.07501   0.9213  0.01329     N
C       0.0862   0.3649  0.47964     C
C       0.0862   0.3851  0.27036     C
C       0.0862   0.8649  0.97964     C
C       0.0862   0.8851  0.77036     C
C       0.0957   0.3335  0.65431     C
C       0.0957   0.4165  0.09569     C
C       0.0957   0.8335  0.15431     C
C       0.0957   0.9165  0.59569     C
H       0.0985   0.2582   0.1369     H
H       0.0985   0.4918   0.6131     H
H       0.0985   0.7582   0.6369     H
H       0.0985   0.9918   0.1131     H
H       0.1181   0.3517    0.282     H
H       0.1181   0.3983    0.468     H
H       0.1181   0.8517    0.782     H
H       0.1181   0.8983    0.968     H
H       0.1222   0.2747   0.6687     H
H       0.1222   0.4753   0.0813     H
H       0.1222   0.7747   0.1687     H
H       0.1222   0.9753   0.5813     H
Ag       0.125    0.125  0.04263    Ag
Ag       0.125    0.125  0.20737    Ag
C        0.125   0.3241    0.125     C
C        0.125   0.4259    0.625     C
Ag       0.125    0.625  0.54263    Ag
Ag       0.125    0.625  0.70737    Ag
C        0.125   0.8241    0.625     C
C        0.125   0.9259    0.125     C
H       0.1278   0.2747   0.5813     H
H       0.1278   0.4753   0.1687     H
H       0.1278   0.7747   0.0813     H
H       0.1278   0.9753   0.6687     H
H       0.1319   0.3517    0.968     H
H       0.1319   0.3983    0.782     H
H       0.1319   0.8517    0.468     H
H       0.1319   0.8983    0.282     H
H       0.1515   0.2582   0.1131     H
H       0.1515   0.4918   0.6369     H
H       0.1515   0.7582   0.6131     H
H       0.1515   0.9918   0.1369     H
C       0.1543   0.3335  0.59569     C
C       0.1543   0.4165  0.15431     C
C       0.1543   0.8335  0.09569     C
C       0.1543   0.9165  0.65431     C
C       0.1638   0.3649  0.77036     C
C       0.1638   0.3851  0.97964     C
C       0.1638   0.8649  0.27036     C
C       0.1638   0.8851  0.47964     C
N      0.17499   0.3287  0.01329     N
N      0.17499   0.4213  0.73671     N
N      0.17499   0.8287  0.51329     N
N      0.17499   0.9213  0.23671     N
H       0.1793   0.2607   0.6073     H
H       0.1793   0.4893   0.1427     H
H       0.1793   0.7607   0.1073     H
H       0.1793   0.9893   0.6427     H
N      0.18506   0.3109  0.17893     N
N      0.18506   0.4391  0.57107     N
N      0.18506   0.8109  0.67893     N
N      0.18506   0.9391  0.07107     N
H       0.1865   0.0254   0.4378     H
H       0.1865   0.2246   0.8122     H
H       0.1865   0.5254   0.9378     H
H       0.1865   0.7246   0.3122     H
H       0.1932    0.301   0.5259     H
H       0.1932    0.449   0.2241     H
H       0.1932    0.801   0.0259     H
H       0.1932    0.949   0.7241     H
C       0.1966   0.2606  0.78887     C
C       0.1966   0.4894  0.96113     C
C       0.1966   0.7606  0.28887     C
C       0.1966   0.9894  0.46113     C
H       0.2075    0.266   0.1639     H
H       0.2075    0.484   0.5861     H
H       0.2075    0.766   0.6639     H
H       0.2075    0.984   0.0861     H
H       0.2126   0.2671   0.2744     H
H       0.2126   0.4829   0.4756     H
H       0.2126   0.7671   0.7744     H
H       0.2126   0.9829   0.9756     H
C       0.2177   0.3515  0.54327     C
C       0.2177   0.3985  0.20673     C
C       0.2177   0.8515  0.04327     C
C       0.2177   0.8985  0.70673     C
C       0.2208   0.3689  0.72068     C
C       0.2208   0.3811  0.02932     C
C       0.2208   0.8689  0.22068     C
C       0.2208   0.8811  0.52932     C
H       0.2295   0.3463    0.053     H
H       0.2295   0.4037    0.697     H
H       0.2295   0.8463    0.553     H
H       0.2295   0.9037    0.197     H
H        0.239   0.2717   0.5556     H
H        0.239   0.4783   0.1944     H
H        0.239   0.7717   0.0556     H
H        0.239   0.9783   0.6944     H
C      0.24422   0.0399  0.47737     C
C      0.24422   0.2101  0.77263     C
C      0.24422   0.5399  0.97737     C
C      0.24422   0.7101  0.27263     C
C       0.2443   0.0155  0.98773     C
C       0.2443   0.2345  0.26227     C
C       0.2443   0.5155  0.48773     C
C       0.2443   0.7345  0.76227     C
C       0.2557   0.2655  0.73773     C
C       0.2557   0.4845  0.01227     C
C       0.2557   0.7655  0.23773     C
C       0.2557   0.9845  0.51227     C
C      0.25578   0.2899  0.22737     C
C      0.25578   0.4601  0.52263     C
C      0.25578   0.7899  0.72737     C
C      0.25578   0.9601  0.02263     C
H        0.261   0.0217   0.8056     H
H        0.261   0.2283   0.4444     H
H        0.261   0.5217   0.3056     H
H        0.261   0.7283   0.9444     H
H       0.2705   0.0963    0.303     H
H       0.2705   0.1537    0.947     H
H       0.2705   0.5963    0.803     H
H       0.2705   0.6537    0.447     H
C       0.2792   0.1189  0.97068     C
C       0.2792   0.1311  0.27932     C
C       0.2792   0.6189  0.47068     C
C       0.2792   0.6311  0.77932     C
C       0.2823   0.1015  0.79327     C
C       0.2823   0.1485  0.45673     C
C       0.2823   0.6015  0.29327     C
C       0.2823   0.6485  0.95673     C
H       0.2874   0.0171   0.5244     H
H       0.2874   0.2329   0.7256     H
H       0.2874   0.5171   0.0244     H
H       0.2874   0.7329   0.2256     H
H       0.2925    0.016   0.4139     H
H       0.2925    0.234   0.8361     H
H       0.2925    0.516   0.9139     H
H       0.2925    0.734   0.3361     H
C       0.3034   0.0106  0.03887     C
C       0.3034   0.2394  0.21113     C
C       0.3034   0.5106  0.53887     C
C       0.3034   0.7394  0.71113     C
H       0.3068    0.051   0.7759     H
H       0.3068    0.199   0.4741     H
H       0.3068    0.551   0.2759     H
H       0.3068    0.699   0.9741     H
H       0.3135   0.2754   0.1878     H
H       0.3135   0.4746   0.5622     H
H       0.3135   0.7754   0.6878     H
H       0.3135   0.9746   0.0622     H
N      0.31494   0.0609  0.42893     N
N      0.31494   0.1891  0.82107     N
N      0.31494   0.5609  0.92893     N
N      0.31494   0.6891  0.32107     N
H       0.3207   0.0107   0.8573     H
H       0.3207   0.2393   0.3927     H
H       0.3207   0.5107   0.3573     H
H       0.3207   0.7393   0.8927     H
N      0.32501   0.0787  0.26329     N
N      0.32501   0.1713  0.98671     N
N      0.32501   0.5787  0.76329     N
N      0.32501   0.6713  0.48671     N
C       0.3362   0.1149  0.02036     C
C       0.3362   0.1351  0.22964     C
C       0.3362   0.6149  0.52036     C
C       0.3362   0.6351  0.72964     C
C       0.3457   0.0835  0.84569     C
C       0.3457   0.1665  0.40431     C
C       0.3457   0.5835  0.34569     C
C       0.3457   0.6665  0.90431     C
H       0.3485   0.0082   0.3631     H
H       0.3485   0.2418   0.8869     H
H       0.3485   0.5082   0.8631     H
H       0.3485   0.7418   0.3869     H
H       0.3681   0.1017    0.218     H
H       0.3681   0.1483    0.032     H
H       0.3681   0.6017    0.718     H
H       0.3681   0.6483    0.532     H
H       0.3722   0.0247   0.8313     H
H       0.3722   0.2253   0.4187     H
H       0.3722   0.5247   0.3313     H
H       0.3722   0.7253   0.9187     H
C        0.375   0.0741    0.375     C
C        0.375   0.1759    0.875     C
Ag       0.375    0.375  0.79263    Ag
Ag       0.375    0.375  0.95737    Ag
C        0.375   0.5741    0.875     C
C        0.375   0.6759    0.375     C
Ag       0.375    0.875  0.29263    Ag
Ag       0.375    0.875  0.45737    Ag
H       0.3778   0.0247   0.9187     H
H       0.3778   0.2253   0.3313     H
H       0.3778   0.5247   0.4187     H
H       0.3778   0.7253   0.8313     H
H       0.3819   0.1017    0.532     H
H       0.3819   0.1483    0.718     H
H       0.3819   0.6017    0.032     H
H       0.3819   0.6483    0.218     H
H       0.4015   0.0082   0.3869     H
H       0.4015   0.2418   0.8631     H
H       0.4015   0.5082   0.8869     H
H       0.4015   0.7418   0.3631     H
C       0.4043   0.0835  0.90431     C
C       0.4043   0.1665  0.34569     C
C       0.4043   0.5835  0.40431     C
C       0.4043   0.6665  0.84569     C
C       0.4138   0.1149  0.72964     C
C       0.4138   0.1351  0.52036     C
C       0.4138   0.6149  0.22964     C
C       0.4138   0.6351  0.02036     C
N      0.42499   0.0787  0.48671     N
N      0.42499   0.1713  0.76329     N
N      0.42499   0.5787  0.98671     N
N      0.42499   0.6713  0.26329     N
H       0.4293   0.0107   0.8927     H
H       0.4293   0.2393   0.3573     H
H       0.4293   0.5107   0.3927     H
H       0.4293   0.7393   0.8573     H
N      0.43506   0.0609  0.32107     N
N      0.43506   0.1891  0.92893     N
N      0.43506   0.5609  0.82107     N
N      0.43506   0.6891  0.42893     N
H       0.4365   0.2754   0.5622     H
H       0.4365   0.4746   0.1878     H
H       0.4365   0.7754   0.0622     H
H       0.4365   0.9746   0.6878     H
H       0.4432    0.051   0.9741     H
H       0.4432    0.199   0.2759     H
H       0.4432    0.551   0.4741     H
H       0.4432    0.699   0.7759     H
C       0.4466   0.0106  0.71113     C
C       0.4466   0.2394  0.53887     C
C       0.4466   0.5106  0.21113     C
C       0.4466   0.7394  0.03887     C
H       0.4575    0.016   0.3361     H
H       0.4575    0.234   0.9139     H
H       0.4575    0.516   0.8361     H
H       0.4575    0.734   0.4139     H
H       0.4626   0.0171   0.2256     H
H       0.4626   0.2329   0.0244     H
H       0.4626   0.5171   0.7256     H
H       0.4626   0.7329   0.5244     H
C       0.4677   0.1015  0.95673     C
C       0.4677   0.1485  0.29327     C
C       0.4677   0.6015  0.45673     C
C       0.4677   0.6485  0.79327     C
C       0.4708   0.1189  0.77932     C
C       0.4708   0.1311  0.47068     C
C       0.4708   0.6189  0.27932     C
C       0.4708   0.6311  0.97068     C
H       0.4795   0.0963    0.447     H
H       0.4795   0.1537    0.803     H
H       0.4795   0.5963    0.947     H
H       0.4795   0.6537    0.303     H
H        0.489   0.0217   0.9444     H
H        0.489   0.2283   0.3056     H
H        0.489   0.5217   0.4444     H
H        0.489   0.7283   0.8056     H
C      0.49422   0.2899  0.52263     C
C      0.49422   0.4601  0.22737     C
C      0.49422   0.7899  0.02263     C
C      0.49422   0.9601  0.72737     C
C       0.4943   0.2655  0.01227     C
C       0.4943   0.4845  0.73773     C
C       0.4943   0.7655  0.51227     C
C       0.4943   0.9845  0.23773     C
C       0.5057   0.0155  0.76227     C
C       0.5057   0.2345  0.48773     C
C       0.5057   0.5155  0.26227     C
C       0.5057   0.7345  0.98773     C
C      0.50578   0.0399  0.27263     C
C      0.50578   0.2101  0.97737     C
C      0.50578   0.5399  0.77263     C
C      0.50578   0.7101  0.47737     C
H        0.511   0.2717   0.1944     H
H        0.511   0.4783   0.5556     H
H        0.511   0.7717   0.6944     H
H        0.511   0.9783   0.0556     H
H       0.5205   0.3463    0.697     H
H       0.5205   0.4037    0.053     H
H       0.5205   0.8463    0.197     H
H       0.5205   0.9037    0.553     H
C       0.5292   0.3689  0.02932     C
C       0.5292   0.3811  0.72068     C
C       0.5292   0.8689  0.52932     C
C       0.5292   0.8811  0.22068     C
C       0.5323   0.3515  0.20673     C
C       0.5323   0.3985  0.54327     C
C       0.5323   0.8515  0.70673     C
C       0.5323   0.8985  0.04327     C
H       0.5374   0.2671   0.4756     H
H       0.5374   0.4829   0.2744     H
H       0.5374   0.7671   0.9756     H
H       0.5374   0.9829   0.7744     H
H       0.5425    0.266   0.5861     H
H       0.5425    0.484   0.1639     H
H       0.5425    0.766   0.0861     H
H       0.5425    0.984   0.6639     H
C       0.5534   0.2606  0.96113     C
C       0.5534   0.4894  0.78887     C
C       0.5534   0.7606  0.46113     C
C       0.5534   0.9894  0.28887     C
H       0.5568    0.301   0.2241     H
H       0.5568    0.449   0.5259     H
H       0.5568    0.801   0.7241     H
H       0.5568    0.949   0.0259     H
H       0.5635   0.0254   0.3122     H
H       0.5635   0.2246   0.9378     H
H       0.5635   0.5254   0.8122     H
H       0.5635   0.7246   0.4378     H
N      0.56494   0.3109  0.57107     N
N      0.56494   0.4391  0.17893     N
N      0.56494   0.8109  0.07107     N
N      0.56494   0.9391  0.67893     N
H       0.5707   0.2607   0.1427     H
H       0.5707   0.4893   0.6073     H
H       0.5707   0.7607   0.6427     H
H       0.5707   0.9893   0.1073     H
N      0.57501   0.3287  0.73671     N
N      0.57501   0.4213  0.01329     N
N      0.57501   0.8287  0.23671     N
N      0.57501   0.9213  0.51329     N
C       0.5862   0.3649  0.97964     C
C       0.5862   0.3851  0.77036     C
C       0.5862   0.8649  0.47964     C
C       0.5862   0.8851  0.27036     C
C       0.5957   0.3335  0.15431     C
C       0.5957   0.4165  0.59569     C
C       0.5957   0.8335  0.65431     C
C       0.5957   0.9165  0.09569     C
H       0.5985   0.2582   0.6369     H
H       0.5985   0.4918   0.1131     H
H       0.5985   0.7582   0.1369     H
H       0.5985   0.9918   0.6131     H
H       0.6181   0.3517    0.782     H
H       0.6181   0.3983    0.968     H
H       0.6181   0.8517    0.282     H
H       0.6181   0.8983    0.468     H
H       0.6222   0.2747   0.1687     H
H       0.6222   0.4753   0.5813     H
H       0.6222   0.7747   0.6687     H
H       0.6222   0.9753   0.0813     H
Ag       0.625    0.125  0.54263    Ag
Ag       0.625    0.125  0.70737    Ag
C        0.625   0.3241    0.625     C
C        0.625   0.4259    0.125     C
Ag       0.625    0.625  0.04263    Ag
Ag       0.625    0.625  0.20737    Ag
C        0.625   0.8241    0.125     C
C        0.625   0.9259    0.625     C
H       0.6278   0.2747   0.0813     H
H       0.6278   0.4753   0.6687     H
H       0.6278   0.7747   0.5813     H
H       0.6278   0.9753   0.1687     H
H       0.6319   0.3517    0.468     H
H       0.6319   0.3983    0.282     H
H       0.6319   0.8517    0.968     H
H       0.6319   0.8983    0.782     H
H       0.6515   0.2582   0.6131     H
H       0.6515   0.4918   0.1369     H
H       0.6515   0.7582   0.1131     H
H       0.6515   0.9918   0.6369     H
C       0.6543   0.3335  0.09569     C
C       0.6543   0.4165  0.65431     C
C       0.6543   0.8335  0.59569     C
C       0.6543   0.9165  0.15431     C
C       0.6638   0.3649  0.27036     C
C       0.6638   0.3851  0.47964     C
C       0.6638   0.8649  0.77036     C
C       0.6638   0.8851  0.97964     C
N      0.67499   0.3287  0.51329     N
N      0.67499   0.4213  0.23671     N
N      0.67499   0.8287  0.01329     N
N      0.67499   0.9213  0.73671     N
H       0.6793   0.2607   0.1073     H
H       0.6793   0.4893   0.6427     H
H       0.6793   0.7607   0.6073     H
H       0.6793   0.9893   0.1427     H
N      0.68506   0.3109  0.67893     N
N      0.68506   0.4391  0.07107     N
N      0.68506   0.8109  0.17893     N
N      0.68506   0.9391  0.57107     N
H       0.6865   0.0254   0.9378     H
H       0.6865   0.2246   0.3122     H
H       0.6865   0.5254   0.4378     H
H       0.6865   0.7246   0.8122     H
H       0.6932    0.301   0.0259     H
H       0.6932    0.449   0.7241     H
H       0.6932    0.801   0.5259     H
H       0.6932    0.949   0.2241     H
C       0.6966   0.2606  0.28887     C
C       0.6966   0.4894  0.46113     C
C       0.6966   0.7606  0.78887     C
C       0.6966   0.9894  0.96113     C
H       0.7075    0.266   0.6639     H
H       0.7075    0.484   0.0861     H
H       0.7075    0.766   0.1639     H
H       0.7075    0.984   0.5861     H
H       0.7126   0.2671   0.7744     H
H       0.7126   0.4829   0.9756     H
H       0.7126   0.7671   0.2744     H
H       0.7126   0.9829   0.4756     H
C       0.7177   0.3515  0.04327     C
C       0.7177   0.3985  0.70673     C
C       0.7177   0.8515  0.54327     C
C       0.7177   0.8985  0.20673     C
C       0.7208   0.3689  0.22068     C
C       0.7208   0.3811  0.52932     C
C       0.7208   0.8689  0.72068     C
C       0.7208   0.8811  0.02932     C
H       0.7295   0.3463    0.553     H
H       0.7295   0.4037    0.197     H
H       0.7295   0.8463    0.053     H
H       0.7295   0.9037    0.697     H
H        0.739   0.2717   0.0556     H
H        0.739   0.4783   0.6944     H
H        0.739   0.7717   0.5556     H
H        0.739   0.9783   0.1944     H
C      0.74422   0.0399  0.97737     C
C      0.74422   0.2101  0.27263     C
C      0.74422   0.5399  0.47737     C
C      0.74422   0.7101  0.77263     C
C       0.7443   0.0155  0.48773     C
C       0.7443   0.2345  0.76227     C
C       0.7443   0.5155  0.98773     C
C       0.7443   0.7345  0.26227     C
C       0.7557   0.2655  0.23773     C
C       0.7557   0.4845  0.51227     C
C       0.7557   0.7655  0.73773     C
C       0.7557   0.9845  0.01227     C
C      0.75578   0.2899  0.72737     C
C      0.75578   0.4601  0.02263     C
C      0.75578   0.7899  0.22737     C
C      0.75578   0.9601  0.52263     C
H        0.761   0.0217   0.3056     H
H        0.761   0.2283   0.9444     H
H        0.761   0.5217   0.8056     H
H        0.761   0.7283   0.4444     H
H       0.7705   0.0963    0.803     H
H       0.7705   0.1537    0.447     H
H       0.7705   0.5963    0.303     H
H       0.7705   0.6537    0.947     H
C       0.7792   0.1189  0.47068     C
C       0.7792   0.1311  0.77932     C
C       0.7792   0.6189  0.97068     C
C       0.7792   0.6311  0.27932     C
C       0.7823   0.1015  0.29327     C
C       0.7823   0.1485  0.95673     C
C       0.7823   0.6015  0.79327     C
C       0.7823   0.6485  0.45673     C
H       0.7874   0.0171   0.0244     H
H       0.7874   0.2329   0.2256     H
H       0.7874   0.5171   0.5244     H
H       0.7874   0.7329   0.7256     H
H       0.7925    0.016   0.9139     H
H       0.7925    0.234   0.3361     H
H       0.7925    0.516   0.4139     H
H       0.7925    0.734   0.8361     H
C       0.8034   0.0106  0.53887     C
C       0.8034   0.2394  0.71113     C
C       0.8034   0.5106  0.03887     C
C       0.8034   0.7394  0.21113     C
H       0.8068    0.051   0.2759     H
H       0.8068    0.199   0.9741     H
H       0.8068    0.551   0.7759     H
H       0.8068    0.699   0.4741     H
H       0.8135   0.2754   0.6878     H
H       0.8135   0.4746   0.0622     H
H       0.8135   0.7754   0.1878     H
H       0.8135   0.9746   0.5622     H
N      0.81494   0.0609  0.92893     N
N      0.81494   0.1891  0.32107     N
N      0.81494   0.5609  0.42893     N
N      0.81494   0.6891  0.82107     N
H       0.8207   0.0107   0.3573     H
H       0.8207   0.2393   0.8927     H
H       0.8207   0.5107   0.8573     H
H       0.8207   0.7393   0.3927     H
N      0.82501   0.0787  0.76329     N
N      0.82501   0.1713  0.48671     N
N      0.82501   0.5787  0.26329     N
N      0.82501   0.6713  0.98671     N
C       0.8362   0.1149  0.52036     C
C       0.8362   0.1351  0.72964     C
C       0.8362   0.6149  0.02036     C
C       0.8362   0.6351  0.22964     C
C       0.8457   0.0835  0.34569     C
C       0.8457   0.1665  0.90431     C
C       0.8457   0.5835  0.84569     C
C       0.8457   0.6665  0.40431     C
H       0.8485   0.0082   0.8631     H
H       0.8485   0.2418   0.3869     H
H       0.8485   0.5082   0.3631     H
H       0.8485   0.7418   0.8869     H
H       0.8681   0.1017    0.718     H
H       0.8681   0.1483    0.532     H
H       0.8681   0.6017    0.218     H
H       0.8681   0.6483    0.032     H
H       0.8722   0.0247   0.3313     H
H       0.8722   0.2253   0.9187     H
H       0.8722   0.5247   0.8313     H
H       0.8722   0.7253   0.4187     H
C        0.875   0.0741    0.875     C
C        0.875   0.1759    0.375     C
Ag       0.875    0.375  0.29263    Ag
Ag       0.875    0.375  0.45737    Ag
C        0.875   0.5741    0.375     C
C        0.875   0.6759    0.875     C
Ag       0.875    0.875  0.79263    Ag
Ag       0.875    0.875  0.95737    Ag
H       0.8778   0.0247   0.4187     H
H       0.8778   0.2253   0.8313     H
H       0.8778   0.5247   0.9187     H
H       0.8778   0.7253   0.3313     H
H       0.8819   0.1017    0.032     H
H       0.8819   0.1483    0.218     H
H       0.8819   0.6017    0.532     H
H       0.8819   0.6483    0.718     H
H       0.9015   0.0082   0.8869     H
H       0.9015   0.2418   0.3631     H
H       0.9015   0.5082   0.3869     H
H       0.9015   0.7418   0.8631     H
C       0.9043   0.0835  0.40431     C
C       0.9043   0.1665  0.84569     C
C       0.9043   0.5835  0.90431     C
C       0.9043   0.6665  0.34569     C
C       0.9138   0.1149  0.22964     C
C       0.9138   0.1351  0.02036     C
C       0.9138   0.6149  0.72964     C
C       0.9138   0.6351  0.52036     C
N      0.92499   0.0787  0.98671     N
N      0.92499   0.1713  0.26329     N
N      0.92499   0.5787  0.48671     N
N      0.92499   0.6713  0.76329     N
H       0.9293   0.0107   0.3927     H
H       0.9293   0.2393   0.8573     H
H       0.9293   0.5107   0.8927     H
H       0.9293   0.7393   0.3573     H
N      0.93506   0.0609  0.82107     N
N      0.93506   0.1891  0.42893     N
N      0.93506   0.5609  0.32107     N
N      0.93506   0.6891  0.92893     N
H       0.9365   0.2754   0.0622     H
H       0.9365   0.4746   0.6878     H
H       0.9365   0.7754   0.5622     H
H       0.9365   0.9746   0.1878     H
H       0.9432    0.051   0.4741     H
H       0.9432    0.199   0.7759     H
H       0.9432    0.551   0.9741     H
H       0.9432    0.699   0.2759     H
C       0.9466   0.0106  0.21113     C
C       0.9466   0.2394  0.03887     C
C       0.9466   0.5106  0.71113     C
C       0.9466   0.7394  0.53887     C
H       0.9575    0.016   0.8361     H
H       0.9575    0.234   0.4139     H
H       0.9575    0.516   0.3361     H
H       0.9575    0.734   0.9139     H
H       0.9626   0.0171   0.7256     H
H       0.9626   0.2329   0.5244     H
H       0.9626   0.5171   0.2256     H
H       0.9626   0.7329   0.0244     H
C       0.9677   0.1015  0.45673     C
C       0.9677   0.1485  0.79327     C
C       0.9677   0.6015  0.95673     C
C       0.9677   0.6485  0.29327     C
C       0.9708   0.1189  0.27932     C
C       0.9708   0.1311  0.97068     C
C       0.9708   0.6189  0.77932     C
C       0.9708   0.6311  0.47068     C
H       0.9795   0.0963    0.947     H
H       0.9795   0.1537    0.303     H
H       0.9795   0.5963    0.447     H
H       0.9795   0.6537    0.803     H
H        0.989   0.0217   0.4444     H
H        0.989   0.2283   0.8056     H
H        0.989   0.5217   0.9444     H
H        0.989   0.7283   0.3056     H
C      0.99422   0.2899  0.02263     C
C      0.99422   0.4601  0.72737     C
C      0.99422   0.7899  0.52263     C
C      0.99422   0.9601  0.22737     C
C       0.9943   0.2655  0.51227     C
C       0.9943   0.4845  0.23773     C
C       0.9943   0.7655  0.01227     C
C       0.9943   0.9845  0.73773     C
