data_I
_chemical_name_common  '/home/zhangsd/repos/MofS-CGCNN/ML/data/TSD/clean_cifs/NUNSIA_clean'
_cell_length_a  8.60680
_cell_length_b 24.65340
_cell_length_c 35.74040
_cell_angle_alpha 90.00000
_cell_angle_beta  90.00000
_cell_angle_gamma 90.00000
_space_group_name_H-M_alt      'P 1'


loop_
_space_group_symop_operation_xyz
  'x, y, z' 

loop_
_atom_site_label
_atom_site_fract_x
_atom_site_fract_y
_atom_site_fract_z
_atom_site_type_symbol
H       0.0061   0.3489   0.8625     H
H       0.0061   0.4011   0.8875     H
H       0.0061   0.8489   0.3625     H
H       0.0061   0.9011   0.3875     H
H       0.0063   0.2924   0.9143     H
H       0.0063   0.4576   0.8357     H
H       0.0063   0.7924   0.4143     H
H       0.0063   0.9576   0.3357     H
C       0.0083   0.3044   0.5399     C
C       0.0083   0.4456   0.2101     C
C       0.0083   0.8044   0.0399     C
C       0.0083   0.9456   0.7101     C
H       0.0089   0.3205   0.3572     H
H       0.0089   0.4295   0.3928     H
H       0.0089   0.8205   0.8572     H
H       0.0089   0.9295   0.8928     H
H       0.0148   0.2852   0.0239     H
H       0.0148   0.4648   0.7261     H
H       0.0148   0.7852   0.5239     H
H       0.0148   0.9648   0.2261     H
C       0.0171    0.004   0.7614     C
C       0.0171    0.246   0.4886     C
C       0.0171    0.504   0.2614     C
C       0.0171    0.746   0.9886     C
H       0.0229   0.3709   0.3305     H
H       0.0229   0.3791   0.4195     H
H       0.0229   0.8709   0.8305     H
H       0.0229   0.8791   0.9195     H
H        0.024   0.2594   0.3074     H
H        0.024   0.4906   0.4426     H
H        0.024   0.7594   0.8074     H
H        0.024   0.9906   0.9426     H
H       0.0289   0.0638   0.3135     H
H       0.0289   0.1862   0.9365     H
H       0.0289   0.5638   0.8135     H
H       0.0289   0.6862   0.4365     H
C       0.0394   0.0074   0.2734     C
C       0.0394   0.2426   0.9766     C
C       0.0394   0.5074   0.7734     C
C       0.0394   0.7426   0.4766     C
H       0.0483   0.3036   0.2763     H
H       0.0483   0.4464   0.4737     H
H       0.0483   0.8036   0.7763     H
H       0.0483   0.9464   0.9737     H
N       0.0593   0.3145  0.92883     N
N       0.0593   0.4355  0.82117     N
N       0.0593   0.8145  0.42883     N
N       0.0593   0.9355  0.32117     N
C       0.0727    0.375    0.875     C
C       0.0727    0.875    0.375     C
N       0.0774   0.3275   0.7615     N
N       0.0774   0.4225   0.9885     N
N       0.0774   0.8275   0.2615     N
N       0.0774   0.9225   0.4885     N
C       0.0815   0.3451   0.3453     C
C       0.0815   0.4049   0.4047     C
C       0.0815   0.8451   0.8453     C
C       0.0815   0.9049   0.9047     C
H       0.0896   0.2726   0.8017     H
H       0.0896   0.4774   0.9483     H
H       0.0896   0.7726   0.3017     H
H       0.0896   0.9774   0.4483     H
C       0.1015   0.2804   0.2941     C
C       0.1015   0.4696   0.4559     C
C       0.1015   0.7804   0.7941     C
C       0.1015   0.9696   0.9559     C
H       0.1107   0.3697   0.7163     H
H       0.1107   0.3803   0.0337     H
H       0.1107   0.8697   0.2163     H
H       0.1107   0.8803   0.5337     H
C       0.1108   0.3377   0.5218     C
C       0.1108   0.4123   0.2282     C
C       0.1108   0.8377   0.0218     C
C       0.1108   0.9123   0.7282     C
C       0.1225   0.2812   0.4719     C
C       0.1225   0.4688   0.2781     C
C       0.1225   0.7812   0.9719     C
C       0.1225   0.9688   0.7781     C
Ag       0.125    0.125  0.54155    Ag
Ag       0.125    0.125  0.70845    Ag
Ag       0.125    0.625  0.04155    Ag
Ag       0.125    0.625  0.20845    Ag
C       0.1275   0.2812   0.7781     C
C       0.1275   0.4688   0.9719     C
C       0.1275   0.7812   0.2781     C
C       0.1275   0.9688   0.4719     C
C       0.1392   0.3377   0.7282     C
C       0.1392   0.4123   0.0218     C
C       0.1392   0.8377   0.2282     C
C       0.1392   0.9123   0.5218     C
H       0.1393   0.3697   0.5337     H
H       0.1393   0.3803   0.2163     H
H       0.1393   0.8697   0.0337     H
H       0.1393   0.8803   0.7163     H
C       0.1485   0.2804   0.9559     C
C       0.1485   0.4696   0.7941     C
C       0.1485   0.7804   0.4559     C
C       0.1485   0.9696   0.2941     C
H       0.1604   0.2726   0.4483     H
H       0.1604   0.4774   0.3017     H
H       0.1604   0.7726   0.9483     H
H       0.1604   0.9774   0.8017     H
C       0.1685   0.3451   0.9047     C
C       0.1685   0.4049   0.8453     C
C       0.1685   0.8451   0.4047     C
C       0.1685   0.9049   0.3453     C
N       0.1726   0.3275   0.4885     N
N       0.1726   0.4225   0.2615     N
N       0.1726   0.8275   0.9885     N
N       0.1726   0.9225   0.7615     N
C       0.1773    0.375    0.375     C
C       0.1773    0.875    0.875     C
N       0.1907   0.3145  0.32117     N
N       0.1907   0.4355  0.42883     N
N       0.1907   0.8145  0.82117     N
N       0.1907   0.9355  0.92883     N
H       0.2017   0.3036   0.9737     H
H       0.2017   0.4464   0.7763     H
H       0.2017   0.8036   0.4737     H
H       0.2017   0.9464   0.2763     H
C       0.2106   0.0074   0.9766     C
C       0.2106   0.2426   0.2734     C
C       0.2106   0.5074   0.4766     C
C       0.2106   0.7426   0.7734     C
H       0.2211   0.0638   0.9365     H
H       0.2211   0.1862   0.3135     H
H       0.2211   0.5638   0.4365     H
H       0.2211   0.6862   0.8135     H
H        0.226   0.2594   0.9426     H
H        0.226   0.4906   0.8074     H
H        0.226   0.7594   0.4426     H
H        0.226   0.9906   0.3074     H
H       0.2271   0.3709   0.9195     H
H       0.2271   0.3791   0.8305     H
H       0.2271   0.8709   0.4195     H
H       0.2271   0.8791   0.3305     H
C       0.2329    0.004   0.4886     C
C       0.2329    0.246   0.7614     C
C       0.2329    0.504   0.9886     C
C       0.2329    0.746   0.2614     C
H       0.2352   0.2852   0.2261     H
H       0.2352   0.4648   0.5239     H
H       0.2352   0.7852   0.7261     H
H       0.2352   0.9648   0.0239     H
H       0.2411   0.3205   0.8928     H
H       0.2411   0.4295   0.8572     H
H       0.2411   0.8205   0.3928     H
H       0.2411   0.9295   0.3572     H
C       0.2417   0.3044   0.7101     C
C       0.2417   0.4456   0.0399     C
C       0.2417   0.8044   0.2101     C
C       0.2417   0.9456   0.5399     C
H       0.2437   0.2924   0.3357     H
H       0.2437   0.4576   0.4143     H
H       0.2437   0.7924   0.8357     H
H       0.2437   0.9576   0.9143     H
H       0.2439   0.3489   0.3875     H
H       0.2439   0.4011   0.3625     H
H       0.2439   0.8489   0.8875     H
H       0.2439   0.9011   0.8625     H
H       0.2561   0.0989   0.6375     H
H       0.2561   0.1511   0.6125     H
H       0.2561   0.5989   0.1375     H
H       0.2561   0.6511   0.1125     H
H       0.2563   0.0424   0.5857     H
H       0.2563   0.2076   0.6643     H
H       0.2563   0.5424   0.0857     H
H       0.2563   0.7076   0.1643     H
C       0.2583   0.0544   0.9601     C
C       0.2583   0.1956   0.2899     C
C       0.2583   0.5544   0.4601     C
C       0.2583   0.6956   0.7899     C
H       0.2589   0.0705   0.1428     H
H       0.2589   0.1795   0.1072     H
H       0.2589   0.5705   0.6428     H
H       0.2589   0.6795   0.6072     H
H       0.2648   0.0352   0.4761     H
H       0.2648   0.2148   0.7739     H
H       0.2648   0.5352   0.9761     H
H       0.2648   0.7148   0.2739     H
C       0.2671    0.254   0.2386     C
C       0.2671    0.496   0.5114     C
C       0.2671    0.754   0.7386     C
C       0.2671    0.996   0.0114     C
H       0.2729   0.1209   0.1695     H
H       0.2729   0.1291   0.0805     H
H       0.2729   0.6209   0.6695     H
H       0.2729   0.6291   0.5805     H
H        0.274   0.0094   0.1926     H
H        0.274   0.2406   0.0574     H
H        0.274   0.5094   0.6926     H
H        0.274   0.7406   0.5574     H
H       0.2789   0.3138   0.6865     H
H       0.2789   0.4362   0.0635     H
H       0.2789   0.8138   0.1865     H
H       0.2789   0.9362   0.5635     H
C       0.2894   0.2574   0.7266     C
C       0.2894   0.4926   0.0234     C
C       0.2894   0.7574   0.2266     C
C       0.2894   0.9926   0.5234     C
H       0.2983   0.0536   0.2237     H
H       0.2983   0.1964   0.0263     H
H       0.2983   0.5536   0.7237     H
H       0.2983   0.6964   0.5263     H
N       0.3093   0.0645  0.57117     N
N       0.3093   0.1855  0.67883     N
N       0.3093   0.5645  0.07117     N
N       0.3093   0.6855  0.17883     N
C       0.3227    0.125    0.625     C
C       0.3227    0.625    0.125     C
N       0.3274   0.0775   0.7385     N
N       0.3274   0.1725   0.5115     N
N       0.3274   0.5775   0.2385     N
N       0.3274   0.6725   0.0115     N
C       0.3315   0.0951   0.1547     C
C       0.3315   0.1549   0.0953     C
C       0.3315   0.5951   0.6547     C
C       0.3315   0.6549   0.5953     C
H       0.3396   0.0226   0.6983     H
H       0.3396   0.2274   0.5517     H
H       0.3396   0.5226   0.1983     H
H       0.3396   0.7274   0.0517     H
C       0.3515   0.0304   0.2059     C
C       0.3515   0.2196   0.0441     C
C       0.3515   0.5304   0.7059     C
C       0.3515   0.7196   0.5441     C
H       0.3607   0.1197   0.7837     H
H       0.3607   0.1303   0.4663     H
H       0.3607   0.6197   0.2837     H
H       0.3607   0.6303   0.9663     H
C       0.3608   0.0877   0.9782     C
C       0.3608   0.1623   0.2718     C
C       0.3608   0.5877   0.4782     C
C       0.3608   0.6623   0.7718     C
C       0.3725   0.0312   0.0281     C
C       0.3725   0.2188   0.2219     C
C       0.3725   0.5312   0.5281     C
C       0.3725   0.7188   0.7219     C
Ag       0.375    0.375  0.29155    Ag
Ag       0.375    0.375  0.45845    Ag
Ag       0.375    0.875  0.79155    Ag
Ag       0.375    0.875  0.95845    Ag
C       0.3775   0.0312   0.7219     C
C       0.3775   0.2188   0.5281     C
C       0.3775   0.5312   0.2219     C
C       0.3775   0.7188   0.0281     C
C       0.3892   0.0877   0.7718     C
C       0.3892   0.1623   0.4782     C
C       0.3892   0.5877   0.2718     C
C       0.3892   0.6623   0.9782     C
H       0.3893   0.1197   0.9663     H
H       0.3893   0.1303   0.2837     H
H       0.3893   0.6197   0.4663     H
H       0.3893   0.6303   0.7837     H
C       0.3985   0.0304   0.5441     C
C       0.3985   0.2196   0.7059     C
C       0.3985   0.5304   0.0441     C
C       0.3985   0.7196   0.2059     C
H       0.4104   0.0226   0.0517     H
H       0.4104   0.2274   0.1983     H
H       0.4104   0.5226   0.5517     H
H       0.4104   0.7274   0.6983     H
C       0.4185   0.0951   0.5953     C
C       0.4185   0.1549   0.6547     C
C       0.4185   0.5951   0.0953     C
C       0.4185   0.6549   0.1547     C
N       0.4226   0.0775   0.0115     N
N       0.4226   0.1725   0.2385     N
N       0.4226   0.5775   0.5115     N
N       0.4226   0.6725   0.7385     N
C       0.4273    0.125    0.125     C
C       0.4273    0.625    0.625     C
N       0.4407   0.0645  0.17883     N
N       0.4407   0.1855  0.07117     N
N       0.4407   0.5645  0.67883     N
N       0.4407   0.6855  0.57117     N
H       0.4517   0.0536   0.5263     H
H       0.4517   0.1964   0.7237     H
H       0.4517   0.5536   0.0263     H
H       0.4517   0.6964   0.2237     H
C       0.4606   0.2574   0.0234     C
C       0.4606   0.4926   0.7266     C
C       0.4606   0.7574   0.5234     C
C       0.4606   0.9926   0.2266     C
H       0.4711   0.3138   0.0635     H
H       0.4711   0.4362   0.6865     H
H       0.4711   0.8138   0.5635     H
H       0.4711   0.9362   0.1865     H
H        0.476   0.0094   0.5574     H
H        0.476   0.2406   0.6926     H
H        0.476   0.5094   0.0574     H
H        0.476   0.7406   0.1926     H
H       0.4771   0.1209   0.5805     H
H       0.4771   0.1291   0.6695     H
H       0.4771   0.6209   0.0805     H
H       0.4771   0.6291   0.1695     H
C       0.4829    0.254   0.5114     C
C       0.4829    0.496   0.2386     C
C       0.4829    0.754   0.0114     C
C       0.4829    0.996   0.7386     C
H       0.4852   0.0352   0.2739     H
H       0.4852   0.2148   0.9761     H
H       0.4852   0.5352   0.7739     H
H       0.4852   0.7148   0.4761     H
H       0.4911   0.0705   0.6072     H
H       0.4911   0.1795   0.6428     H
H       0.4911   0.5705   0.1072     H
H       0.4911   0.6795   0.1428     H
C       0.4917   0.0544   0.7899     C
C       0.4917   0.1956   0.4601     C
C       0.4917   0.5544   0.2899     C
C       0.4917   0.6956   0.9601     C
H       0.4937   0.0424   0.1643     H
H       0.4937   0.2076   0.0857     H
H       0.4937   0.5424   0.6643     H
H       0.4937   0.7076   0.5857     H
H       0.4939   0.0989   0.1125     H
H       0.4939   0.1511   0.1375     H
H       0.4939   0.5989   0.6125     H
H       0.4939   0.6511   0.6375     H
H       0.5061   0.3489   0.3625     H
H       0.5061   0.4011   0.3875     H
H       0.5061   0.8489   0.8625     H
H       0.5061   0.9011   0.8875     H
H       0.5063   0.2924   0.4143     H
H       0.5063   0.4576   0.3357     H
H       0.5063   0.7924   0.9143     H
H       0.5063   0.9576   0.8357     H
C       0.5083   0.3044   0.0399     C
C       0.5083   0.4456   0.7101     C
C       0.5083   0.8044   0.5399     C
C       0.5083   0.9456   0.2101     C
H       0.5089   0.3205   0.8572     H
H       0.5089   0.4295   0.8928     H
H       0.5089   0.8205   0.3572     H
H       0.5089   0.9295   0.3928     H
H       0.5148   0.2852   0.5239     H
H       0.5148   0.4648   0.2261     H
H       0.5148   0.7852   0.0239     H
H       0.5148   0.9648   0.7261     H
C       0.5171    0.004   0.2614     C
C       0.5171    0.246   0.9886     C
C       0.5171    0.504   0.7614     C
C       0.5171    0.746   0.4886     C
H       0.5229   0.3709   0.8305     H
H       0.5229   0.3791   0.9195     H
H       0.5229   0.8709   0.3305     H
H       0.5229   0.8791   0.4195     H
H        0.524   0.2594   0.8074     H
H        0.524   0.4906   0.9426     H
H        0.524   0.7594   0.3074     H
H        0.524   0.9906   0.4426     H
H       0.5289   0.0638   0.8135     H
H       0.5289   0.1862   0.4365     H
H       0.5289   0.5638   0.3135     H
H       0.5289   0.6862   0.9365     H
C       0.5394   0.0074   0.7734     C
C       0.5394   0.2426   0.4766     C
C       0.5394   0.5074   0.2734     C
C       0.5394   0.7426   0.9766     C
H       0.5483   0.3036   0.7763     H
H       0.5483   0.4464   0.9737     H
H       0.5483   0.8036   0.2763     H
H       0.5483   0.9464   0.4737     H
N       0.5593   0.3145  0.42883     N
N       0.5593   0.4355  0.32117     N
N       0.5593   0.8145  0.92883     N
N       0.5593   0.9355  0.82117     N
C       0.5727    0.375    0.375     C
C       0.5727    0.875    0.875     C
N       0.5774   0.3275   0.2615     N
N       0.5774   0.4225   0.4885     N
N       0.5774   0.8275   0.7615     N
N       0.5774   0.9225   0.9885     N
C       0.5815   0.3451   0.8453     C
C       0.5815   0.4049   0.9047     C
C       0.5815   0.8451   0.3453     C
C       0.5815   0.9049   0.4047     C
H       0.5896   0.2726   0.3017     H
H       0.5896   0.4774   0.4483     H
H       0.5896   0.7726   0.8017     H
H       0.5896   0.9774   0.9483     H
C       0.6015   0.2804   0.7941     C
C       0.6015   0.4696   0.9559     C
C       0.6015   0.7804   0.2941     C
C       0.6015   0.9696   0.4559     C
H       0.6107   0.3697   0.2163     H
H       0.6107   0.3803   0.5337     H
H       0.6107   0.8697   0.7163     H
H       0.6107   0.8803   0.0337     H
C       0.6108   0.3377   0.0218     C
C       0.6108   0.4123   0.7282     C
C       0.6108   0.8377   0.5218     C
C       0.6108   0.9123   0.2282     C
C       0.6225   0.2812   0.9719     C
C       0.6225   0.4688   0.7781     C
C       0.6225   0.7812   0.4719     C
C       0.6225   0.9688   0.2781     C
Ag       0.625    0.125  0.04155    Ag
Ag       0.625    0.125  0.20845    Ag
Ag       0.625    0.625  0.54155    Ag
Ag       0.625    0.625  0.70845    Ag
C       0.6275   0.2812   0.2781     C
C       0.6275   0.4688   0.4719     C
C       0.6275   0.7812   0.7781     C
C       0.6275   0.9688   0.9719     C
C       0.6392   0.3377   0.2282     C
C       0.6392   0.4123   0.5218     C
C       0.6392   0.8377   0.7282     C
C       0.6392   0.9123   0.0218     C
H       0.6393   0.3697   0.0337     H
H       0.6393   0.3803   0.7163     H
H       0.6393   0.8697   0.5337     H
H       0.6393   0.8803   0.2163     H
C       0.6485   0.2804   0.4559     C
C       0.6485   0.4696   0.2941     C
C       0.6485   0.7804   0.9559     C
C       0.6485   0.9696   0.7941     C
H       0.6604   0.2726   0.9483     H
H       0.6604   0.4774   0.8017     H
H       0.6604   0.7726   0.4483     H
H       0.6604   0.9774   0.3017     H
C       0.6685   0.3451   0.4047     C
C       0.6685   0.4049   0.3453     C
C       0.6685   0.8451   0.9047     C
C       0.6685   0.9049   0.8453     C
N       0.6726   0.3275   0.9885     N
N       0.6726   0.4225   0.7615     N
N       0.6726   0.8275   0.4885     N
N       0.6726   0.9225   0.2615     N
C       0.6773    0.375    0.875     C
C       0.6773    0.875    0.375     C
N       0.6907   0.3145  0.82117     N
N       0.6907   0.4355  0.92883     N
N       0.6907   0.8145  0.32117     N
N       0.6907   0.9355  0.42883     N
H       0.7017   0.3036   0.4737     H
H       0.7017   0.4464   0.2763     H
H       0.7017   0.8036   0.9737     H
H       0.7017   0.9464   0.7763     H
C       0.7106   0.0074   0.4766     C
C       0.7106   0.2426   0.7734     C
C       0.7106   0.5074   0.9766     C
C       0.7106   0.7426   0.2734     C
H       0.7211   0.0638   0.4365     H
H       0.7211   0.1862   0.8135     H
H       0.7211   0.5638   0.9365     H
H       0.7211   0.6862   0.3135     H
H        0.726   0.2594   0.4426     H
H        0.726   0.4906   0.3074     H
H        0.726   0.7594   0.9426     H
H        0.726   0.9906   0.8074     H
H       0.7271   0.3709   0.4195     H
H       0.7271   0.3791   0.3305     H
H       0.7271   0.8709   0.9195     H
H       0.7271   0.8791   0.8305     H
C       0.7329    0.004   0.9886     C
C       0.7329    0.246   0.2614     C
C       0.7329    0.504   0.4886     C
C       0.7329    0.746   0.7614     C
H       0.7352   0.2852   0.7261     H
H       0.7352   0.4648   0.0239     H
H       0.7352   0.7852   0.2261     H
H       0.7352   0.9648   0.5239     H
H       0.7411   0.3205   0.3928     H
H       0.7411   0.4295   0.3572     H
H       0.7411   0.8205   0.8928     H
H       0.7411   0.9295   0.8572     H
C       0.7417   0.3044   0.2101     C
C       0.7417   0.4456   0.5399     C
C       0.7417   0.8044   0.7101     C
C       0.7417   0.9456   0.0399     C
H       0.7437   0.2924   0.8357     H
H       0.7437   0.4576   0.9143     H
H       0.7437   0.7924   0.3357     H
H       0.7437   0.9576   0.4143     H
H       0.7439   0.3489   0.8875     H
H       0.7439   0.4011   0.8625     H
H       0.7439   0.8489   0.3875     H
H       0.7439   0.9011   0.3625     H
H       0.7561   0.0989   0.1375     H
H       0.7561   0.1511   0.1125     H
H       0.7561   0.5989   0.6375     H
H       0.7561   0.6511   0.6125     H
H       0.7563   0.0424   0.0857     H
H       0.7563   0.2076   0.1643     H
H       0.7563   0.5424   0.5857     H
H       0.7563   0.7076   0.6643     H
C       0.7583   0.0544   0.4601     C
C       0.7583   0.1956   0.7899     C
C       0.7583   0.5544   0.9601     C
C       0.7583   0.6956   0.2899     C
H       0.7589   0.0705   0.6428     H
H       0.7589   0.1795   0.6072     H
H       0.7589   0.5705   0.1428     H
H       0.7589   0.6795   0.1072     H
H       0.7648   0.0352   0.9761     H
H       0.7648   0.2148   0.2739     H
H       0.7648   0.5352   0.4761     H
H       0.7648   0.7148   0.7739     H
C       0.7671    0.254   0.7386     C
C       0.7671    0.496   0.0114     C
C       0.7671    0.754   0.2386     C
C       0.7671    0.996   0.5114     C
H       0.7729   0.1209   0.6695     H
H       0.7729   0.1291   0.5805     H
H       0.7729   0.6209   0.1695     H
H       0.7729   0.6291   0.0805     H
H        0.774   0.0094   0.6926     H
H        0.774   0.2406   0.5574     H
H        0.774   0.5094   0.1926     H
H        0.774   0.7406   0.0574     H
H       0.7789   0.3138   0.1865     H
H       0.7789   0.4362   0.5635     H
H       0.7789   0.8138   0.6865     H
H       0.7789   0.9362   0.0635     H
C       0.7894   0.2574   0.2266     C
C       0.7894   0.4926   0.5234     C
C       0.7894   0.7574   0.7266     C
C       0.7894   0.9926   0.0234     C
H       0.7983   0.0536   0.7237     H
H       0.7983   0.1964   0.5263     H
H       0.7983   0.5536   0.2237     H
H       0.7983   0.6964   0.0263     H
N       0.8093   0.0645  0.07117     N
N       0.8093   0.1855  0.17883     N
N       0.8093   0.5645  0.57117     N
N       0.8093   0.6855  0.67883     N
C       0.8227    0.125    0.125     C
C       0.8227    0.625    0.625     C
N       0.8274   0.0775   0.2385     N
N       0.8274   0.1725   0.0115     N
N       0.8274   0.5775   0.7385     N
N       0.8274   0.6725   0.5115     N
C       0.8315   0.0951   0.6547     C
C       0.8315   0.1549   0.5953     C
C       0.8315   0.5951   0.1547     C
C       0.8315   0.6549   0.0953     C
H       0.8396   0.0226   0.1983     H
H       0.8396   0.2274   0.0517     H
H       0.8396   0.5226   0.6983     H
H       0.8396   0.7274   0.5517     H
C       0.8515   0.0304   0.7059     C
C       0.8515   0.2196   0.5441     C
C       0.8515   0.5304   0.2059     C
C       0.8515   0.7196   0.0441     C
H       0.8607   0.1197   0.2837     H
H       0.8607   0.1303   0.9663     H
H       0.8607   0.6197   0.7837     H
H       0.8607   0.6303   0.4663     H
C       0.8608   0.0877   0.4782     C
C       0.8608   0.1623   0.7718     C
C       0.8608   0.5877   0.9782     C
C       0.8608   0.6623   0.2718     C
C       0.8725   0.0312   0.5281     C
C       0.8725   0.2188   0.7219     C
C       0.8725   0.5312   0.0281     C
C       0.8725   0.7188   0.2219     C
Ag       0.875    0.375  0.79155    Ag
Ag       0.875    0.375  0.95845    Ag
Ag       0.875    0.875  0.29155    Ag
Ag       0.875    0.875  0.45845    Ag
C       0.8775   0.0312   0.2219     C
C       0.8775   0.2188   0.0281     C
C       0.8775   0.5312   0.7219     C
C       0.8775   0.7188   0.5281     C
C       0.8892   0.0877   0.2718     C
C       0.8892   0.1623   0.9782     C
C       0.8892   0.5877   0.7718     C
C       0.8892   0.6623   0.4782     C
H       0.8893   0.1197   0.4663     H
H       0.8893   0.1303   0.7837     H
H       0.8893   0.6197   0.9663     H
H       0.8893   0.6303   0.2837     H
C       0.8985   0.0304   0.0441     C
C       0.8985   0.2196   0.2059     C
C       0.8985   0.5304   0.5441     C
C       0.8985   0.7196   0.7059     C
H       0.9104   0.0226   0.5517     H
H       0.9104   0.2274   0.6983     H
H       0.9104   0.5226   0.0517     H
H       0.9104   0.7274   0.1983     H
C       0.9185   0.0951   0.0953     C
C       0.9185   0.1549   0.1547     C
C       0.9185   0.5951   0.5953     C
C       0.9185   0.6549   0.6547     C
N       0.9226   0.0775   0.5115     N
N       0.9226   0.1725   0.7385     N
N       0.9226   0.5775   0.0115     N
N       0.9226   0.6725   0.2385     N
C       0.9273    0.125    0.625     C
C       0.9273    0.625    0.125     C
N       0.9407   0.0645  0.67883     N
N       0.9407   0.1855  0.57117     N
N       0.9407   0.5645  0.17883     N
N       0.9407   0.6855  0.07117     N
H       0.9517   0.0536   0.0263     H
H       0.9517   0.1964   0.2237     H
H       0.9517   0.5536   0.5263     H
H       0.9517   0.6964   0.7237     H
C       0.9606   0.2574   0.5234     C
C       0.9606   0.4926   0.2266     C
C       0.9606   0.7574   0.0234     C
C       0.9606   0.9926   0.7266     C
H       0.9711   0.3138   0.5635     H
H       0.9711   0.4362   0.1865     H
H       0.9711   0.8138   0.0635     H
H       0.9711   0.9362   0.6865     H
H        0.976   0.0094   0.0574     H
H        0.976   0.2406   0.1926     H
H        0.976   0.5094   0.5574     H
H        0.976   0.7406   0.6926     H
H       0.9771   0.1209   0.0805     H
H       0.9771   0.1291   0.1695     H
H       0.9771   0.6209   0.5805     H
H       0.9771   0.6291   0.6695     H
C       0.9829    0.254   0.0114     C
C       0.9829    0.496   0.7386     C
C       0.9829    0.754   0.5114     C
C       0.9829    0.996   0.2386     C
H       0.9852   0.0352   0.7739     H
H       0.9852   0.2148   0.4761     H
H       0.9852   0.5352   0.2739     H
H       0.9852   0.7148   0.9761     H
H       0.9911   0.0705   0.1072     H
H       0.9911   0.1795   0.1428     H
H       0.9911   0.5705   0.6072     H
H       0.9911   0.6795   0.6428     H
C       0.9917   0.0544   0.2899     C
C       0.9917   0.1956   0.9601     C
C       0.9917   0.5544   0.7899     C
C       0.9917   0.6956   0.4601     C
H       0.9937   0.0424   0.6643     H
H       0.9937   0.2076   0.5857     H
H       0.9937   0.5424   0.1643     H
H       0.9937   0.7076   0.0857     H
H       0.9939   0.0989   0.6125     H
H       0.9939   0.1511   0.6375     H
H       0.9939   0.5989   0.1125     H
H       0.9939   0.6511   0.1375     H
