data_I
_chemical_name_common  '/home/zhangsd/repos/MofS-CGCNN/ML/data/TSD/clean_cifs/NUVYOT_clean'
_cell_length_a 11.28560
_cell_length_b 11.28560
_cell_length_c 27.05900
_cell_angle_alpha 94.05400
_cell_angle_beta  94.05400
_cell_angle_gamma 119.70400
_space_group_name_H-M_alt      'P 1'


loop_
_space_group_symop_operation_xyz
  'x, y, z' 

loop_
_atom_site_label
_atom_site_fract_x
_atom_site_fract_y
_atom_site_fract_z
_atom_site_type_symbol
H       0.0024   0.4434   0.0762     H
H       0.0095   0.0933   0.5074     H
C       0.0157   0.1725   0.9112     C
C       0.0174   0.8574   0.9538     C
H       0.0233   0.0637   0.0913     H
O       0.0236   0.2788   0.5923     O
C       0.0315   0.7579   0.9276     C
H       0.0325   0.5253   0.4452     H
C       0.0327   0.3219   0.5513     C
C       0.0438   0.4696   0.4213     C
C       0.0464   0.1758   0.8644     C
C       0.0476   0.4946   0.8395     C
H       0.0551   0.8687   0.4548     H
H       0.0555   0.6173    0.558     H
C       0.0561   0.5315   0.8891     C
C       0.0565   0.6997    0.565     C
C       0.0617   0.8891   0.4221     C
H       0.0637   0.0233   0.5913     H
C       0.0654   0.9422   0.5843     C
H        0.076   0.2414   0.9364     H
C       0.0762   0.9572   0.3263     C
C       0.0782    0.316   0.0723     C
H       0.0786   0.9802   0.2939     H
C       0.0819   0.3169   0.3499     C
C       0.0829   0.4401    0.075     C
H        0.091   0.2628   0.3246     H
H       0.0933   0.0095   0.0074     H
C       0.1068   0.9422   0.9912     C
O       0.1191   0.4387   0.5424     O
O       0.1202   0.5284     0.76     O
H       0.1297   0.2469   0.8572     H
C       0.1485   0.7505   0.9426     C
C        0.152    0.572   0.8064     C
C        0.166   0.4766   0.4224     C
O       0.1709   0.6543    0.914     O
C       0.1725   0.0157   0.4112     C
C       0.1758   0.0464   0.3644     C
C       0.1789   0.8251    0.564     C
C        0.187   0.9486   0.5734     C
C       0.1902   0.4012   0.3856     C
C       0.2054   0.3192   0.0713     C
H         0.21   0.2392   0.0707     H
C       0.2104   0.5638    0.076     C
H        0.212   0.6472   0.0784     H
H       0.2172   0.7504   0.3295     H
C       0.2232   0.9326   0.0074     C
H       0.2354   0.5324    0.448     H
H       0.2392     0.21   0.5707     H
C       0.2401   0.8303    0.982     C
H       0.2414    0.076   0.4364     H
H       0.2469   0.1297   0.3572     H
H       0.2573   0.8231   0.5566     H
H       0.2579   0.8879   0.8275     H
H       0.2628    0.091   0.8246     H
O       0.2701   0.6783   0.8228     O
O       0.2788   0.0236   0.0923     O
H       0.2805   0.7707   0.4142     H
C       0.2961   0.8285   0.3451     C
C       0.3143   0.9597   0.8524     C
C        0.316   0.0782   0.5723     C
C       0.3169   0.0819   0.8499     C
C       0.3192   0.2054   0.5713     C
C       0.3192   0.3978   0.3885     C
C       0.3195   0.4433   0.0713     C
C       0.3219   0.0327   0.0513     C
N       0.3257   0.5631   0.0736     N
H       0.3287   0.3635   0.4604     H
C       0.3346   0.8398   0.3955     C
H       0.3428    0.523   0.9605     H
H        0.344   0.9244    0.285     H
C       0.3586   0.4878   0.9312     C
H       0.3616    0.438   0.3187     H
H       0.3635   0.3287   0.9604     H
C       0.3644   0.8128   0.9987     C
N       0.3676   0.5506   0.8908     N
Ni     0.37047  0.74039  0.89196    Ni
C        0.371    0.372   0.4315     C
C        0.372    0.371   0.9315     C
C       0.3735   0.9317   0.3186     C
N       0.3843   0.9357   0.8866     N
C       0.3905   0.4155   0.3478     C
O        0.397   0.8264   0.0445     O
C       0.3978   0.3192   0.8885     C
C       0.3998   0.5044     0.85     C
C       0.4012   0.1902   0.8856     C
H       0.4018    0.444   0.0695     H
H       0.4122   0.5508    0.822     H
C       0.4155   0.3905   0.8478     C
O       0.4181   0.7813   0.9665     O
H        0.438   0.3616   0.8187     H
O       0.4387   0.1191   0.0424     O
C       0.4401   0.0829    0.575     C
C       0.4433   0.3195   0.5713     C
H       0.4434   0.0024   0.5762     H
H        0.444   0.4018   0.5695     H
C       0.4542   0.9546   0.4179     C
H       0.4593   0.7783   0.2453     H
C       0.4696   0.0438   0.9213     C
C       0.4766    0.166   0.9224     C
H       0.4822   0.9636   0.4518     H
C       0.4878   0.3586   0.4312     C
C       0.4946   0.0476   0.3395     C
O        0.499   0.8068   0.1517     O
C       0.5044   0.3998     0.35     C
Ni     0.51254  0.75526  0.07532    Ni
H       0.5228   0.7896   0.3257     H
H        0.523   0.3428   0.4605     H
H       0.5253   0.0325   0.9452     H
O       0.5284   0.1202     0.26     O
C       0.5315   0.0561   0.3891     C
H       0.5324   0.2354    0.948     H
C       0.5364   0.7718   0.2549     C
N       0.5506   0.3676   0.3908     N
H       0.5508   0.4122    0.322     H
O       0.5589   0.8311   0.8715     O
N       0.5631   0.3257   0.5736     N
C       0.5638   0.2104    0.576     C
C       0.5702   0.7524   0.1643     C
C        0.572    0.152   0.3064     C
C       0.5744   0.7786   0.3024     C
O       0.6039   0.6971   0.1312     O
O       0.6083   0.7979   0.6866     O
C       0.6111   0.7547   0.2178     C
H       0.6173   0.0555    0.058     H
H       0.6472    0.212   0.5784     H
O       0.6543   0.1709    0.414     O
C       0.6645   0.8503   0.8981     C
O       0.6691   0.7935   0.9339     O
O       0.6783   0.2701   0.3228     O
C       0.6883   0.7699    0.319     C
O       0.6971   0.6039   0.6312     O
N       0.6974   0.9422   0.0759     N
H       0.6985   0.9669   0.4012     H
C       0.6997   0.0565    0.065     C
H       0.7134   0.7742   0.3529     H
C       0.7264   0.7448   0.2328     C
C       0.7281   0.8159   0.6969     C
Ni     0.74039  0.37047  0.39196    Ni
O       0.7422   0.8782   0.7969     O
C       0.7448   0.7264   0.7328     C
H       0.7504   0.2172   0.8295     H
C       0.7505   0.1485   0.4426     C
C       0.7524   0.5702   0.6643     C
C       0.7547   0.6111   0.7178     C
C       0.7548   0.7634   0.7835     C
Ni     0.75526  0.51254  0.57532    Ni
C       0.7579   0.0315   0.4276     C
C       0.7634   0.7548   0.2835     C
C       0.7699   0.6883    0.819     C
H       0.7707   0.2805   0.9142     H
C       0.7718   0.5364   0.7549     C
H       0.7742   0.7134   0.8529     H
H       0.7783   0.4593   0.7453     H
C       0.7786   0.5744   0.8024     C
O       0.7813   0.4181   0.4665     O
H       0.7896   0.5228   0.8257     H
O       0.7935   0.6691   0.4339     O
C       0.7977   0.9649   0.8845     C
O       0.7979   0.6083   0.1866     O
O       0.8068    0.499   0.6517     O
C       0.8128   0.3644   0.4987     C
C       0.8159   0.7281   0.1969     C
C       0.8204   0.9502    0.085     C
H       0.8212   0.8712   0.0921     H
H       0.8231   0.2573   0.0566     H
C       0.8251   0.1789    0.064     C
O       0.8264    0.397   0.5445     O
C       0.8285   0.2961   0.8451     C
C       0.8303   0.2401    0.482     C
O       0.8311   0.5589   0.3715     O
C       0.8339   0.9735   0.8374     C
O       0.8342   0.9026   0.6807     O
C       0.8398   0.3346   0.8955     C
C       0.8503   0.6645   0.3981     C
C       0.8574   0.0174   0.4538     C
H       0.8655   0.9409   0.4446     H
H       0.8687   0.0551   0.9548     H
H       0.8712   0.8212   0.5921     H
O       0.8782   0.7422   0.2969     O
H       0.8879   0.2579   0.3275     H
C       0.8891   0.0617   0.9221     C
O       0.9026   0.8342   0.1807     O
H       0.9244    0.344    0.785     H
C       0.9317   0.3735   0.8186     C
C       0.9326   0.2232   0.5074     C
N       0.9357   0.3843   0.3866     N
H       0.9409   0.8655   0.9446     H
C       0.9422   0.0654   0.0843     C
C       0.9422   0.1068   0.4912     C
N       0.9422   0.6974   0.5759     N
C       0.9486    0.187   0.0734     C
C       0.9502   0.8204    0.585     C
C       0.9546   0.4542   0.9179     C
C       0.9572   0.0762   0.8263     C
C       0.9597   0.3143   0.3524     C
H       0.9636   0.4822   0.9518     H
C       0.9649   0.7977   0.3845     C
H       0.9669   0.6985   0.9012     H
C       0.9735   0.8339   0.3374     C
H       0.9802   0.0786   0.7939     H
