data_I
_chemical_name_common  '/home/zhangsd/repos/MofS-CGCNN/ML/data/TSD/clean_cifs/NUVYIN_clean'
_cell_length_a 11.21490
_cell_length_b 17.00250
_cell_length_c 20.31760
_cell_angle_alpha 65.26520
_cell_angle_beta  87.94890
_cell_angle_gamma 85.09300
_space_group_name_H-M_alt      'P 1'


loop_
_space_group_symop_operation_xyz
  'x, y, z' 

loop_
_atom_site_label
_atom_site_fract_x
_atom_site_fract_y
_atom_site_fract_z
_atom_site_type_symbol
H       0.0061   0.5882    0.096     H
H       0.0101   0.8325   0.8118     H
H       0.0147   0.5921    0.668     H
C       0.0185  0.54612  0.65436     C
H       0.0263   0.1151   0.3102     H
C       0.0263  0.40949  0.61542     C
H       0.0296    0.363   0.6024     H
O       0.0304   0.2146  0.05478     O
H       0.0325   0.8804   0.4564     H
C       0.0334  0.87434  0.41292     C
C       0.0335  0.85728  0.28604     C
H       0.0339   0.0184   0.8494     H
H       0.0364   0.8499   0.2432     H
C       0.0374   0.5936   0.3258     C
C       0.0396  0.52776  0.30388     C
C       0.0512  0.07743  0.63854     C
C       0.0513  0.08438  0.70444     C
H       0.0533   0.5404   0.8962     H
O      0.05522  0.72361  0.11312     O
C       0.0665  0.14493  0.20594     C
C        0.074   0.4151   0.9122     C
H       0.0794   0.5323   0.2616     H
C       0.0819  0.55229  0.59302     C
C       0.0873   0.4833   0.5742     C
C       0.0884  0.11431  0.27878     C
Ni     0.09149  0.22184  0.95052    Ni
O       0.0917  0.66951  0.28462     O
H       0.0992   0.2795   0.7894     H
O       0.1052  0.83808   0.1316     O
C       0.1078  0.00067  0.83566     C
H       0.1083   0.0403   0.6294     H
C        0.109  0.49301  0.90698     C
H       0.1125    0.633   0.9372     H
C       0.1138  0.81031  0.34098     C
N       0.1169  0.81911  0.40324     N
C       0.1216  0.76149  0.13808     C
O       0.1235  0.69972  0.56014     O
C       0.1309  0.17614  0.07892     C
H       0.1316   0.4855    0.534     H
C       0.1379  0.02955   0.7625     C
C       0.1436  0.63217  0.54866     C
N       0.1482  0.34379  0.92844     N
C       0.1582  0.14271  0.15818     C
H       0.1657   0.9269   0.9356     H
H       0.1689   0.7702   0.3344     H
C       0.1746  0.25012  0.80176     C
H       0.1813   0.7511   0.9436     H
C       0.1878  0.94607  0.88706     C
C       0.1938  0.64108  0.93124     C
C       0.2011  0.08257  0.30546     C
N       0.2034  0.20999  0.87158     N
C       0.2064  0.66023  0.25834     C
O      0.21052  0.16525  0.03734     O
H       0.2158   0.0619   0.3548     H
O       0.2171  0.63289  0.49968     O
H       0.2249   0.2802   0.6988     H
C       0.2255  0.70599  0.18456     C
C        0.229  0.50045   0.9181     C
C       0.2359  0.71177  0.93546     C
C       0.2498  0.25084  0.74672     C
Ni        0.25  0.76073  0.47854    Ni
C       0.2502  0.00244  0.74672     C
C       0.2641  0.35277  0.93546     C
C        0.271  0.58145   0.9181     C
C       0.2745  0.10945  0.18456     C
H       0.2751    0.021   0.6988     H
O       0.2829  0.86743  0.49968     O
H       0.2842   0.5833   0.3548     H
O      0.28948  0.79741  0.03734     O
C       0.2936  0.08143  0.25834     C
N       0.2966  0.91843  0.87158     N
C       0.2989  0.61197  0.30546     C
C       0.3062  0.42768  0.93124     C
C       0.3122  0.16687  0.88706     C
H       0.3187   0.3053   0.9436     H
C       0.3254  0.94812  0.80176     C
H       0.3311   0.8954   0.3344     H
H       0.3343   0.1375   0.9356     H
C       0.3418  0.69911  0.15818     C
N       0.3518  0.72777  0.92844     N
C       0.3564  0.81917  0.54866     C
C       0.3621  0.20795   0.7625     C
H       0.3684   0.9805    0.534     H
C       0.3691  0.74494  0.07892     C
O       0.3765  0.74014  0.56014     O
C       0.3784  0.10043  0.13808     C
N       0.3831  0.77765  0.40324     N
C       0.3862  0.84871  0.34098     C
H       0.3875   0.4298   0.9372     H
C        0.391  0.60001  0.90698     C
H       0.3917   0.3303   0.6294     H
C       0.3922  0.16367  0.83566     C
O       0.3948  0.03032   0.1316     O
H       0.4008   0.9311   0.7894     H
O       0.4083  0.04587  0.28462     O
Ni     0.40851  0.82764  0.95052    Ni
C       0.4116  0.60691  0.27878     C
C       0.4127   0.9425   0.5742     C
C       0.4181  0.85469  0.59302     C
H       0.4206   0.2061   0.2616     H
C        0.426   0.6727   0.9122     C
C       0.4335  0.64913  0.20594     C
O      0.44478  0.16327  0.11312     O
H       0.4467   0.5634   0.8962     H
C       0.4487  0.21118  0.70444     C
C       0.4488  0.28403  0.63854     C
C       0.4604  0.16836  0.30388     C
C       0.4626   0.0806   0.3258     C
H       0.4636   0.9069   0.2432     H
H       0.4661   0.1322   0.8494     H
C       0.4665  0.85668  0.28604     C
C       0.4666  0.71274  0.41292     C
H       0.4675   0.6632   0.4564     H
O       0.4696  0.73062  0.05478     O
H       0.4704   0.0346   0.6024     H
H       0.4737   0.5747   0.3102     H
C       0.4737  0.97509  0.61542     C
C       0.4815  0.79952  0.65436     C
H       0.4853   0.7399    0.668     H
H       0.4899   0.3557   0.8118     H
H       0.4939   0.3158    0.096     H
H       0.5061   0.6842    0.904     H
H       0.5101   0.6443   0.1882     H
H       0.5147   0.2601    0.332     H
C       0.5185  0.20048  0.34564     C
C       0.5263  0.02491  0.38458     C
H       0.5263   0.4253   0.6898     H
H       0.5296   0.9654   0.3976     H
O       0.5304  0.26938  0.94522     O
H       0.5325   0.3368   0.5436     H
C       0.5334  0.28726  0.58708     C
C       0.5335  0.14332  0.71396     C
H       0.5339   0.8678   0.1506     H
H       0.5364   0.0931   0.7568     H
C       0.5374   0.9194   0.6742     C
C       0.5396  0.83164  0.69612     C
C       0.5512  0.71597  0.36146     C
C       0.5513  0.78882  0.29556     C
H       0.5533   0.4366   0.1038     H
O      0.55522  0.83673  0.88688     O
C       0.5665  0.35087  0.79406     C
C        0.574   0.3273   0.0878     C
H       0.5794   0.7939   0.7384     H
C       0.5819  0.14531  0.40698     C
C       0.5873   0.0575   0.4258     C
C       0.5884  0.39309  0.72122     C
Ni     0.59149  0.17236  0.04948    Ni
O       0.5917  0.95413  0.71538     O
H       0.5992   0.0689   0.2106     H
O       0.6052  0.96968   0.8684     O
C       0.6078  0.83633  0.16434     C
H       0.6083   0.6697   0.3706     H
C        0.609  0.39999  0.09302     C
H       0.6125   0.5702   0.0628     H
C       0.6138  0.15129  0.65902     C
N       0.6169  0.22235  0.59676     N
C       0.6216  0.89957  0.86192     C
O       0.6235  0.25986  0.43986     O
C       0.6309  0.25506  0.92108     C
H       0.6316   0.0195    0.466     H
C       0.6379  0.79205   0.2375     C
C       0.6436  0.18083  0.45134     C
N       0.6482  0.27223  0.07156     N
C       0.6582  0.30089  0.84182     C
H       0.6657   0.8625   0.0644     H
H       0.6689   0.1046   0.6656     H
C       0.6746  0.05188  0.19824     C
H       0.6813   0.6947   0.0564     H
C       0.6878  0.83313  0.11294     C
C       0.6938  0.57232  0.06876     C
C       0.7011  0.38803  0.69454     C
N       0.7034  0.08157  0.12842     N
C       0.7064  0.91857  0.74166     C
O      0.71052  0.20259  0.96266     O
H       0.7158   0.4167   0.6452     H
O       0.7171  0.13257  0.50032     O
H       0.7249    0.979   0.3012     H
C       0.7255  0.89055  0.81544     C
C        0.729  0.41855   0.0819     C
C       0.7359  0.64723  0.06454     C
C       0.7498  0.99756  0.25328     C
Ni        0.75  0.23927  0.52146    Ni
C       0.7502  0.74916  0.25328     C
C       0.7641  0.28823  0.06454     C
C        0.771  0.49955   0.0819     C
C       0.7745  0.29401  0.81544     C
H       0.7751   0.7198   0.3012     H
O       0.7829  0.36711  0.50032     O
H       0.7842   0.9381   0.6452     H
O      0.78948  0.83475  0.96266     O
C       0.7936  0.33977  0.74166     C
N       0.7966  0.79001  0.12842     N
C       0.7989  0.91743  0.69454     C
C       0.8062  0.35892  0.06876     C
C       0.8122  0.05393  0.11294     C
H       0.8187   0.2489   0.0564     H
C       0.8254  0.74988  0.19824     C
H       0.8311   0.2298   0.6656     H
H       0.8343   0.0731   0.0644     H
C       0.8418  0.85729  0.84182     C
N       0.8518  0.65621  0.07156     N
C       0.8564  0.36783  0.45134     C
C       0.8621  0.97045   0.2375     C
H       0.8684   0.5145    0.466     H
C       0.8691  0.82386  0.92108     C
O       0.8765  0.30028  0.43986     O
C       0.8784  0.23851  0.86192     C
N       0.8831  0.18089  0.59676     N
C       0.8862  0.18969  0.65902     C
H       0.8875    0.367   0.0628     H
C        0.891  0.50699  0.09302     C
H       0.8917   0.9597   0.3706     H
C       0.8922  0.99933  0.16434     C
O       0.8948  0.16192   0.8684     O
H       0.9008   0.7205   0.2106     H
O       0.9083  0.33049  0.71538     O
Ni     0.90851  0.77816  0.04948    Ni
C       0.9116  0.88569  0.72122     C
C       0.9127   0.5167   0.4258     C
C       0.9181  0.44771  0.40698     C
H       0.9206   0.4677   0.7384     H
C        0.926   0.5849   0.0878     C
C       0.9335  0.85507  0.79406     C
O      0.94478  0.27639  0.88688     O
H       0.9467   0.4596   0.1038     H
C       0.9487  0.91562  0.29556     C
C       0.9488  0.92257  0.36146     C
C       0.9604  0.47224  0.69612     C
C       0.9626   0.4064   0.6742     C
H       0.9636   0.1501   0.7568     H
H       0.9661   0.9816   0.1506     H
C       0.9665  0.14272  0.71396     C
C       0.9666  0.12566  0.58708     C
H       0.9675   0.1196   0.5436     H
O       0.9696   0.7854  0.94522     O
H       0.9704    0.637   0.3976     H
C       0.9737  0.59051  0.38458     C
H       0.9737   0.8849   0.6898     H
C       0.9815  0.45388  0.34564     C
H       0.9853   0.4079    0.332     H
H       0.9899   0.1675   0.1882     H
H       0.9939   0.4118    0.904     H
