data_I
_chemical_name_common  '/home/zhangsd/repos/MofS-CGCNN/ML/data/TSD/clean_cifs/NUYWEK_clean'
_cell_length_a  9.14700
_cell_length_b  9.21900
_cell_length_c 14.60400
_cell_angle_alpha 97.97300
_cell_angle_beta  104.95600
_cell_angle_gamma 104.56500
_space_group_name_H-M_alt      'P 1'


loop_
_space_group_symop_operation_xyz
  'x, y, z' 

loop_
_atom_site_label
_atom_site_fract_x
_atom_site_fract_y
_atom_site_fract_z
_atom_site_type_symbol
C       0.0024   0.5705    0.353     C
H       0.0154   0.2908    0.262     H
H        0.034   0.6955    0.486     H
C       0.0732   0.3288   0.3273     C
N       0.0805   0.4628   0.3835     N
C       0.0853   0.9842   0.1212     C
N       0.0875     0.86   0.0582     N
H       0.0892   0.6836   0.9027     H
C       0.0939    0.196   0.7195     C
H       0.1059   0.2884   0.9089     H
N        0.111   0.1896   0.6359     N
C        0.164   0.2618    0.383     C
C       0.1729   0.4724   0.4714     C
H       0.1761    0.205    0.775     H
H       0.1802   0.1683   0.3632     H
H       0.1954   0.5521   0.5244     H
N       0.2294   0.3537   0.4741     N
C       0.2307   0.0521   0.1764     C
C       0.2382   0.8608    0.084     C
H       0.2616   0.1381   0.2265     H
H       0.2729   0.7835    0.057     H
N       0.3317   0.9788   0.1501     N
Cd     0.33834  0.24758  0.59602    Cd
H       0.3572   0.8449    0.343     H
O       0.3584   0.0715    0.468     O
O       0.3926   0.0152   0.6124     O
C       0.4012   0.9895   0.5226     C
C       0.4098   0.7998   0.3889     C
H       0.4321   0.6241   0.2938     H
C       0.4449   0.8582   0.4881     C
O        0.447   0.3848   0.7638     O
C       0.4579   0.6667   0.3596     C
H       0.5297   0.4389   0.2473     H
C         0.53   0.7867   0.5543     C
C        0.536   0.6055   0.4228     C
H       0.5493   0.8206   0.6206     H
H       0.5663    0.091   0.8557     H
O       0.5677   0.1311   0.0324     O
C       0.5688   0.4043   0.3028     C
C       0.5771    0.445   0.7484     C
H       0.5799   0.6219   0.9063     H
C       0.5821   0.6709   0.5231     C
N       0.5869   0.4745    0.395     N
Cd     0.59716  0.07904  0.18877    Cd
O       0.5982   0.4077   0.6696     O
N       0.6148   0.2805   0.3038     N
C       0.6388   0.3774   0.4543     C
H       0.6484   0.6341   0.5675     H
O       0.6529   0.8383   0.1664     O
H       0.6543   0.1071   0.7258     H
H       0.6543   0.3902   0.5208     H
C       0.6611   0.2663    0.399     C
C       0.6746     0.13   0.8655     C
C        0.684   0.6362   0.9057     C
H       0.7017   0.1898   0.4203     H
C        0.707   0.5549   0.8282     C
C       0.7076   0.1569   0.0442     C
C       0.7255   0.1364   0.7882     C
C       0.7423   0.8753   0.2548     C
H       0.7566   0.1703    0.606     H
O       0.7599   0.9974    0.312     O
C       0.7778     0.18   0.9619     C
H       0.7801   0.7923   0.0342     H
H       0.7922   0.6409   0.1578     H
C       0.8027   0.7383   0.9836     C
O       0.8059    0.169   0.1271     O
C       0.8339   0.7676   0.2883     C
C       0.8434   0.6526   0.2235     C
C         0.86   0.5641   0.8312     C
C       0.8632   0.1757   0.6277     C
H       0.8797   0.4998   0.7839     H
C       0.8882   0.1881   0.8033     C
H       0.9027   0.8701   0.4277     H
C       0.9067   0.7882   0.3843     C
H       0.9253   0.1596   0.5066     H
C       0.9269   0.5522   0.2522     C
C        0.928   0.2269   0.9753     C
H       0.9335   0.4748   0.2067     H
N       0.9478   0.1888   0.7204     N
C       0.9551   0.1718   0.5737     C
C       0.9573   0.7559   0.9825     C
C        0.986     0.67   0.9048     C
C       0.9895   0.6855   0.4197     C
H       0.9956   0.2513   0.0385     H
H       0.9965   0.0142   0.1239     H
C       0.9979   0.2442   0.8977     C
