data_I
_chemical_name_common  '/home/zhangsd/repos/MofS-CGCNN/ML/data/TSD/clean_cifs/NUZSAD_clean'
_cell_length_a  7.97000
_cell_length_b  9.41900
_cell_length_c 10.39100
_cell_angle_alpha 95.79000
_cell_angle_beta  112.08400
_cell_angle_gamma 110.00200
_space_group_name_H-M_alt      'P 1'


loop_
_space_group_symop_operation_xyz
  'x, y, z' 

loop_
_atom_site_label
_atom_site_fract_x
_atom_site_fract_y
_atom_site_fract_z
_atom_site_type_symbol
O       0.0727   0.0172   0.1376     O
H       0.0731   0.4876    0.901     H
O       0.1046   0.7621   0.9724     O
H       0.1171   0.7887   0.2261     H
N       0.1405    0.007    0.275     N
C       0.1557   0.8749   0.3029     C
H       0.1842   0.2252   0.3565     H
C       0.1917   0.1318   0.3794     C
C       0.2159   0.5585   0.9424     C
C        0.227   0.8642   0.4421     C
C        0.239    0.725   0.9642     C
O       0.2431   0.9929   0.7693     O
H       0.2438   0.7726   0.4628     H
C       0.2554   0.1227   0.5205     C
O       0.2564   0.2811   0.9342     O
H       0.2665   0.5378   0.1492     H
H       0.2671    0.536   0.8731     H
C       0.2751   0.9892   0.5538     C
Eu     0.28165   0.0509  0.01101    Eu
H       0.2857   0.2082   0.5946     H
C       0.3241   0.3635   0.0604     C
C       0.3277   0.5267   0.0838     C
C        0.347   0.9783   0.7076     C
O       0.3916   0.3134    0.169     O
O       0.3988   0.8325   0.9768     O
H       0.4673   0.6055   0.1306     H
O       0.4972   0.0433    0.242     O
O       0.5028   0.9567    0.758     O
H       0.5327   0.3945   0.8694     H
O       0.6012   0.1675   0.0232     O
O       0.6084   0.6866    0.831     O
C        0.653   0.0217   0.2924     C
C       0.6723   0.4733   0.9162     C
C       0.6759   0.6365   0.9396     C
H       0.7143   0.7918   0.4054     H
Eu     0.71835   0.9491  0.98899    Eu
C       0.7249   0.0108   0.4462     C
H       0.7329    0.464   0.1269     H
H       0.7335   0.4622   0.8508     H
O       0.7436   0.7189   0.0658     O
C       0.7446   0.8773   0.4795     C
H       0.7562   0.2274   0.5372     H
O       0.7569   0.0071   0.2307     O
C        0.761    0.275   0.0358     C
C        0.773   0.1358   0.5579     C
C       0.7841   0.4415   0.0576     C
C       0.8083   0.8682   0.6206     C
H       0.8158   0.7748   0.6435     H
C       0.8443   0.1251   0.6971     C
N       0.8595    0.993    0.725     N
H       0.8829   0.2113   0.7739     H
O       0.8954   0.2379   0.0276     O
H       0.9269   0.5124    0.099     H
O       0.9273   0.9828   0.8624     O
