data_I
_chemical_name_common  '/home/zhangsd/repos/MofS-CGCNN/ML/data/TSD/clean_cifs/OBIBOT_clean'
_cell_length_a 19.51900
_cell_length_b 19.94300
_cell_length_c 32.10600
_cell_angle_alpha 76.68700
_cell_angle_beta  83.42500
_cell_angle_gamma 61.03400
_space_group_name_H-M_alt      'P 1'


loop_
_space_group_symop_operation_xyz
  'x, y, z' 

loop_
_atom_site_label
_atom_site_fract_x
_atom_site_fract_y
_atom_site_fract_z
_atom_site_type_symbol
C       0.0013   0.1684  0.25292     C
O      0.00382   0.2155  0.27936     O
H       0.0049   0.9139   0.3796     H
H       0.0126   0.1268   0.9832     H
C        0.014   0.0714  0.15819     C
H       0.0158   0.1192   0.4933     H
C       0.0161   0.0404  0.29861     C
C       0.0173   0.0032  0.67617     C
C       0.0181   0.0554  0.90621     C
H       0.0198   0.1352   0.8516     H
H       0.0219   0.2911   0.3237     H
C       0.0242   0.0747  0.40716     C
C       0.0269   0.0286  0.54359     C
H       0.0279   0.1461   0.1042     H
C       0.0291   0.9514  0.20413     C
C       0.0309     0.04  0.03698     C
C       0.0312   0.8841  0.72097     C
C        0.032   0.9186  0.35195     C
H       0.0325   0.7979   0.7722     H
H       0.0326   0.1522   0.3558     H
H       0.0332   0.1548   0.8946     H
H       0.0334    0.174   0.4006     H
H       0.0382   0.1655    0.148     H
C        0.046   0.1128  0.87946     C
O      0.04609  0.85562  0.33143     O
C       0.0478    0.931  0.95178     C
C       0.0501   0.1234  0.13307     C
H       0.0501   0.8458    0.243     H
C       0.0501   0.9477  0.44987     C
H       0.0514    0.087   0.7313     H
C       0.0518    0.012  0.78749     C
C       0.0524   0.1311  0.38521     C
C       0.0534   0.0845  0.51676     C
C       0.0539   0.9021  0.58805     C
H       0.0546   0.1361   0.2425     H
C        0.056   0.0901  0.00343     C
C        0.056   0.2445  0.27056     C
C       0.0576   0.2834   0.3003     C
O      0.05783  0.13043  0.54438     O
C       0.0586   0.9173  0.08428     C
C       0.0618   0.9946  0.17693     C
C       0.0633   0.8952  0.83587     C
H       0.0675   0.7336   0.3118     H
C        0.072   0.9793  0.92214     C
O      0.07705  0.13265   0.0256     O
C        0.079    0.997  0.42564     C
H       0.0791   0.2066   0.5867     H
C         0.08   0.9532   0.5637     C
C       0.0817   0.8675  0.22513     C
H       0.0824   0.2202   0.8063     H
H       0.0827   0.9147   0.3578     H
C       0.0853   0.0573  0.75679     C
C       0.0858   0.9659  0.05557     C
C       0.0886   0.7816  0.35393     C
O      0.08916  0.11038  0.77961     O
C       0.0921   0.1758  0.52954     C
H       0.0925   0.8072   0.8909     H
C        0.093   0.7225  0.33786     C
H        0.093    0.794     0.63     H
H        0.094   0.8096    0.966     H
C        0.096   0.9741  0.67271     C
C       0.0981   0.9371  0.80882     C
C       0.0994   0.2131  0.55861     C
H       0.1013    0.057   0.9871     H
H       0.1028   0.0847   0.8751     H
C       0.1038   0.0044  0.29214     C
H       0.1041   0.8257   0.4622     H
H       0.1043   0.2083   0.2145     H
H       0.1047   0.8196   0.1342     H
H       0.1049   0.6853   0.0466     H
H       0.1054   0.0552    0.504     H
H       0.1062   0.8592   0.5025     H
C       0.1064   0.2338  0.23563     C
H        0.107   0.0914   0.1311     H
H       0.1079   0.8423   0.0036     H
C        0.108   0.8471  0.97252     C
O       0.1081   0.6008  0.27026     O
H       0.1088   0.8367    0.203     H
H       0.1098   0.1043   0.3847     H
C       0.1111   0.3113  0.29617     C
H       0.1115   0.3389   0.3165     H
C       0.1118   0.8652  0.47137     C
O      0.11266  0.78554  0.07809     O
C        0.114   0.8493  0.71573     C
C       0.1147   0.8186  0.60566     C
C       0.1155    0.814  0.86213     C
H       0.1161   0.0048   0.2616     H
H       0.1167   0.0406   0.6171     H
H       0.1172   0.0702   0.6593     H
C       0.1179   0.8341  0.10391     C
C       0.1189   0.2074  0.78338     C
H       0.1196   0.1577   0.4686     H
H       0.1203   0.8656    0.243     H
O      0.12102  0.75685  0.83971     O
C       0.1223   0.1844  0.48885     C
H       0.1235   0.0347   0.3022     H
C       0.1237   0.1643   0.0056     C
C       0.1284    0.151   0.7627     C
H       0.1288   0.9504   0.3083     H
H       0.1322   0.1963   0.0591     H
H       0.1329   0.7405   0.7472     H
O      0.13368  0.77913  0.57077     O
C       0.1337    0.024  0.64699     C
H       0.1341    0.137    0.946     H
C       0.1342   0.7668  0.38926     C
C       0.1345   0.2588  0.54813     C
C       0.1351   0.6454   0.3597     C
H       0.1354   0.8081   0.3985     H
H       0.1376   0.6039   0.3487     H
H       0.1382   0.0216   0.7474     H
H       0.1383   0.2838    0.569     H
C       0.1407   0.6611  0.06973     C
H       0.1421   0.6444   0.8113     H
C       0.1453   0.8969  0.69381     C
C       0.1464   0.9557  0.16495     C
C       0.1486   0.1957  0.03015     C
C       0.1497   0.1603  0.96304     C
C       0.1531   0.7058   0.0927     C
C       0.1542   0.9473  0.90579     C
H       0.1555   0.9761   0.8764     H
H       0.1556   0.9875   0.1385     H
C       0.1576   0.2342  0.47769     C
H       0.1579   0.2835   0.7857     H
C       0.1602   0.2619   0.2327     C
H       0.1603   0.8362   0.9611     H
H       0.1614   0.9037   0.1591     H
H       0.1617   0.8173   0.6154     H
C       0.1629   0.2456  0.77065     C
C       0.1642    0.299   0.2623     C
H       0.1644   0.8583    0.463     H
C       0.1647   0.6805  0.85852     C
C       0.1652   0.7643  0.73276     C
C       0.1655   0.2701  0.50731     C
H       0.1682   0.8078   0.8655     H
C       0.1691   0.9255  0.55907     C
C       0.1705   0.9638  0.41147     C
O       0.1706   0.3624  0.06902     O
C       0.1711   0.6266  0.83692     C
H       0.1713   0.8285   0.1025     H
H       0.1728      0.7   0.5159     H
C       0.1733   0.9386  0.04503     C
C       0.1735   0.6289  0.39763     C
H       0.1753   0.8915   0.9049     H
H        0.176   0.2428   0.4493     H
N        0.176   0.5414   0.2722     N
H       0.1765   0.9946   0.3837     H
H       0.1772   0.5491   0.0655     H
C       0.1789   0.6867  0.41078     C
C       0.1794   0.1343  0.72681     C
C       0.1813   0.6986   0.5781     C
H       0.1818   0.9402   0.0142     H
H       0.1818   0.9596   0.5705     H
C       0.1823   0.5807   0.0818     C
H       0.1825   0.0981    0.711     H
H       0.1839   0.9276   0.5288     H
C       0.1866   0.8993  0.80057     C
H       0.1892   0.9732   0.0535     H
O       0.1898   0.2976  0.13343     O
H       0.1908   0.9927   0.6483     H
C       0.1924   0.6665  0.54283     C
O      0.19351   0.9469  0.19868     O
H        0.194   0.7385   0.7091     H
H       0.1947   0.9081   0.4095     H
H       0.1954    0.255   0.2091     H
H       0.1969    0.897   0.7702     H
C       0.1976   0.2266  0.01286     C
H        0.198   0.8716    0.575     H
O          0.2   0.5377   0.2332     O
C       0.2002   0.1928  0.94694     C
H       0.2007   0.6732   0.6414     H
O      0.20094  0.95558  0.93362     O
H       0.2019   0.6916   0.9126     H
H       0.2025   0.7581   0.7532     H
O        0.204  0.97382  0.44636     O
H       0.2046   0.8849   0.0607     H
C       0.2047   0.6706  0.12676     C
C       0.2056   0.6549  0.89701     C
H       0.2077   0.9305   0.8083     H
C       0.2091   0.6514  0.61676     C
H       0.2119   0.8462   0.8179     H
H        0.212    0.674    0.434     H
N       0.2134     0.31  0.09638     N
H       0.2135   0.2496     0.03     H
C        0.214   0.3118  0.49619     C
H        0.214   0.7009    0.142     H
C       0.2149   0.2298  0.73597     C
C       0.2172   0.5487  0.85032     C
O      0.21742  0.49126  0.40992     O
H        0.218   0.1919   0.9182     H
C       0.2184   0.5467  0.42114     C
H       0.2215   0.5128   0.8339     H
O       0.2222   0.5032  0.29954     O
O       0.2228    0.564  0.74442     O
Ba     0.22306    0.385  0.36961    Ba
C       0.2236   0.3274   0.2586     C
C       0.2242    0.225  0.97104     C
C       0.2244   0.1724  0.71553     C
O      0.22626  0.35931  0.28732     O
O      0.22912  0.33034  0.45755     O
C       0.2307   0.5454  0.11677     C
C       0.2314   0.5866  0.54548     C
C       0.2322   0.8648  0.69278     C
O      0.23565  0.32635  0.52655     O
H       0.2384   0.5656   0.5207     H
C       0.2416   0.5909  0.13773     C
H       0.2454   0.9067   0.6933     H
C       0.2497   0.5717  0.61977     C
C       0.2518   0.5749  0.91218     C
H       0.2557   0.8229   0.7183     H
C       0.2585   0.5219  0.88912     C
C       0.2608   0.5365   0.5853     C
H       0.2624   0.1585   0.6934     H
O      0.26345  0.83388  0.65467     O
C       0.2651   0.2705  0.72402     C
O      0.26729  0.30936  0.74905     O
O       0.2678  0.53398     0.45     O
O      0.26992  0.31626   0.2267     O
H       0.2709   0.5393   0.6467     H
C       0.2713   0.9074  0.19356     C
O      0.27172  0.41828  0.10479     O
C       0.2762   0.4569  0.12813     C
H       0.2767   0.5662   0.1613     H
H       0.2787    0.557   0.9386     H
H       0.2792   0.9208   0.1283     H
C       0.2803   0.2555  0.95338     C
C       0.2804   0.9061  0.93435     C
N       0.2819   0.4942   0.7426     N
H       0.2829   0.9663   0.5042     H
O       0.2835   0.4376  0.76952     O
O       0.2846  0.26824  0.09075     O
C       0.2859   0.9281  0.45046     C
H       0.2914   0.8542   0.8848     H
Ba     0.29171  0.31348   0.8307    Ba
H        0.292   0.8851   0.2565     H
H        0.297   0.9466   0.9828     H
C       0.2977   0.4513  0.58931     C
Ba     0.29957   0.3853  0.02355    Ba
O      0.30114  0.42431  0.55712     O
O       0.3025  0.28281  0.97776     O
H       0.3042   0.8847   0.3967     H
O      0.30473   0.2603  0.68947     O
O      0.30647  0.24838  0.91621     O
C        0.309   0.8996  0.15384     C
Ba     0.31022  0.28289  0.60366    Ba
C       0.3132   0.4355  0.90347     C
C       0.3163   0.8766  0.22949     C
C       0.3168   0.9319  0.48612     C
O      0.31703  0.42757  0.16176     O
C       0.3193   0.8553   0.9068     C
C       0.3229   0.9089  0.96518     C
O       0.3234  0.40819  0.62576     O
O      0.32606  0.39201  0.87818     O
O       0.3264    0.743  0.11794     O
C       0.3275   0.8851  0.42092     C
O       0.3319  0.48617  0.71393     O
Ba     0.33591  0.37914  0.47704    Ba
H       0.3432   0.7714   0.5938     H
C       0.3439   0.7947  0.65205     C
Ba     0.34477  0.39805  0.24769    Ba
O      0.34667  0.41432  0.93913     O
Ba     0.36122  0.27424  0.15695    Ba
O      0.36647  0.34077  0.33129     O
H       0.3723    0.813   0.7065     H
C       0.3763   0.7658  0.61527     C
O      0.37801  0.34339  0.39897     O
C       0.3894    0.861  0.15209     C
Ba     0.38986  0.33493  0.70371    Ba
O       0.3901  0.79188  0.07057     O
N        0.391   0.7392  0.10062     N
C       0.3933   0.7897  0.68217     C
C       0.3968   0.8333  0.22695     C
C       0.3978   0.8858  0.49634     C
C        0.399   0.8599  0.97047     C
C       0.3995   0.8057  0.91123     C
C       0.4085   0.3252   0.3631     C
C       0.4098   0.8401  0.42922     C
H       0.4138   0.8595   0.1247     H
H        0.419   0.8878   0.5209     H
H       0.4258   0.8614   0.9929     H
H        0.426   0.7714   0.8918     H
O       0.4262  0.25733  0.54611     O
H       0.4263   0.8085   0.2527     H
O       0.4296   0.8383  0.75792     O
O        0.434  0.28223  0.07934     O
C       0.4365   0.8246  0.18761     C
O      0.43753  0.25823  0.78328     O
O       0.4411  0.24051  0.23432     O
C       0.4414   0.8053  0.94333     C
Ba     0.44209  0.25974  0.93034    Ba
H       0.4432    0.811   0.4088     H
C       0.4441   0.8375  0.46796     C
O       0.4482  0.21683  0.48552     O
O      0.44833  0.22555  0.85318     O
O      0.44849  0.26636  0.01268     O
O       0.4553  0.68601  0.11795     O
C       0.4554   0.7295  0.60972     C
O       0.4597   0.2336  0.64686     O
C       0.4681   0.2144  0.51956     C
C       0.4732   0.7501  0.67593     C
C       0.4756   0.2509   0.0498     C
H       0.4765   0.7116   0.5839     H
O       0.4776   0.1143  0.65529     O
C        0.479   0.2223  0.81651     C
O        0.482  0.79541  0.82083     O
N       0.4898   0.1647  0.66613     N
N         0.49   0.7973  0.78145     N
H        0.493   0.2552   0.3031     H
C       0.4944   0.2819  0.35956     C
O       0.4972   0.8392  0.29417     O
O       0.5028   0.1608  0.70583     O
C       0.5056   0.7181  0.64044     C
H        0.507   0.7448   0.6969     H
N         0.51   0.2027  0.21855     N
N       0.5102   0.8353  0.33387     N
O        0.518  0.20459  0.17917     O
C        0.521   0.7777  0.18349     C
O       0.5224   0.8857  0.34471     O
H       0.5235   0.2884   0.4161     H
C       0.5244   0.7491   0.9502     C
C       0.5268   0.2499  0.32407     C
C       0.5319   0.7856  0.48044     C
O       0.5403   0.7664  0.35314     O
C       0.5446   0.2705  0.39028     C
O       0.5447  0.31399  0.88205     O
O      0.55151  0.73364  0.98732     O
O      0.55167  0.77445  0.14682     O
O       0.5518  0.78317  0.51448     O
C       0.5559   0.1625  0.53204     C
H       0.5568    0.189   0.5912     H
Ba     0.55791  0.74026  0.06966    Ba
C       0.5586   0.1947  0.05667     C
O       0.5589  0.75949  0.76568     O
O      0.56247  0.74177  0.21672     O
C       0.5635   0.1754  0.81239     C
O        0.566  0.71777  0.92066     O
O       0.5704   0.1617  0.24208     O
H       0.5737   0.1915   0.7473     H
O       0.5738  0.74267  0.45389     O
H        0.574   0.2286   0.1082     H
H       0.5742   0.1386   0.0071     H
H        0.581   0.1122   0.4791     H
H       0.5862   0.1405   0.8753     H
C       0.5902   0.1599  0.57078     C
C       0.5915   0.6748   0.6369     C
C       0.6005   0.1943  0.08877     C
C        0.601   0.1401  0.02953     C
C       0.6022   0.1142  0.50366     C
C       0.6032   0.1667  0.77305     C
C       0.6067   0.2103  0.31783     C
N        0.609   0.2608  0.89938     N
O       0.6099  0.20812  0.92943     O
Ba     0.61014  0.66507  0.29629    Ba
C       0.6106    0.139  0.84791     C
O      0.62199  0.65661  0.60103     O
C       0.6237   0.2342  0.38473     C
H       0.6277    0.187   0.2935     H
O      0.63353  0.65923  0.66871     O
Ba     0.63878  0.72576  0.84305    Ba
O      0.65333  0.58568  0.06087     O
Ba     0.65523  0.60195  0.75231    Ba
C       0.6561   0.2053  0.34795     C
H       0.6568   0.2286   0.4062     H
Ba     0.66409  0.62086  0.52296    Ba
O       0.6681  0.51383  0.28607     O
C       0.6725   0.1149  0.57908     C
O       0.6736    0.257  0.88206     O
O      0.67394  0.60799  0.12182     O
O       0.6766  0.59181  0.37424     O
C       0.6771   0.0911  0.03482     C
C       0.6807   0.1447   0.0932     C
O      0.68297  0.57243  0.83824     O
C       0.6832   0.0681  0.51388     C
C       0.6837   0.1234  0.77051     C
C       0.6868   0.5645  0.09653     C
Ba     0.68978  0.71711  0.39634    Ba
C        0.691   0.1004  0.84616     C
O      0.69353  0.75162  0.08379     O
O      0.69527   0.7397  0.31053     O
H       0.6958   0.1153   0.6033     H
O       0.6975  0.71719  0.02224     O
O      0.69886  0.57569  0.44288     O
Ba     0.70043   0.6147  0.97645    Ba
C       0.7023   0.5487  0.41069     C
H        0.703   0.0534   0.0172     H
H        0.708   0.1149   0.7435     H
Ba     0.70829  0.68652   0.1693    Ba
H       0.7086   0.1458   0.1152     H
C       0.7141   0.0719  0.54954     C
O       0.7154  0.73176  0.90925     O
O       0.7165   0.5624  0.23048     O
H       0.7171   0.0337   0.4958     H
N       0.7181   0.5058   0.2574     N
C       0.7196   0.0939  0.06565     C
C       0.7197   0.7445  0.04662     C
H       0.7208   0.0792   0.8717     H
H       0.7213    0.443   0.0614     H
H       0.7233   0.4338   0.8387     H
C       0.7238   0.5431  0.87187     C
O      0.72828  0.58172  0.89521     O
C       0.7287   0.0926  0.80644     C
H       0.7291   0.4607   0.3533     H
O      0.73008  0.68374   0.7733     O
O       0.7322  0.46602     0.55     O
O      0.73271  0.69064  0.25095     O
C       0.7349   0.7295  0.27598     C
O      0.73655  0.16612  0.34533     O
H       0.7376   0.8415   0.3066     H
C       0.7392   0.4635   0.4147     C
C       0.7415   0.4781  0.11088     C
H       0.7443   0.1771   0.2817     H
C       0.7482   0.4251  0.08782     C
C       0.7503   0.4283  0.38023     C
H       0.7546   0.0933   0.3067     H
C       0.7584   0.4091  0.86227     C
H       0.7616   0.4344   0.4793     H
O      0.76435  0.67365  0.47345     O
C       0.7678   0.1352  0.30722     C
C       0.7686   0.4134  0.45452     C
C       0.7693   0.4546  0.88323     C
O      0.77088  0.66966  0.54245     O
O      0.77374  0.64069  0.71268     O
C       0.7756   0.8276  0.28447     C
C       0.7758    0.775  0.02896     C
C       0.7764   0.6726   0.7414     C
Ba     0.77694    0.615  0.63039    Ba
O       0.7772    0.436  0.25558     O
O       0.7778   0.4968  0.70046     O
H       0.7785   0.4872   0.1661     H
C       0.7816   0.4533  0.57886     C
H        0.782   0.8081   0.0818     H
O      0.78258  0.50874  0.59008     O
C       0.7828   0.4513  0.14968     C
C       0.7851   0.7702  0.26403     C
H        0.786   0.2991    0.858     H
C        0.786   0.6882  0.50381     C
H       0.7865   0.7504     0.97     H
N       0.7866     0.69  0.90362     N
H        0.788    0.326    0.566     H
H       0.7881   0.1538   0.1821     H
C       0.7909   0.3486  0.38324     C
H       0.7923   0.0695   0.1917     H
C       0.7944   0.3451  0.10299     C
C       0.7953   0.3294  0.87324     C
H       0.7954   0.1151   0.9393     H
O        0.796  0.02618  0.55364     O
H       0.7975   0.2419   0.2468     H
H       0.7981   0.3084   0.0874     H
O      0.79906  0.04442  0.06638     O
H       0.7993   0.3268   0.3586     H
C       0.7998   0.8072  0.05306     C
O          0.8   0.4623   0.7668     O
H        0.802   0.1284    0.425     H
C       0.8024   0.7734  0.98714     C
H       0.8031    0.103   0.2298     H
H       0.8046    0.745   0.7909     H
H       0.8053   0.0919   0.5905     H
H        0.806   0.2615   0.2909     H
O      0.80649   0.0531  0.80132     O
C       0.8076   0.3335  0.45717     C
H       0.8092   0.0073   0.3517     H
O       0.8102   0.7024  0.86657     O
H       0.8108   0.0268   0.9465     H
C       0.8134   0.1007  0.19943     C
H       0.8161   0.0724   0.4712     H
H       0.8175   0.9019    0.289     H
C       0.8177   0.4193   0.9182     C
H       0.8182   0.0404   0.4295     H
H       0.8182   0.0598   0.9858     H
C       0.8187   0.3014   0.4219     C
C       0.8206   0.8657  0.27319     C
C       0.8211   0.3133  0.58922     C
H       0.8228   0.4509   0.9345     H
H       0.8235   0.0054   0.6163     H
N        0.824   0.4586   0.7278     N
H        0.824   0.7572   0.5507     H
H       0.8247   0.1085   0.0951     H
C       0.8265   0.3711  0.60237     C
C       0.8267   0.0614  0.95497     C
H       0.8272      0.3   0.4841     H
H       0.8287   0.1715   0.8975     H
C       0.8289   0.3734  0.16308     C
O       0.8294   0.6376  0.93098     O
C       0.8295   0.0362  0.58853     C
C       0.8309   0.0745  0.44093     C
H       0.8318   0.1922   0.1345     H
C       0.8345   0.7299  0.49269     C
C       0.8348   0.2357  0.26724     C
C       0.8353   0.3195  0.14148     C
H       0.8356   0.1417    0.537     H
C       0.8358    0.701   0.7377     C
C       0.8371   0.7544  0.22935     C
H       0.8383   0.1827   0.3846     H
H       0.8386   0.0963   0.8409     H
H       0.8397   0.1638   0.0389     H
C       0.8398   0.7381   0.7673     C
H       0.8421   0.7165   0.2143     H
C       0.8424   0.7658  0.52231     C
H       0.8444   0.0125   0.8615     H
H       0.8445   0.0239   0.1236     H
C       0.8458   0.0527  0.09421     C
C       0.8469   0.2942   0.9073     C
C       0.8503   0.8397  0.03696     C
C       0.8514   0.8043  0.96985     C
C       0.8536   0.0443  0.83505     C
C       0.8547   0.1031  0.30619     C
H       0.8579   0.3556   0.1887     H
C       0.8593   0.3389  0.93027     C
H       0.8617   0.7162    0.431     H
H       0.8618   0.9784   0.2526     H
H       0.8624   0.3961   0.6513     H
H       0.8646   0.1919   0.6015     H
C       0.8649   0.3546   0.6403     C
C       0.8655   0.7412  0.45187     C
C       0.8658   0.2332  0.61074     C
H       0.8659    0.863    0.054     H
C       0.8663    0.976  0.35301     C
O      0.86632  0.22087  0.42923     O
H       0.8671   0.2595   0.2528     H
H       0.8678   0.8037   0.9409     H
H       0.8712   0.0496   0.6917     H
C       0.8716    0.849   0.2373     C
C       0.8763   0.8357   0.9944     C
H       0.8765   0.9653   0.6978     H
C       0.8777   0.8156  0.51115     C
O      0.87898  0.24315  0.16029     O
H       0.8797   0.1344    0.757     H
H       0.8804   0.8423   0.5314     H
C       0.8811   0.7926  0.21662     C
C       0.8821   0.1659  0.89609     C
H       0.8828   0.9298   0.3407     H
H       0.8833   0.9594   0.3829     H
H       0.8839   0.9952   0.7384     H
C       0.8845    0.186  0.13787     C
C       0.8853   0.1814  0.39434     C
C        0.886   0.1507  0.28427     C
O      0.88734  0.21446  0.92191     O
C       0.8882   0.1348  0.52863     C
H       0.8885   0.6611   0.6835     H
C       0.8889   0.6887  0.70383     C
H       0.8902   0.8957   0.6153     H
H       0.8912   0.1633    0.797     H
O       0.8919   0.3992  0.72974     O
C        0.892   0.1529  0.02748     C
H       0.8921   0.1577   0.9964     H
H        0.893   0.9086   0.8689     H
C       0.8936   0.7662  0.76437     C
H       0.8938   0.1408   0.4975     H
H       0.8946   0.9448    0.496     H
H       0.8951   0.3147   0.9534     H
H       0.8953   0.1804   0.8658     H
H       0.8957   0.7917   0.7855     H
H       0.8959   0.1743   0.5378     H
C       0.8962   0.9956  0.70786     C
H       0.8972   0.9153   0.1249     H
H       0.8987    0.943   0.0129     H
C       0.9006   0.7869  0.44139     C
C       0.9019   0.0629  0.19118     C
C        0.904   0.0259  0.32729     C
H        0.906   0.1904    0.034     H
H        0.907    0.206     0.37     H
C        0.907   0.2775  0.66214     C
H       0.9075   0.1928   0.1091     H
C       0.9079   0.8242  0.47046     C
O      0.91084  0.88962  0.22039     O
C       0.9114   0.2184  0.64607     C
C       0.9142   0.0341  0.94443     C
C       0.9147   0.9427  0.24321     C
H       0.9173   0.0853   0.6422     H
H       0.9176   0.7798   0.1937     H
C       0.9183   0.1325  0.77487     C
C         0.92   0.0468   0.4363     C
H       0.9209   0.7934   0.4133     H
C        0.921    0.003  0.57436     C
O      0.92295  0.86735   0.9744     O
C        0.928   0.0207  0.07786     C
H       0.9325   0.2664   0.6882     H
C       0.9367   0.1048  0.16413     C
C       0.9382   0.0054  0.82307     C
C       0.9414   0.0827  0.91572     C
O      0.94217  0.86957  0.45562     O
C       0.9424   0.7166   0.6997     C
C        0.944   0.7555  0.72944     C
C        0.944   0.9099  0.99657     C
H       0.9454   0.8639   0.7575     H
C       0.9461   0.0979  0.41195     C
C       0.9466   0.9155  0.48324     C
C       0.9476   0.8689  0.61479     C
C       0.9482    0.988  0.21251     C
H       0.9486    0.913   0.2687     H
C       0.9499   0.0523  0.55013     C
H       0.9499   0.1542    0.757     H
C       0.9499   0.8766  0.86693     C
C       0.9522    0.069  0.04822     C
O      0.95391  0.14438  0.66857     O
C        0.954   0.8872  0.12054     C
H       0.9618   0.8345    0.852     H
H       0.9666    0.826   0.5994     H
H       0.9668   0.8452   0.1054     H
H       0.9674   0.8478   0.6442     H
H       0.9675   0.2021   0.2278     H
C        0.968   0.0814  0.64805     C
C       0.9688   0.1159  0.27903     C
C       0.9691     0.96  0.96302     C
C       0.9709   0.0486  0.79587     C
H       0.9721   0.8539   0.8958     H
C       0.9731   0.9714  0.45641     C
C       0.9758   0.9253  0.59284     C
H       0.9781   0.7089   0.6763     H
H       0.9802   0.8648   0.1484     H
C       0.9819   0.9446  0.09379     C
C       0.9827   0.9968  0.32383     C
C       0.9839   0.9596  0.70139     C
H       0.9842   0.8808   0.5067     H
C        0.986   0.9286  0.84181     C
H       0.9874   0.8732   0.0168     H
H       0.9951   0.0861   0.6204     H
O      0.99618   0.7845  0.72064     O
C       0.9987   0.8316  0.74708     C
