data_I
_chemical_name_common  '/home/zhangsd/repos/MofS-CGCNN/ML/data/TSD/clean_cifs/OCUNAE_clean'
_cell_length_a 26.44610
_cell_length_b 16.54890
_cell_length_c 13.48940
_cell_angle_alpha 90.00000
_cell_angle_beta  104.28800
_cell_angle_gamma 90.00000
_space_group_name_H-M_alt      'P 1'


loop_
_space_group_symop_operation_xyz
  'x, y, z' 

loop_
_atom_site_label
_atom_site_fract_x
_atom_site_fract_y
_atom_site_fract_z
_atom_site_type_symbol
N       0.0163   0.1858   0.0293     N
N       0.0163   0.8142   0.5293     N
O       0.0172   0.1736   0.5476     O
O       0.0172   0.8264   0.0476     O
C       0.0187   0.3981   0.4204     C
C       0.0187   0.6019   0.9204     C
C       0.0213   0.3198   0.4601     C
C       0.0213   0.6802   0.9601     C
C       0.0226    0.267   0.0717     C
C       0.0226    0.733   0.5717     C
C        0.027    0.423   0.1495     C
C        0.027    0.577   0.6495     C
H       0.0286   0.4751   0.1762     H
H       0.0286   0.5249   0.6762     H
O       0.0473   0.1331   0.0689     O
O       0.0473   0.8669   0.5689     O
H       0.0513   0.3022   0.5068     H
H       0.0513   0.6978   0.0068     H
O       0.0575   0.1925   0.2974     O
O       0.0575   0.8075   0.7974     O
C       0.0651   0.4532   0.4531     C
C       0.0651   0.5468   0.9531     C
O      0.06849     0.49   0.8898     O
O      0.06849     0.51   0.3898     O
C       0.0696   0.2927   0.1439     C
C       0.0696   0.7073   0.6439     C
C       0.0711   0.3714   0.1812     C
C       0.0711   0.6286   0.6812     C
O      0.09786   0.4405   0.5386     O
O      0.09786   0.5595   0.0386     O
N       0.1039   0.1764   0.3226     N
N       0.1039   0.8236   0.8226     N
O       0.1152   0.2879   0.9231     O
O       0.1152   0.7121   0.4231     O
C       0.1188   0.4026   0.2608     C
C       0.1188   0.5974   0.7608     C
C       0.1198   0.2435   0.1649     C
C       0.1198   0.7565   0.6649     C
O       0.1247   0.1497   0.4088     O
O       0.1247   0.8503   0.9088     O
Mn      0.1299  0.42166  0.85149    Mn
Mn      0.1299  0.57834  0.35149    Mn
O      0.13627   0.4731   0.2438     O
O      0.13627   0.5269   0.7438     O
O      0.13745   0.3618   0.3394     O
O      0.13745   0.6382   0.8394     O
C       0.1376   0.1922   0.2509     C
C       0.1376   0.8078   0.7509     C
C        0.138   0.3125   0.0091     C
C        0.138   0.6875   0.5091     C
O       0.1513   0.3862   0.0239     O
O       0.1513   0.6138   0.5239     O
C       0.1533   0.2554   0.1005     C
C       0.1533   0.7446   0.6005     C
Mn     0.17183  0.49661  0.11392    Mn
Mn     0.17183  0.50339  0.61392    Mn
C        0.186   0.1544   0.2712     C
C        0.186   0.8456   0.7712     C
H       0.1969   0.1222    0.329     H
H       0.1969   0.8778    0.829     H
C       0.2017    0.216    0.119     C
C       0.2017    0.784    0.619     C
O       0.2069   0.3815   0.8504     O
O       0.2069   0.6185   0.3504     O
O       0.2076    0.397    0.685     O
O       0.2076    0.603    0.185     O
C       0.2183   0.1655   0.2029     C
C       0.2183   0.8345   0.7029     C
H        0.223   0.2239   0.0743     H
H        0.223   0.7761   0.5743     H
C       0.2277   0.3751   0.7761     C
C       0.2277   0.6249   0.2761     C
C       0.2723   0.1249   0.2239     C
C       0.2723   0.8751   0.7239     C
H        0.277   0.2761   0.9257     H
H        0.277   0.7239   0.4257     H
C       0.2817   0.3345   0.7971     C
C       0.2817   0.6655   0.2971     C
O       0.2924    0.103    0.315     O
O       0.2924    0.897    0.815     O
O       0.2931   0.1185   0.1496     O
O       0.2931   0.8815   0.6496     O
C       0.2983    0.284    0.881     C
C       0.2983    0.716    0.381     C
H       0.3031   0.3778    0.671     H
H       0.3031   0.6222    0.171     H
C        0.314   0.3456   0.7288     C
C        0.314   0.6544   0.2288     C
Mn     0.32817  0.00339  0.88608    Mn
Mn     0.32817  0.99661  0.38608    Mn
C       0.3467   0.2446   0.8995     C
C       0.3467   0.7554   0.3995     C
O       0.3487   0.1138   0.9761     O
O       0.3487   0.8862   0.4761     O
C        0.362   0.1875   0.9909     C
C        0.362   0.8125   0.4909     C
C       0.3624   0.3078   0.7491     C
C       0.3624   0.6922   0.2491     C
O      0.36255   0.1382   0.6606     O
O      0.36255   0.8618   0.1606     O
O      0.36373   0.0269   0.7562     O
O      0.36373   0.9731   0.2562     O
Mn      0.3701  0.07834  0.14851    Mn
Mn      0.3701  0.92166  0.64851    Mn
O       0.3753   0.3503   0.5912     O
O       0.3753   0.6497   0.0912     O
C       0.3802   0.2565   0.8351     C
C       0.3802   0.7435   0.3351     C
C       0.3812   0.0974   0.7392     C
C       0.3812   0.9026   0.2392     C
O       0.3848   0.2121   0.0769     O
O       0.3848   0.7879   0.5769     O
N       0.3961   0.3236   0.6774     N
N       0.3961   0.6764   0.1774     N
O      0.40214   0.0595   0.4614     O
O      0.40214   0.9405   0.9614     O
C       0.4289   0.1286   0.8188     C
C       0.4289   0.8714   0.3188     C
C       0.4304   0.2073   0.8561     C
C       0.4304   0.7927   0.3561     C
O      0.43151     0.01   0.1102     O
O      0.43151     0.99   0.6102     O
C       0.4349   0.0468   0.5469     C
C       0.4349   0.9532   0.0469     C
O       0.4425   0.3075   0.7026     O
O       0.4425   0.6925   0.2026     O
H       0.4487   0.1978   0.4932     H
H       0.4487   0.8022   0.9932     H
O       0.4527   0.3669   0.9311     O
O       0.4527   0.6331   0.4311     O
H       0.4714   0.0249   0.8238     H
H       0.4714   0.9751   0.3238     H
C        0.473    0.077   0.8505     C
C        0.473    0.923   0.3505     C
C       0.4774    0.233   0.9283     C
C       0.4774    0.767   0.4283     C
C       0.4787   0.1802   0.5399     C
C       0.4787   0.8198   0.0399     C
C       0.4813   0.1019   0.5796     C
C       0.4813   0.8981   0.0796     C
O       0.4828   0.3264   0.4524     O
O       0.4828   0.6736   0.9524     O
N       0.4837   0.3142   0.9707     N
N       0.4837   0.6858   0.4707     N
N       0.5163   0.3142   0.5293     N
N       0.5163   0.6858   0.0293     N
O       0.5172   0.3264   0.0476     O
O       0.5172   0.6736   0.5476     O
C       0.5187   0.1019   0.9204     C
C       0.5187   0.8981   0.4204     C
C       0.5213   0.1802   0.9601     C
C       0.5213   0.8198   0.4601     C
C       0.5226    0.233   0.5717     C
C       0.5226    0.767   0.0717     C
C        0.527    0.077   0.6495     C
C        0.527    0.923   0.1495     C
H       0.5286   0.0249   0.6762     H
H       0.5286   0.9751   0.1762     H
O       0.5473   0.3669   0.5689     O
O       0.5473   0.6331   0.0689     O
H       0.5513   0.1978   0.0068     H
H       0.5513   0.8022   0.5068     H
O       0.5575   0.3075   0.7974     O
O       0.5575   0.6925   0.2974     O
C       0.5651   0.0468   0.9531     C
C       0.5651   0.9532   0.4531     C
O      0.56849     0.01   0.3898     O
O      0.56849     0.99   0.8898     O
C       0.5696   0.2073   0.6439     C
C       0.5696   0.7927   0.1439     C
C       0.5711   0.1286   0.6812     C
C       0.5711   0.8714   0.1812     C
O      0.59786   0.0595   0.0386     O
O      0.59786   0.9405   0.5386     O
N       0.6039   0.3236   0.8226     N
N       0.6039   0.6764   0.3226     N
O       0.6152   0.2121   0.4231     O
O       0.6152   0.7879   0.9231     O
C       0.6188   0.0974   0.7608     C
C       0.6188   0.9026   0.2608     C
C       0.6198   0.2565   0.6649     C
C       0.6198   0.7435   0.1649     C
O       0.6247   0.3503   0.9088     O
O       0.6247   0.6497   0.4088     O
Mn      0.6299  0.07834  0.35149    Mn
Mn      0.6299  0.92166  0.85149    Mn
O      0.63627   0.0269   0.7438     O
O      0.63627   0.9731   0.2438     O
O      0.63745   0.1382   0.8394     O
O      0.63745   0.8618   0.3394     O
C       0.6376   0.3078   0.7509     C
C       0.6376   0.6922   0.2509     C
C        0.638   0.1875   0.5091     C
C        0.638   0.8125   0.0091     C
O       0.6513   0.1138   0.5239     O
O       0.6513   0.8862   0.0239     O
C       0.6533   0.2446   0.6005     C
C       0.6533   0.7554   0.1005     C
Mn     0.67183  0.00339  0.61392    Mn
Mn     0.67183  0.99661  0.11392    Mn
C        0.686   0.3456   0.7712     C
C        0.686   0.6544   0.2712     C
H       0.6969   0.3778    0.829     H
H       0.6969   0.6222    0.329     H
C       0.7017    0.284    0.619     C
C       0.7017    0.716    0.119     C
O       0.7069   0.1185   0.3504     O
O       0.7069   0.8815   0.8504     O
O       0.7076    0.103    0.185     O
O       0.7076    0.897    0.685     O
C       0.7183   0.3345   0.7029     C
C       0.7183   0.6655   0.2029     C
H        0.723   0.2761   0.5743     H
H        0.723   0.7239   0.0743     H
C       0.7277   0.1249   0.2761     C
C       0.7277   0.8751   0.7761     C
C       0.7723   0.3751   0.7239     C
C       0.7723   0.6249   0.2239     C
H        0.777   0.2239   0.4257     H
H        0.777   0.7761   0.9257     H
C       0.7817   0.1655   0.2971     C
C       0.7817   0.8345   0.7971     C
O       0.7924    0.397    0.815     O
O       0.7924    0.603    0.315     O
O       0.7931   0.3815   0.6496     O
O       0.7931   0.6185   0.1496     O
C       0.7983    0.216    0.381     C
C       0.7983    0.784    0.881     C
H       0.8031   0.1222    0.171     H
H       0.8031   0.8778    0.671     H
C        0.814   0.1544   0.2288     C
C        0.814   0.8456   0.7288     C
Mn     0.82817  0.49661  0.38608    Mn
Mn     0.82817  0.50339  0.88608    Mn
C       0.8467   0.2554   0.3995     C
C       0.8467   0.7446   0.8995     C
O       0.8487   0.3862   0.4761     O
O       0.8487   0.6138   0.9761     O
C        0.862   0.3125   0.4909     C
C        0.862   0.6875   0.9909     C
C       0.8624   0.1922   0.2491     C
C       0.8624   0.8078   0.7491     C
O      0.86255   0.3618   0.1606     O
O      0.86255   0.6382   0.6606     O
O      0.86373   0.4731   0.2562     O
O      0.86373   0.5269   0.7562     O
Mn      0.8701  0.42166  0.64851    Mn
Mn      0.8701  0.57834  0.14851    Mn
O       0.8753   0.1497   0.0912     O
O       0.8753   0.8503   0.5912     O
C       0.8802   0.2435   0.3351     C
C       0.8802   0.7565   0.8351     C
C       0.8812   0.4026   0.2392     C
C       0.8812   0.5974   0.7392     C
O       0.8848   0.2879   0.5769     O
O       0.8848   0.7121   0.0769     O
N       0.8961   0.1764   0.1774     N
N       0.8961   0.8236   0.6774     N
O      0.90214   0.4405   0.9614     O
O      0.90214   0.5595   0.4614     O
C       0.9289   0.3714   0.3188     C
C       0.9289   0.6286   0.8188     C
C       0.9304   0.2927   0.3561     C
C       0.9304   0.7073   0.8561     C
O      0.93151     0.49   0.6102     O
O      0.93151     0.51   0.1102     O
C       0.9349   0.4532   0.0469     C
C       0.9349   0.5468   0.5469     C
O       0.9425   0.1925   0.2026     O
O       0.9425   0.8075   0.7026     O
H       0.9487   0.3022   0.9932     H
H       0.9487   0.6978   0.4932     H
O       0.9527   0.1331   0.4311     O
O       0.9527   0.8669   0.9311     O
H       0.9714   0.4751   0.3238     H
H       0.9714   0.5249   0.8238     H
C        0.973    0.423   0.3505     C
C        0.973    0.577   0.8505     C
C       0.9774    0.267   0.4283     C
C       0.9774    0.733   0.9283     C
C       0.9787   0.3198   0.0399     C
C       0.9787   0.6802   0.5399     C
C       0.9813   0.3981   0.0796     C
C       0.9813   0.6019   0.5796     C
O       0.9828   0.1736   0.9524     O
O       0.9828   0.8264   0.4524     O
N       0.9837   0.1858   0.4707     N
N       0.9837   0.8142   0.9707     N
