data_I
_chemical_name_common  '/home/zhangsd/repos/MofS-CGCNN/ML/data/TSD/clean_cifs/ODODES_clean'
_cell_length_a 13.84430
_cell_length_b 14.56150
_cell_length_c 23.96590
_cell_angle_alpha 79.22990
_cell_angle_beta  73.21190
_cell_angle_gamma 61.61640
_space_group_name_H-M_alt      'P 1'


loop_
_space_group_symop_operation_xyz
  'x, y, z' 

loop_
_atom_site_label
_atom_site_fract_x
_atom_site_fract_y
_atom_site_fract_z
_atom_site_type_symbol
C      0.00867  0.13147  0.65299     C
C      0.00938  0.25854   0.8705     C
H       0.0113   0.8321   0.7111     H
C      0.01438  0.77754   0.3831     C
C      0.01751  0.65082  0.16596     C
H       0.0224   0.9537   0.2193     H
H       0.0277   0.3412    0.579     H
C      0.02819  0.91933  0.63609     C
H       0.0371   0.3743   0.8169     H
C       0.0471   0.2794    0.604     C
C      0.04767  0.82813  0.67073     C
H       0.0521   0.8412    0.079     H
C       0.0695   0.7794    0.104     C
H       0.0703    0.971   0.5522     H
Si      0.0704  0.94778   0.3348    Si
H       0.0771   0.7524   0.4002     H
C       0.0831   0.9097   0.5775     C
C       0.0853  0.96847  0.21033     C
H       0.0976   0.9906   0.1228     H
C      0.10099  0.09719  0.67723     C
C      0.11844  0.73117  0.64835     C
H       0.1203   0.0354   0.7022     H
C      0.12459  0.59719  0.17723     C
C      0.12472  0.19983  0.88313     C
O       0.1277  0.15345  0.93235     O
H       0.1281   0.6695   0.6729     H
C      0.13011  0.99069  0.15269     C
C      0.13092  0.96755  0.25481     C
C      0.13842  0.24146   0.6295     C
H       0.1421   0.5354   0.2022     H
C       0.1569   0.8115   0.5549     C
C      0.16571  0.15082  0.66596     C
H       0.1669   0.0077   0.4105     H
C      0.17502  0.72246   0.1169     C
C      0.17531  0.72353  0.59045     C
C      0.19113  0.88162  0.37152     C
H        0.194   0.8067   0.5147     H
H       0.1954   0.5463   0.2807     H
O       0.2051  0.20803  0.85077     O
C      0.20687  0.63147  0.15299     C
C      0.20768  0.30017  0.61687     C
H        0.211   0.5094   0.3772     H
O       0.2135  0.34655  0.56765     O
C      0.21615  0.93595  0.40415     C
O      0.21917   0.0486  0.03806     O
C      0.22075  0.01262  0.13828     C
C      0.22324  0.98899  0.24013     C
O      0.22633  0.54525  0.58699     O
H       0.2283   0.1257   0.6831     H
H       0.2297   0.7476   0.0998     H
O      0.24207   0.2779  0.96996     O
H       0.2518   0.7369   0.3431     H
C      0.25322   0.6185  0.56566     C
H       0.2565   0.9878     0.27     H
H       0.2626   0.1702   0.8642     H
O       0.2639  0.29197  0.64923     O
C       0.2641  0.53153  0.28967     C
C      0.26539   0.7763  0.36472     C
C      0.26807  0.01212  0.18254     C
Zn     0.26978  0.08502  0.95488    Zn
C      0.27238  0.03457  0.07627     C
C      0.27349  0.50931  0.34731     C
H        0.297   0.3298   0.6358     H
H       0.3002   0.4258   0.9466     H
O      0.30583   0.4514  0.46194     O
Zn     0.30968  0.41498  0.54512    Zn
C       0.3102  0.88663  0.42677     C
H       0.3274   0.9258   0.4466     H
H       0.3305   0.0274   0.1734     H
H       0.3318   0.7631   0.1569     H
O      0.33632  0.61184  0.52512     O
C      0.34226  0.22887  0.94701     C
Si     0.35298  0.55222   0.1652    Si
C      0.35328  0.53245  0.24519     C
O      0.35857  0.95475  0.91301     O
C      0.35881   0.7277  0.38888     C
O      0.36513  0.03656  0.06722     O
C      0.37165  0.48738  0.36172     C
C       0.3764  0.38663  0.92677     C
C      0.38003  0.78193  0.42121     C
C      0.38322  0.46543  0.42373     C
O      0.38997  0.12776  0.94232     O
C      0.40641   0.7237  0.13528     C
H       0.4065    0.471   0.0522     H
H       0.4089    0.656    0.383     H
H       0.4149   0.5077   0.9105     H
C      0.41639  0.41933  0.13609     C
C      0.41683  0.28193  0.92121     C
C       0.4297   0.4097   0.0775     C
C      0.43738   0.8815  0.93434     C
C      0.44375  0.43595  0.90415     C
C      0.44427  0.61838  0.12848     C
H       0.4455   0.3321   0.2111     H
H       0.4479    0.844    0.117     H
C      0.45236  0.51101  0.25987     C
C      0.45347  0.32813  0.17073     C
O      0.46005  0.37224  0.55768     O
C      0.46273  0.48788  0.31746     C
H       0.4687   0.5274   0.6734     H
O      0.46891  0.46344  0.43278     O
H       0.4705   0.8305   0.8271     H
O      0.47328  0.88816  0.97488     O
C      0.47539   0.7723  0.11112     C
C       0.4767   0.3115   0.0549     C
C      0.48186  0.72887  0.44701     C
H       0.4846   0.3067   0.0147     H
H       0.4857   0.4878     0.77     H
C      0.48929  0.77647  0.90955     C
O      0.48993   0.2221  0.53004     O
C      0.49796  0.76883  0.85165     C
Zn         0.5     -0.0      0.0    Zn
Zn         0.5      0.5      0.5    Zn
C      0.50204  0.23117  0.14835     C
O      0.51007   0.7779  0.46996     O
C      0.51071  0.22353  0.09045     C
H       0.5143   0.5122     0.23     H
H       0.5154   0.6933   0.9853     H
C      0.51814  0.27113  0.55299     C
C       0.5233   0.6885   0.9451     C
C      0.52461   0.2277  0.88888     C
O      0.52672  0.11184  0.02512     O
H       0.5295   0.1695   0.1729     H
O      0.53109  0.53656  0.56722     O
H       0.5313   0.4726   0.3266     H
C      0.53727  0.51212  0.68254     C
O      0.53995  0.62776  0.44232     O
C      0.54653  0.67187  0.82927     C
C      0.54764  0.48899  0.74013     C
H       0.5521    0.156    0.883     H
H       0.5545   0.6679   0.7889     H
C      0.55573  0.38162  0.87152     C
C      0.55625  0.56405  0.09585     C
C      0.56262   0.1185  0.06566     C
C       0.5703   0.5903   0.9225     C
C      0.58317  0.71807  0.07879     C
C      0.58361  0.58067  0.86391     C
H       0.5851   0.4923   0.0895     H
H       0.5911    0.344    0.617     H
H       0.5935    0.529   0.9478     H
C      0.59359   0.2763  0.86472     C
O      0.61003  0.87224  0.05768     O
C      0.61678  0.53457  0.57627     C
C      0.61997  0.21807  0.57879     C
C       0.6236  0.61337  0.07323     C
C      0.62835  0.51262  0.63828     C
O      0.63487  0.96344  0.93278     O
C      0.64119   0.2723  0.61112     C
O      0.64143  0.04525  0.08699     O
C      0.64672  0.46755  0.75481     C
Si     0.64702  0.44778   0.8348    Si
C      0.65774  0.77113  0.05299     C
O      0.66368  0.38816  0.47488     O
H       0.6682   0.2369   0.8431     H
H       0.6695   0.9726   0.8266     H
H       0.6726   0.0742   0.5534     H
C       0.6898  0.11337  0.57323     C
Zn     0.69032  0.58502  0.45488    Zn
O      0.69417   0.5486  0.53806     O
H       0.6998   0.5742   0.0534     H
H        0.703   0.6702   0.3642     H
C      0.72651  0.49069  0.65269     C
C      0.72762  0.96543  0.92373     C
Zn     0.73022  0.91498  0.04512    Zn
C      0.73193  0.98788  0.81746     C
C      0.73461   0.2237  0.63528     C
C       0.7359  0.46847  0.71033     C
O       0.7361  0.70803  0.35077     O
H       0.7374   0.8298   0.1358     H
H       0.7435   0.0122     0.73     H
C      0.74678   0.3815  0.43434     C
H       0.7482   0.2631   0.6569     H
O      0.75793   0.7221  0.03004     O
H       0.7703   0.2524   0.9002     H
H       0.7717   0.8743   0.3169     H
O      0.77367  0.45475  0.41301     O
C      0.77676  0.01101  0.75987     C
C      0.77925  0.98738  0.86172     C
O      0.78083   0.9514  0.96194     O
C      0.78385  0.06405  0.59585     C
O       0.7865  0.65345  0.43235     O
H        0.789   0.4906   0.6228     H
C      0.79232  0.69983  0.38313     C
C      0.79313  0.36853  0.84701     C
O       0.7949  0.79197  0.14923     O
H       0.8046   0.4537   0.7193     H
H        0.806   0.1933   0.4853     H
C      0.80887  0.11838  0.62848     C
C      0.82469  0.27647  0.40955     C
C      0.82498  0.27754   0.8831     C
H       0.8331   0.9923   0.5895     H
C      0.83429  0.84918  0.33404     C
C       0.8431   0.1885   0.4451     C
H       0.8579   0.4646   0.7978     H
C      0.86158  0.75854   0.3705     C
C      0.86908  0.03245  0.74519     C
C      0.86989  0.00931  0.84731     C
H       0.8719   0.3305   0.3271     H
O       0.8723  0.84655  0.06765     O
C      0.87528  0.80017  0.11687     C
C      0.87541  0.40281  0.82277     C
H       0.8797   0.9646   0.2978     H
C      0.88156  0.26883  0.35165     C
C      0.89901  0.90281  0.32277     C
H       0.9024   0.0094   0.8772     H
C       0.9147  0.03153  0.78967     C
C       0.9169   0.0903   0.4225     C
H       0.9229   0.2476   0.5998     H
Si      0.9296  0.05222   0.6652    Si
H       0.9297    0.029   0.4478     H
C       0.9305   0.2206    0.896     C
H       0.9479   0.1588    0.921     H
C      0.95233  0.17187  0.32927     C
C       0.9529   0.7206    0.396     C
H       0.9629   0.6257   0.1831     H
C      0.97181  0.08067  0.36391     C
H       0.9723   0.6588    0.421     H
H       0.9776   0.0463   0.7807     H
C      0.98249  0.34918  0.83404     C
C      0.98562  0.22246   0.6169     C
H       0.9887   0.1679   0.2889     H
C      0.99062  0.74146   0.1295     C
C      0.99133  0.86853  0.34701     C
