data_I
_chemical_name_common  '/home/zhangsd/repos/MofS-CGCNN/ML/data/TSD/clean_cifs/ODONIF_clean'
_cell_length_a 12.57640
_cell_length_b 12.57640
_cell_length_c 62.94100
_cell_angle_alpha 90.00000
_cell_angle_beta  90.00000
_cell_angle_gamma 120.00000
_space_group_name_H-M_alt      'P 1'


loop_
_space_group_symop_operation_xyz
  'x, y, z' 

loop_
_atom_site_label
_atom_site_fract_x
_atom_site_fract_y
_atom_site_fract_z
_atom_site_type_symbol
C          0.0   0.2877  0.33333     C
C          0.0   0.4237  0.83333     C
C          0.0   0.5763  0.33333     C
C          0.0   0.7123  0.83333     C
H       0.0012   0.2079  0.71657     H
H       0.0012   0.7933   0.4501     H
H       0.0027   0.2995   0.3885     H
H       0.0027   0.7032  0.77817     H
C       0.0053   0.2618  0.70523     C
C       0.0053   0.7435  0.46144     C
H       0.0083   0.3181  0.85753     H
H       0.0083   0.6902  0.30913     H
H       0.0084   0.1832   0.3574     H
H       0.0084   0.8252  0.80927     H
H        0.015   0.3926  0.63357     H
H        0.015   0.6224   0.5331     H
N       0.0218   0.3747   0.9528     N
N       0.0218   0.6471  0.21387     N
H        0.022    0.202  0.23237     H
H        0.022     0.82   0.9343     H
H       0.0223    0.324  0.22717     H
H       0.0223   0.6983   0.9395     H
H       0.0258   0.3849   0.9393     H
H       0.0258   0.6409  0.22737     H
H       0.0368    0.412  0.89143     H
H       0.0368   0.6248  0.27523     H
C       0.0408   0.4685  0.96552     C
C       0.0408   0.5723  0.20115     C
N       0.0486   0.4507  0.98672     N
N       0.0486   0.5979  0.17995     N
N       0.0529   0.4828  0.21072     N
N       0.0529   0.5701  0.95595     N
H       0.0574   0.2695   0.9718     H
H       0.0574   0.7879  0.19487     H
H       0.0577   0.3618  0.32607     H
H       0.0577   0.6959   0.8406     H
H       0.0586   0.4986  0.82603     H
H       0.0586     0.56  0.34063     H
C       0.0665   0.2563   0.3497     C
C       0.0665   0.8102  0.81697     C
C       0.0678   0.3902  0.84984     C
C       0.0678   0.6776  0.31682     C
C       0.0702   0.2838  0.22694     C
C       0.0702   0.7864  0.93973     C
C       0.0715   0.4303  0.02994     C
C       0.0715   0.6412  0.13673     C
C       0.0753   0.5265  0.16792     C
C       0.0753   0.5488  0.99875     C
C       0.0767   0.4151  0.19767     C
C       0.0767   0.6616    0.969     C
C       0.0788   0.3649  0.38463     C
C       0.0788   0.7139  0.78204     C
N       0.0837   0.3196  0.20442     N
N       0.0837   0.7641  0.96225     N
N       0.0896   0.5423  0.01953     N
N       0.0896   0.5473  0.14714     N
N       0.0911   0.4346  0.17581     N
N       0.0911   0.6565  0.99086     N
H       0.0923   0.3068  0.15917     H
H       0.0923   0.7855   0.0075     H
H       0.0964   0.3864   0.0204     H
H       0.0964     0.71  0.14627     H
H       0.0968   0.2765  0.19527     H
H       0.0968   0.8203   0.9714     H
H       0.1018   0.4637   0.4106     H
H       0.1018   0.6381  0.75607     H
C       0.1077    0.481  0.88666     C
C       0.1077   0.6267     0.28     C
H       0.1103   0.5038  0.13947     H
H       0.1103   0.6065   0.0272     H
H        0.114   0.2395  0.49053     H
H        0.114   0.8745  0.67613     H
H       0.1226   0.3691  0.84253     H
H       0.1226   0.7535  0.32413     H
O       0.1252   0.2682  0.15513     O
O       0.1252    0.857  0.01154     O
H       0.1255   0.2395   0.3428     H
H       0.1255    0.886  0.82387     H
O       0.1302   0.3096  0.57482     O
O       0.1302   0.8206  0.59185     O
C       0.1306    0.317  0.69464     C
C       0.1306   0.8136  0.47203     C
C       0.1331   0.3635  0.36521     C
C       0.1331   0.7696  0.80146     C
C       0.1397   0.4641  0.39786     C
C       0.1397   0.6756  0.76881     C
C       0.1406   0.4902  0.86539     C
C       0.1406   0.6504  0.30127     C
O        0.143   0.2682  0.67821     O
O        0.143   0.8748  0.48846     O
C       0.1444   0.4586  0.05026     C
C       0.1444   0.6858  0.11641     C
H       0.1571   0.5662  0.91513     H
H       0.1571   0.5909  0.25153     H
O        0.171    0.557  0.06005     O
O        0.171    0.614  0.10662     O
C       0.1721   0.3544  0.59268     C
O       0.1721   0.3792  0.05662     O
O       0.1721   0.7929  0.11005     O
C       0.1721   0.8177  0.57399     C
H       0.1748   0.1832  0.47593     H
H       0.1748   0.9916  0.69073     H
O       0.1794   0.3096  0.25852     O
O       0.1794   0.8698  0.90815     O
H       0.1797   0.2765  0.63807     H
H       0.1797   0.9032   0.5286     H
H         0.18    0.202  0.60097     H
H         0.18    0.978   0.5657     H
C       0.1807   0.5749  0.90094     C
C       0.1807   0.6058  0.26572     C
C       0.1823   0.3544  0.24066     C
C       0.1823   0.8279  0.92601     C
H       0.1832   0.0084   0.6426     H
H       0.1832   0.1748  0.52407     H
O       0.1845   0.4517  0.60017     O
O       0.1845   0.7328   0.5665     O
C       0.1864    0.317   0.1387     C
C       0.1864   0.8694  0.02797     C
Co      0.1885  0.59425  0.58333    Co
H       0.1886   0.4713  0.48583     H
H       0.1886   0.7173  0.68083     H
C       0.1898   0.2563  0.48363     C
C       0.1898   0.9335  0.68303     C
O       0.1938   0.4112  0.12984     O
O       0.1938   0.7826  0.03683     O
H        0.202    0.022  0.76763     H
H        0.202     0.18  0.39903     H
H       0.2067   0.2079  0.11677     H
H       0.2067   0.9988   0.0499     H
O       0.2071   0.3792  0.77671     O
O       0.2071   0.8279  0.38995     O
H       0.2079   0.0012  0.28343     H
H       0.2079   0.2067  0.88323     H
H       0.2121   0.2695  0.86153     H
H       0.2121   0.9426  0.30513     H
C       0.2136   0.2838   0.6064     C
C       0.2136   0.9298  0.56027     C
H       0.2145   0.3068  0.67417     H
H       0.2145   0.9077   0.4925     H
O       0.2174   0.4112   0.7035     O
O       0.2174   0.8062  0.46317     O
C       0.2219   0.4667  0.47296     C
C       0.2219   0.7552   0.6937     C
C       0.2304   0.3635  0.46812     C
C       0.2304   0.8669  0.69854     C
N       0.2359   0.3196  0.62892     N
N       0.2359   0.9163  0.53775     N
H       0.2395    0.114  0.50947     H
H       0.2395   0.1255   0.6572     H
H       0.2442   0.6169  0.63067     H
H       0.2442   0.6273    0.536     H
C       0.2448   0.4667  0.36037     C
C       0.2448   0.7781   0.8063     C
C       0.2452   0.5966  0.85937     C
C       0.2452   0.6486  0.30729     C
H       0.2465   0.3691   0.9908     H
H       0.2465   0.8774  0.17587     H
N       0.2513   0.5627  0.39365     N
N       0.2513   0.6886  0.77302     N
H       0.2555   0.6267  0.70393     H
H       0.2555   0.6288  0.46273     H
C       0.2563   0.0665   0.6503     C
C       0.2563   0.1898  0.51637     C
C       0.2565   0.2618  0.12811     C
C       0.2565   0.9947  0.03856     C
C       0.2618   0.0053  0.29477     C
C       0.2618   0.2565  0.87189     C
C       0.2622    0.561  0.45887     C
C       0.2622   0.7012  0.70779     C
O       0.2672   0.4517  0.23317     O
O       0.2672   0.8155   0.9335     O
O       0.2682   0.1252  0.84487     O
O       0.2682    0.143  0.32179     O
H       0.2695   0.0574   0.0282     H
H       0.2695   0.2121  0.13847     H
H       0.2699   0.6079  0.84523     H
H       0.2699    0.662  0.32143     H
H       0.2765   0.0968  0.80473     H
H       0.2765   0.1797  0.36193     H
H       0.2827   0.4713   0.3475     H
H       0.2827   0.8114  0.81917     H
N       0.2828   0.6063  0.27168     N
N       0.2828   0.6765  0.89498     N
C       0.2838   0.0702  0.77306     C
C       0.2838   0.2136   0.3936     C
C       0.2861   0.3649   0.4487     C
C       0.2861   0.9212  0.71796     C
C       0.2877     -0.0  0.66667     C
C       0.2877   0.2877      0.5     C
H         0.29   0.3864  0.81293     H
H         0.29   0.9036  0.35373     H
H       0.2968   0.2995  0.44483     H
H       0.2968   0.9973  0.72183     H
C       0.2988    0.561  0.37446     C
C       0.2988   0.7378  0.79221     C
H       0.2995   0.0027   0.6115     H
H       0.2995   0.2968  0.55517     H
H       0.3017    0.324  0.60617     H
H       0.3017   0.9777   0.5605     H
Co     0.30362  0.65181  0.08333    Co
H       0.3041   0.3618  0.50727     H
H       0.3041   0.9423   0.6594     H
H       0.3068   0.0923  0.84083     H
H       0.3068   0.2145  0.32583     H
O       0.3096   0.1302  0.42518     O
O       0.3096   0.1794  0.74148     O
H       0.3098   0.3181   0.9758     H
H       0.3098   0.9917  0.19087     H
N       0.3114   0.5627  0.43968     N
N       0.3114   0.7487  0.72698     N
C       0.3129   0.6274  0.29274     C
C       0.3129   0.6855  0.87392     C
C       0.3142   0.4586  0.78307     C
C       0.3142   0.8556  0.38359     C
C       0.3145   0.6274  0.54059     C
C       0.3145   0.6871  0.62608     C
C        0.317   0.1306  0.30536     C
C        0.317   0.1864   0.8613     C
H       0.3181   0.0083  0.14247     H
H       0.3181   0.3098   0.0242     H
N       0.3196   0.0837  0.79558     N
N       0.3196   0.2359  0.37108     N
C       0.3224   0.3902  0.98349     C
C       0.3224   0.9322  0.18318     C
N       0.3235   0.6063  0.56165     N
N       0.3235   0.7172  0.60502     N
H        0.324   0.0223  0.77283     H
H        0.324   0.3017  0.39383     H
C       0.3244   0.4641  0.43547     C
C       0.3244   0.8603  0.73119     C
H        0.338   0.6079   0.9881     H
H        0.338   0.7301  0.17857     H
C       0.3384   0.4151  0.63567     C
C       0.3384   0.9233    0.531     C
N       0.3435   0.4346  0.65753     N
N       0.3435   0.9089  0.50914     N
Co     0.34819  0.65181     0.75    Co
Co     0.34819  0.69638  0.41667    Co
C       0.3496   0.4902  0.96794     C
C       0.3496   0.8594  0.19873     C
C       0.3514   0.5966  0.97396     C
C       0.3514   0.7548  0.19271     C
N       0.3529   0.3747  0.88053     N
N       0.3529   0.9782  0.28613     N
C       0.3544   0.1721  0.40732     C
C       0.3544   0.1823  0.75934     C
C       0.3588   0.4303  0.80339     C
C       0.3588   0.9285  0.36327     C
H       0.3591   0.3849  0.89403     H
H       0.3591   0.9742  0.27263     H
H       0.3618   0.0577  0.67393     H
H       0.3618   0.3041  0.49273     H
H       0.3619   0.4637  0.42273     H
H       0.3619   0.8982  0.74393     H
C       0.3635   0.1331  0.63479     C
C       0.3635   0.2304  0.53188     C
C       0.3649   0.0788  0.61537     C
C       0.3649   0.2861   0.5513     C
H       0.3691   0.1226  0.15747     H
H       0.3691   0.2465   0.0092     H
H       0.3712   0.6267   0.1294     H
H       0.3712   0.7445  0.03727     H
C       0.3726   0.6855  0.95941     C
C       0.3726   0.6871  0.20726     C
H       0.3727   0.6169  0.20267     H
H       0.3727   0.7558    0.964     H
C       0.3733    0.481  0.94667     C
H       0.3733   0.6288   0.3706     H
H       0.3733   0.7445  0.79607     H
C       0.3733   0.8923     0.22     C
N       0.3747   0.0218   0.0472     N
N       0.3747   0.3529  0.11947     N
H       0.3752    0.412   0.9419     H
H       0.3752   0.9632  0.22477     H
H       0.3776   0.3926  0.19977     H
H       0.3776    0.985   0.9669     H
O       0.3792   0.1721  0.94338     O
O       0.3792   0.2071  0.22329     O
H       0.3831   0.6273  0.29733     H
H       0.3831   0.7558  0.86933     H
H       0.3849   0.0258   0.0607     H
H       0.3849   0.3591  0.10597     H
O        0.386    0.557  0.77328     O
O        0.386    0.829  0.39338     O
H       0.3864   0.0964   0.9796     H
H       0.3864     0.29  0.18707     H
C       0.3902   0.0678  0.15016     C
C       0.3902   0.3224  0.01651     C
H       0.3921    0.662   0.5119     H
H       0.3921   0.7301  0.65477     H
H       0.3926    0.015  0.36643     H
H       0.3926   0.3776  0.80023     H
H       0.3935   0.5038  0.69387     H
H       0.3935   0.8897   0.4728     H
N       0.3937   0.6765  0.93835     N
N       0.3937   0.7172  0.22832     N
C       0.3942   0.5749  0.93239     C
C       0.3942   0.8193  0.23428     C
N       0.4021   0.4507  0.84661     N
N       0.4021   0.9514  0.32005     N
C       0.4034   0.6486  0.52604     C
C       0.4034   0.7548  0.64063     C
Co     0.40575  0.59425     0.25    Co
Co     0.40575   0.8115  0.91667    Co
H       0.4091   0.5662   0.9182     H
H       0.4091   0.8429  0.24847     H
O       0.4112   0.1938  0.87016     O
O       0.4112   0.2174   0.2965     O
H        0.412   0.0368  0.10857     H
H        0.412   0.3752   0.0581     H
C       0.4151   0.0767  0.80233     C
C       0.4151   0.3384  0.36433     C
C       0.4237      0.0  0.16667     C
C       0.4237   0.4237      0.0     C
C       0.4251   0.6058  0.56761     C
C       0.4251   0.8193  0.59906     C
C       0.4277   0.4685  0.86781     C
C       0.4277   0.9592  0.29885     C
N       0.4299   0.4828  0.62262     N
N       0.4299   0.9471  0.54405     N
C       0.4303   0.0715  0.97006     C
C       0.4303   0.3588  0.19661     C
H       0.4338   0.5909   0.5818     H
H       0.4338   0.8429  0.58487     H
N       0.4346   0.0911  0.82419     N
N       0.4346   0.3435  0.34247     N
N       0.4373   0.6886  0.06032     N
N       0.4373   0.7487  0.10635     N
C        0.439   0.7012  0.12554     C
C        0.439   0.7378  0.04113     C
H         0.44   0.4986   0.0073     H
H         0.44   0.9414  0.15937     H
O        0.443    0.614  0.72672     O
O        0.443    0.829  0.43995     O
N       0.4507   0.0486  0.01328     N
N       0.4507   0.4021  0.15339     N
C       0.4512   0.5265  0.66542     C
C       0.4512   0.9247  0.50125     C
O       0.4517   0.1845  0.39983     O
O       0.4517   0.2672  0.76683     O
N       0.4527   0.5423   0.8138     N
N       0.4527   0.9104  0.35286     N
N       0.4577   0.5473   0.6862     N
N       0.4577   0.9104  0.48047     N
C       0.4586   0.1444  0.94974     C
C       0.4586   0.3142  0.21693     C
H       0.4637   0.1018   0.5894     H
H       0.4637   0.3619  0.57727     H
C       0.4641   0.1397  0.60214     C
C       0.4641   0.3244  0.56453     C
C       0.4667   0.2219  0.52704     C
C       0.4667   0.2448  0.63963     C
C       0.4685   0.0408  0.03448     C
C       0.4685   0.4277  0.13219     C
H       0.4713   0.1886  0.51417     H
H       0.4713   0.2827   0.6525     H
C       0.4735   0.5488  0.83458     C
C       0.4735   0.9247  0.33208     C
C        0.481   0.1077  0.11334     C
C        0.481   0.3733  0.05333     C
N       0.4828   0.0529  0.78928     N
N       0.4828   0.4299  0.37738     N
C       0.4902   0.1406  0.13461     C
C       0.4902   0.3496  0.03206     C
H       0.4962   0.6065  0.80613     H
H       0.4962   0.8897  0.36053     H
H       0.4986   0.0586  0.17397     H
H       0.4986     0.44   0.9927     H
H       0.5014     0.56   0.4927     H
H       0.5014   0.9414  0.67397     H
H       0.5038   0.1103  0.86053     H
H       0.5038   0.3935  0.30613     H
C       0.5098   0.6504  0.53206     C
C       0.5098   0.8594  0.63461     C
N       0.5172   0.5701  0.87738     N
N       0.5172   0.9471  0.28928     N
C        0.519   0.6267  0.55333     C
C        0.519   0.8923  0.61334     C
C       0.5265   0.0753  0.83208     C
C       0.5265   0.4512  0.33458     C
H       0.5287   0.7173   0.1525     H
H       0.5287   0.8114  0.01417     H
C       0.5315   0.5723  0.63219     C
C       0.5315   0.9592  0.53448     C
C       0.5333   0.7552  0.13963     C
C       0.5333   0.7781  0.02704     C
C       0.5359   0.6756  0.06453     C
C       0.5359   0.8603  0.10214     C
H       0.5363   0.6381  0.07727     H
H       0.5363   0.8982   0.0894     H
C       0.5414   0.6858  0.71693     C
C       0.5414   0.8556  0.44974     C
N       0.5423   0.0896  0.98047     N
N       0.5423   0.4527   0.1862     N
N       0.5473   0.0896  0.85286     N
N       0.5473   0.4577   0.3138     N
O       0.5483   0.7328  0.26683     O
O       0.5483   0.8155  0.89983     O
C       0.5488   0.0753  0.00125     C
C       0.5488   0.4735  0.16542     C
N       0.5493   0.5979  0.65339     N
N       0.5493   0.9514  0.51328     N
O        0.557    0.171  0.93995     O
O        0.557    0.386  0.22672     O
H         0.56   0.0586  0.65937     H
H         0.56   0.5014   0.5073     H
C        0.561   0.2622  0.54113     C
C        0.561   0.2988  0.62554     C
N       0.5627   0.2513  0.60635     N
N       0.5627   0.3114  0.56032     N
N       0.5654   0.6565  0.84247     N
N       0.5654   0.9089  0.32419     N
H       0.5662   0.1571  0.08487     H
H       0.5662   0.4091   0.0818     H
C       0.5697   0.6412  0.69661     C
C       0.5697   0.9285  0.47006     C
N       0.5701   0.0529  0.04405     N
N       0.5701   0.5172  0.12262     N
C       0.5723   0.0408  0.79885     C
C       0.5723   0.5315  0.36781     C
C       0.5749   0.1807  0.09906     C
C       0.5749   0.3942  0.06761     C
C       0.5763     -0.0  0.66667     C
C       0.5763   0.5763      0.5     C
C       0.5849   0.6616  0.86433     C
C       0.5849   0.9233  0.30233     C
H        0.588   0.6248   0.5581     H
H        0.588   0.9632  0.60857     H
O       0.5888   0.7826   0.7965     O
O       0.5888   0.8062  0.37016     O
H       0.5909   0.1571  0.74847     H
H       0.5909   0.4338   0.4182     H
Co     0.59425   0.1885  0.41667    Co
Co     0.59425  0.40575     0.75    Co
C       0.5966   0.2452  0.14063     C
C       0.5966   0.3514  0.02604     C
N       0.5979   0.0486  0.82005     N
N       0.5979   0.5493  0.34661     N
C       0.6058   0.1807  0.73428     C
C       0.6058   0.4251  0.43239     C
N       0.6063   0.2828  0.72832     N
N       0.6063   0.3235  0.43835     N
H       0.6065   0.1103   0.9728     H
H       0.6065   0.4962  0.19387     H
H       0.6074   0.6224  0.30023     H
H       0.6074    0.985  0.86643     H
H       0.6079   0.2699  0.15477     H
H       0.6079    0.338   0.0119     H
C       0.6098   0.6776  0.51651     C
C       0.6098   0.9322  0.65016     C
H       0.6136     0.71  0.68707     H
H       0.6136   0.9036   0.4796     H
O        0.614    0.171  0.89338     O
O        0.614    0.443  0.27328     O
H       0.6151   0.6409  0.60597     H
H       0.6151   0.9742   0.5607     H
H       0.6169   0.2442  0.36933     H
H       0.6169   0.3727  0.79733     H
O       0.6208   0.7929  0.72329     O
O       0.6208   0.8279  0.44338     O
H       0.6224    0.015   0.4669     H
H       0.6224   0.6074  0.69977     H
H       0.6248   0.0368  0.72477     H
H       0.6248    0.588   0.4419     H
N       0.6253   0.6471  0.61947     N
N       0.6253   0.9782   0.5472     N
C       0.6267   0.1077     0.72     C
H       0.6267   0.2555  0.29607     H
H       0.6267   0.3712   0.8706     H
C       0.6267    0.519  0.44667     C
H       0.6273   0.2442    0.464     H
H       0.6273   0.3831  0.70267     H
C       0.6274   0.3129  0.70726     C
C       0.6274   0.3145  0.45941     C
H       0.6288   0.2555  0.53727     H
H       0.6288   0.3733   0.6294     H
H       0.6309   0.7535   0.5092     H
H       0.6309   0.8774  0.65747     H
C       0.6351   0.7139   0.0513     C
C       0.6351   0.9212  0.11537     C
C       0.6365   0.7696  0.03188     C
C       0.6365   0.8669  0.13479     C
H       0.6381   0.1018  0.24393     H
H       0.6381   0.5363  0.92273     H
H       0.6382   0.6959  0.99273     H
H       0.6382   0.9423  0.17393     H
H       0.6409   0.0258  0.77263     H
H       0.6409   0.6151  0.39403     H
C       0.6412   0.0715  0.86327     C
C       0.6412   0.5697  0.30339     C
C       0.6456   0.8177  0.25934     C
C       0.6456   0.8279  0.90732     C
N       0.6471   0.0218  0.78613     N
N       0.6471   0.6253  0.38053     N
C       0.6486   0.2452  0.69271     C
C       0.6486   0.4034  0.47396     C
C       0.6504   0.1406  0.69873     C
C       0.6504   0.5098  0.46794     C
Co     0.65181  0.30362  0.91667    Co
Co     0.65181  0.34819     0.25    Co
N       0.6565   0.0911  0.00914     N
N       0.6565   0.5654  0.15753     N
C       0.6616   0.0767    0.031     C
C       0.6616   0.5849  0.13567     C
H        0.662   0.2699  0.67857     H
H        0.662   0.3921   0.4881     H
C       0.6756   0.1397  0.23119     C
C       0.6756   0.5359  0.93547     C
H        0.676   0.6983  0.89383     H
H        0.676   0.9777  0.27283     H
N       0.6765   0.2828  0.10502     N
N       0.6765   0.3937  0.06165     N
C       0.6776   0.0678  0.68318     C
C       0.6776   0.6098  0.48349     C
N       0.6804   0.7641  0.87108     N
N       0.6804   0.9163  0.29558     N
H       0.6819   0.6902   0.5242     H
H       0.6819   0.9917  0.64247     H
C        0.683   0.8136   0.3613     C
C        0.683   0.8694  0.80536     C
C       0.6855   0.3129  0.12608     C
C       0.6855   0.3726  0.04059     C
C       0.6858   0.1444  0.88359     C
C       0.6858   0.5414  0.28307     C
C       0.6871   0.3145  0.37392     C
C       0.6871   0.3726  0.79274     C
N       0.6886   0.2513  0.22698     N
N       0.6886   0.4373  0.93968     N
H       0.6902   0.0083  0.69087     H
H       0.6902   0.6819   0.4758     H
O       0.6904   0.8206  0.24148     O
O       0.6904   0.8698  0.92518     O
H       0.6932   0.7855  0.82583     H
H       0.6932   0.9077  0.34083     H
H       0.6959   0.0577   0.1594     H
H       0.6959   0.6382  0.00727     H
Co     0.69638  0.34819  0.58333    Co
H       0.6983   0.0223   0.0605     H
H       0.6983    0.676  0.10617     H
H       0.7005   0.7032  0.05517     H
H       0.7005   0.9973   0.1115     H
C       0.7012   0.2622  0.29221     C
C       0.7012    0.439  0.87446     C
H       0.7032   0.0027  0.22183     H
H       0.7032   0.7005  0.94483     H
H         0.71   0.0964  0.85373     H
H         0.71   0.6136  0.31293     H
C       0.7123      0.0  0.16667     C
C       0.7123   0.7123      0.0     C
C       0.7139   0.0788  0.21796     C
C       0.7139   0.6351   0.9487     C
C       0.7162   0.7864   0.8936     C
C       0.7162   0.9298  0.27306     C
N       0.7172   0.3235  0.39498     N
N       0.7172   0.3937  0.77168     N
H       0.7173   0.1886  0.31917     H
H       0.7173   0.5287   0.8475     H
H       0.7235   0.8203  0.86193     H
H       0.7235   0.9032  0.30473     H
H       0.7301    0.338  0.82143     H
H       0.7301   0.3921  0.34523     H
H       0.7305   0.7879  0.63847     H
H       0.7305   0.9426   0.5282     H
O       0.7318    0.857  0.82179     O
O       0.7318   0.8748  0.34487     O
O       0.7328   0.1845   0.4335     O
O       0.7328   0.5483  0.73317     O
C       0.7378   0.2988  0.20779     C
C       0.7378    0.439  0.95887     C
C       0.7382   0.7435  0.37189     C
C       0.7382   0.9947  0.79477     C
C       0.7435   0.0053  0.53856     C
C       0.7435   0.7382  0.62811     C
C       0.7437   0.8102  0.01637     C
C       0.7437   0.9335   0.1503     C
H       0.7445   0.3712  0.96273     H
H       0.7445   0.3733  0.20393     H
N       0.7487   0.3114  0.27302     N
N       0.7487   0.4373  0.89365     N
H       0.7535   0.1226  0.67587     H
H       0.7535   0.6309   0.4908     H
C       0.7548   0.3514  0.80729     C
C       0.7548   0.4034  0.35937     C
C       0.7552   0.2219   0.3063     C
C       0.7552   0.5333  0.86037     C
H       0.7558   0.3727    0.036     H
H       0.7558   0.3831  0.13067     H
H       0.7605   0.8745   0.1572     H
H       0.7605    0.886  0.00947     H
N       0.7641   0.0837  0.03775     N
N       0.7641   0.6804  0.12892     N
C       0.7696   0.1331  0.19854     C
C       0.7696   0.6365  0.96812     C
C       0.7781   0.2448   0.1937     C
C       0.7781   0.5333  0.97296     C
O       0.7826   0.1938  0.96317     O
O       0.7826   0.5888   0.2035     O
H       0.7855   0.0923   0.9925     H
H       0.7855   0.6932  0.17417     H
C       0.7864   0.0702  0.06027     C
C       0.7864   0.7162   0.1064     C
H       0.7879   0.0574  0.80513     H
H       0.7879   0.7305  0.36153     H
H       0.7921   0.7933  0.38323     H
H       0.7921   0.9988  0.78343     H
O       0.7929   0.1721  0.88995     O
O       0.7929   0.6208  0.27671     O
H       0.7933   0.0012   0.5499     H
H       0.7933   0.7921  0.61677     H
H        0.798     0.82  0.89903     H
H        0.798    0.978  0.26763     H
O       0.8062   0.2174  0.53683     O
O       0.8062   0.5888  0.62984     O
C       0.8102   0.0665  0.18303     C
C       0.8102   0.7437  0.98363     C
H       0.8114   0.2827  0.18083     H
H       0.8114   0.5287  0.98583     H
Co      0.8115  0.40575  0.08333    Co
C       0.8136   0.1306  0.52797     C
C       0.8136    0.683   0.6387     C
O       0.8155   0.2672   0.0665     O
O       0.8155   0.5483  0.10017     O
H       0.8168   0.8252  0.02407     H
H       0.8168   0.9916   0.1426     H
C       0.8177   0.1721  0.42601     C
C       0.8177   0.6456  0.74066     C
C       0.8193   0.3942  0.76572     C
C       0.8193   0.4251  0.40094     C
H         0.82    0.022   0.0657     H
H         0.82    0.798  0.10097     H
H       0.8203   0.0968   0.0286     H
H       0.8203   0.7235  0.13807     H
O       0.8206   0.1302  0.40815     O
O       0.8206   0.6904  0.75852     O
H       0.8252   0.0084  0.19073     H
H       0.8252   0.8168  0.97593     H
C       0.8279   0.1823  0.07399     C
O       0.8279   0.2071  0.61005     O
O       0.8279   0.6208  0.55662     O
C       0.8279   0.6456  0.09268     C
O        0.829    0.386  0.60662     O
O        0.829    0.443  0.56005     O
H       0.8429   0.4091  0.75153     H
H       0.8429   0.4338  0.41513     H
C       0.8556   0.3142  0.61641     C
C       0.8556   0.5414  0.55026     C
O        0.857   0.1252  0.98846     O
O        0.857   0.7318  0.17821     O
C       0.8594   0.3496  0.80127     C
C       0.8594   0.5098  0.36539     C
C       0.8603   0.3244  0.26881     C
C       0.8603   0.5359  0.89786     C
C       0.8669   0.2304  0.30146     C
C       0.8669   0.6365  0.86521     C
C       0.8694   0.1864  0.97203     C
C       0.8694    0.683  0.19464     C
O       0.8698   0.1794  0.09185     O
O       0.8698   0.6904  0.07482     O
H       0.8745    0.114  0.32387     H
H       0.8745   0.7605   0.8428     H
O       0.8748    0.143  0.51154     O
O       0.8748   0.7318  0.65513     O
H       0.8774   0.2465  0.82413     H
H       0.8774   0.6309  0.34253     H
H        0.886   0.1255  0.17613     H
H        0.886   0.7605  0.99053     H
H       0.8897   0.3935   0.5272     H
H       0.8897   0.4962  0.63947     H
C       0.8923   0.3733     0.78     C
C       0.8923    0.519  0.38666     C
H       0.8982   0.3619  0.25607     H
H       0.8982   0.5363   0.9106     H
H       0.9032   0.1797   0.4714     H
H       0.9032   0.7235  0.69527     H
H       0.9036     0.29  0.64627     H
H       0.9036   0.6136   0.5204     H
H       0.9077   0.2145   0.5075     H
H       0.9077   0.6932  0.65917     H
N       0.9089   0.3435  0.49086     N
N       0.9089   0.5654  0.67581     N
N       0.9104   0.4527  0.64714     N
N       0.9104   0.4577  0.51953     N
N       0.9163   0.2359  0.46225     N
N       0.9163   0.6804  0.70442     N
C       0.9212   0.2861  0.28204     C
C       0.9212   0.6351  0.88463     C
C       0.9233   0.3384    0.469     C
C       0.9233   0.5849  0.69767     C
C       0.9247   0.4512  0.49875     C
C       0.9247   0.4735  0.66792     C
C       0.9285   0.3588  0.63673     C
C       0.9285   0.5697  0.52994     C
C       0.9298   0.2136  0.43973     C
C       0.9298   0.7162  0.72694     C
C       0.9322   0.3224  0.81682     C
C       0.9322   0.6098  0.34984     C
C       0.9335   0.1898  0.31697     C
C       0.9335   0.7437   0.8497     C
H       0.9414     0.44  0.84063     H
H       0.9414   0.5014  0.32603     H
H       0.9423   0.3041   0.3406     H
H       0.9423   0.6382  0.82607     H
H       0.9426   0.2121  0.69487     H
H       0.9426   0.7305   0.4718     H
N       0.9471   0.4299  0.45595     N
N       0.9471   0.5172  0.71072     N
N       0.9514   0.4021  0.67995     N
N       0.9514   0.5493  0.48672     N
C       0.9592   0.4277  0.70115     C
C       0.9592   0.5315  0.46552     C
H       0.9632   0.3752  0.77523     H
H       0.9632    0.588  0.39143     H
H       0.9742   0.3591  0.72737     H
H       0.9742   0.6151   0.4393     H
H       0.9777   0.3017   0.4395     H
H       0.9777    0.676  0.72717     H
H        0.978     0.18   0.4343     H
H        0.978    0.798  0.73237     H
N       0.9782   0.3529  0.71387     N
N       0.9782   0.6253   0.4528     N
H        0.985   0.3776   0.0331     H
H        0.985   0.6074  0.13357     H
H       0.9916   0.1748  0.30927     H
H       0.9916   0.8168   0.8574     H
H       0.9917   0.3098  0.80913     H
H       0.9917   0.6819  0.35753     H
C       0.9947   0.2565  0.96144     C
C       0.9947   0.7382  0.20523     C
H       0.9973   0.2968  0.27817     H
H       0.9973   0.7005   0.8885     H
H       0.9988   0.2067   0.9501     H
H       0.9988   0.7921  0.21657     H
