data_I
_chemical_name_common  '/home/zhangsd/repos/MofS-CGCNN/ML/data/TSD/clean_cifs/ODONEB_clean'
_cell_length_a 12.56110
_cell_length_b 12.56110
_cell_length_c 62.47100
_cell_angle_alpha 90.00000
_cell_angle_beta  90.00000
_cell_angle_gamma 120.00000
_space_group_name_H-M_alt      'P 1'


loop_
_space_group_symop_operation_xyz
  'x, y, z' 

loop_
_atom_site_label
_atom_site_fract_x
_atom_site_fract_y
_atom_site_fract_z
_atom_site_type_symbol
C          0.0    0.288  0.33333     C
C          0.0   0.4233  0.83333     C
C          0.0   0.5767  0.33333     C
C          0.0    0.712  0.83333     C
H       0.0002   0.2077  0.71697     H
H       0.0002   0.7925   0.4497     H
H       0.0024   0.2998   0.3886     H
H       0.0024   0.7026  0.77807     H
H       0.0036   0.2935  0.23267     H
H       0.0036   0.7101    0.934     H
C       0.0042   0.2611  0.70541     C
C       0.0042   0.7431  0.46126     C
H       0.0082   0.3172  0.85753     H
H       0.0082    0.691  0.30913     H
H       0.0097   0.1826   0.3573     H
H       0.0097   0.8271  0.80937     H
H       0.0152   0.3927  0.63357     H
H       0.0152   0.6225   0.5331     H
N       0.0218    0.375  0.95279     N
N       0.0218   0.6468  0.21388     N
H       0.0248   0.3849   0.9391     H
H       0.0248   0.6399  0.22757     H
H       0.0364   0.1996  0.22237     H
H       0.0364   0.8368   0.9443     H
H       0.0383   0.4121  0.89163     H
H       0.0383   0.6262  0.27503     H
C       0.0414   0.4694  0.96546     C
C       0.0414    0.572  0.20121     C
N       0.0481   0.4511  0.98671     N
N       0.0481    0.597  0.17996     N
N        0.053   0.4826  0.21079     N
N        0.053   0.5704  0.95588     N
H       0.0574   0.3618  0.32607     H
H       0.0574   0.6956   0.8406     H
H       0.0586   0.2697   0.9716     H
H       0.0586   0.4981  0.82603     H
H       0.0586   0.5605  0.34063     H
H       0.0586   0.7889  0.19507     H
C       0.0672   0.2561  0.34961     C
C       0.0672   0.8111  0.81706     C
C       0.0676   0.3897  0.84973     C
C       0.0676   0.6779  0.31693     C
C       0.0704    0.284  0.22709     C
C       0.0704   0.7864  0.93958     C
C       0.0714   0.4305  0.02996     C
C       0.0714   0.6409  0.13671     C
C       0.0757   0.5272  0.16808     C
C       0.0757   0.5485  0.99859     C
C       0.0761   0.4142  0.19764     C
C       0.0761   0.6619  0.96903     C
C       0.0788    0.365   0.3847     C
C       0.0788   0.7138  0.78197     C
N       0.0837   0.3191  0.20449     N
N       0.0837   0.7646  0.96218     N
N       0.0891   0.5418  0.01964     N
N       0.0891   0.5473  0.14703     N
N       0.0912   0.4346  0.17577     N
N       0.0912   0.6566   0.9909     N
H       0.0926    0.307  0.15917     H
H       0.0926   0.7856   0.0075     H
H       0.0964   0.3868   0.0202     H
H       0.0964   0.7096  0.14647     H
H        0.097   0.2759  0.19537     H
H        0.097   0.8211   0.9713     H
H        0.103   0.4637   0.4108     H
H        0.103   0.6393  0.75587     H
C       0.1087   0.4815  0.88674     C
C       0.1087   0.6272  0.27992     C
H       0.1089   0.5032  0.13927     H
H       0.1089   0.6057   0.0274     H
H       0.1136   0.2402  0.49083     H
H       0.1136   0.8734  0.67583     H
H       0.1227   0.3691  0.84233     H
H       0.1227   0.7536  0.32433     H
O       0.1257   0.2685  0.15516     O
O       0.1257   0.8572  0.01151     O
H       0.1266   0.2402   0.3425     H
H       0.1266   0.8864  0.82417     H
O       0.1299   0.3096  0.57471     O
O       0.1299   0.8203  0.59196     O
C       0.1308    0.317  0.69468     C
C       0.1308   0.8138  0.47199     C
C       0.1331   0.3635  0.36522     C
C       0.1331   0.7696  0.80145     C
C       0.1402   0.4641  0.39792     C
C       0.1402   0.6761  0.76875     C
C       0.1404   0.4908  0.86544     C
C       0.1404   0.6496  0.30122     C
O       0.1428   0.2685  0.67818     O
O       0.1428   0.8743  0.48849     O
C       0.1445   0.4584  0.05043     C
C       0.1445   0.6861  0.11624     C
H        0.157   0.5659  0.91513     H
H        0.157   0.5911  0.25153     H
H       0.1632   0.1996  0.61097     H
H       0.1632   0.9636   0.5557     H
O       0.1712   0.5568  0.06007     O
O       0.1712   0.6144   0.1066     O
O       0.1721   0.3797  0.05672     O
O       0.1721   0.7924  0.10995     O
C       0.1722   0.3542  0.59266     C
C       0.1722    0.818  0.57401     C
H       0.1729   0.1826  0.47603     H
H       0.1729   0.9903  0.69063     H
H       0.1789   0.2759  0.63797     H
H       0.1789    0.903   0.5287     H
O       0.1797   0.3096  0.25863     O
O       0.1797   0.8701  0.90804     O
C        0.181   0.5749  0.90088     C
C        0.181   0.6061  0.26578     C
C        0.182   0.3542  0.24068     C
C        0.182   0.8278  0.92599     C
H       0.1826   0.0097   0.6427     H
H       0.1826   0.1729  0.52397     H
O        0.185    0.452  0.60011     O
O        0.185    0.733  0.56656     O
C       0.1862    0.317  0.13866     C
C       0.1862   0.8692  0.02801     C
Ni     0.18854  0.59427  0.58333    Ni
C       0.1889   0.2561  0.48372     C
C       0.1889   0.9328  0.68294     C
H       0.1909   0.4722  0.48613     H
H       0.1909   0.7187  0.68053     H
O       0.1943   0.4112   0.1298     O
O       0.1943   0.7831  0.03687     O
H       0.1996   0.0364  0.77763     H
H       0.1996   0.1632  0.38903     H
H       0.2075   0.2077  0.11637     H
H       0.2075   0.9998   0.0503     H
O       0.2076   0.3797  0.77661     O
O       0.2076   0.8279  0.39005     O
H       0.2077   0.0002  0.28303     H
H       0.2077   0.2075  0.88363     H
H       0.2111   0.2697  0.86173     H
H       0.2111   0.9414  0.30493     H
C       0.2136    0.284  0.60625     C
C       0.2136   0.9296  0.56042     C
H       0.2144    0.307  0.67417     H
H       0.2144   0.9074   0.4925     H
O       0.2169   0.4112  0.70354     O
O       0.2169   0.8057  0.46313     O
C       0.2228   0.4668  0.47304     C
C       0.2228    0.756  0.69362     C
C       0.2304   0.3635  0.46811     C
C       0.2304   0.8669  0.69855     C
N       0.2354   0.3191  0.62885     N
N       0.2354   0.9163  0.53782     N
H       0.2402   0.1136  0.50917     H
H       0.2402   0.1266   0.6575     H
H       0.2432   0.6163  0.63067     H
H       0.2432   0.6269    0.536     H
C        0.244   0.4668  0.36029     C
C        0.244   0.7772  0.80638     C
C       0.2457   0.5973  0.85934     C
C       0.2457   0.6484  0.30732     C
H       0.2464   0.3691    0.991     H
H       0.2464   0.8773  0.17567     H
N       0.2509   0.5623  0.39359     N
N       0.2509   0.6886  0.77308     N
H       0.2534   0.6255  0.70423     H
H       0.2534   0.6279  0.46243     H
C       0.2561   0.0672  0.65039     C
C       0.2561   0.1889  0.51628     C
C       0.2569   0.2611  0.12793     C
C       0.2569   0.9958  0.03874     C
C       0.2611   0.0042  0.29459     C
C       0.2611   0.2569  0.87207     C
C       0.2618   0.5607  0.45872     C
C       0.2618   0.7011  0.70794     C
O        0.267    0.452  0.23323     O
O        0.267    0.815  0.93344     O
O       0.2685   0.1257  0.84484     O
O       0.2685   0.1428  0.32182     O
H       0.2697   0.0586   0.0284     H
H       0.2697   0.2111  0.13827     H
H       0.2706   0.6085  0.84513     H
H       0.2706   0.6621  0.32153     H
H       0.2759    0.097  0.80463     H
H       0.2759   0.1789  0.36203     H
H       0.2813   0.4722   0.3472     H
H       0.2813   0.8091  0.81947     H
N       0.2836   0.6062  0.27157     N
N       0.2836   0.6774  0.89509     N
C        0.284   0.0704  0.77291     C
C        0.284   0.2136  0.39375     C
C       0.2862    0.365  0.44863     C
C       0.2862   0.9212  0.71803     C
C        0.288      0.0  0.66667     C
C        0.288    0.288      0.5     C
H       0.2899   0.2935  0.60067     H
H       0.2899   0.9964    0.566     H
H       0.2904   0.3868  0.81313     H
H       0.2904   0.9036  0.35353     H
H       0.2935   0.0036  0.76733     H
H       0.2935   0.2899  0.39933     H
H       0.2974   0.2998  0.44473     H
H       0.2974   0.9976  0.72193     H
C       0.2989   0.5607  0.37461     C
C       0.2989   0.7382  0.79206     C
H       0.2998   0.0024   0.6114     H
H       0.2998   0.2974  0.55527     H
Ni      0.3039  0.65195  0.08333    Ni
H       0.3044   0.3618  0.50727     H
H       0.3044   0.9426   0.6594     H
H        0.307   0.0926  0.84083     H
H        0.307   0.2144  0.32583     H
H        0.309   0.3172   0.9758     H
H        0.309   0.9918  0.19087     H
O       0.3096   0.1299  0.42529     O
O       0.3096   0.1797  0.74137     O
N       0.3114   0.5623  0.43974     N
N       0.3114   0.7491  0.72692     N
C       0.3135   0.6271  0.29264     C
C       0.3135   0.6864  0.87402     C
C       0.3136   0.6271  0.54069     C
C       0.3136   0.6865  0.62598     C
C       0.3139   0.4584   0.7829     C
C       0.3139   0.8555  0.38376     C
C        0.317   0.1308  0.30532     C
C        0.317   0.1862  0.86134     C
H       0.3172   0.0082  0.14247     H
H       0.3172    0.309   0.0242     H
N       0.3191   0.0837  0.79551     N
N       0.3191   0.2354  0.37115     N
C       0.3221   0.3897   0.9836     C
C       0.3221   0.9324  0.18307     C
N       0.3226   0.6062  0.56176     N
N       0.3226   0.7164  0.60491     N
C       0.3239   0.4641  0.43541     C
C       0.3239   0.8598  0.73125     C
H       0.3379   0.6085   0.9882     H
H       0.3379   0.7294  0.17847     H
C       0.3381   0.4142   0.6357     C
C       0.3381   0.9239  0.53097     C
N       0.3434   0.4346  0.65757     N
N       0.3434   0.9088   0.5091     N
Ni     0.34805  0.65195     0.75    Ni
Ni     0.34805   0.6961  0.41667    Ni
C       0.3504   0.4908  0.96789     C
C       0.3504   0.8596  0.19878     C
C       0.3516   0.5973  0.97399     C
C       0.3516   0.7543  0.19268     C
N       0.3532    0.375  0.88054     N
N       0.3532   0.9782  0.28612     N
C       0.3542   0.1722  0.40734     C
C       0.3542    0.182  0.75932     C
C       0.3591   0.4305  0.80337     C
C       0.3591   0.9286  0.36329     C
H       0.3601   0.3849  0.89423     H
H       0.3601   0.9752  0.27243     H
H       0.3607   0.4637  0.42253     H
H       0.3607    0.897  0.74413     H
H       0.3618   0.0574  0.67393     H
H       0.3618   0.3044  0.49273     H
C       0.3635   0.1331  0.63478     C
C       0.3635   0.2304  0.53189     C
C        0.365   0.0788   0.6153     C
C        0.365   0.2862  0.55137     C
H       0.3691   0.1227  0.15767     H
H       0.3691   0.2464    0.009     H
H       0.3721   0.6255   0.1291     H
H       0.3721   0.7466  0.03757     H
C       0.3728   0.4815  0.94659     C
C       0.3728   0.8913  0.22008     C
C       0.3729   0.6864  0.95931     C
C       0.3729   0.6865  0.20736     C
H       0.3731   0.6163  0.20267     H
H       0.3731   0.7568    0.964     H
H       0.3738   0.4121   0.9417     H
H       0.3738   0.9617  0.22497     H
H       0.3745   0.6279   0.3709     H
H       0.3745   0.7466  0.79577     H
N        0.375   0.0218  0.04721     N
N        0.375   0.3532  0.11946     N
H       0.3775   0.3927  0.19977     H
H       0.3775   0.9848   0.9669     H
O       0.3797   0.1721  0.94328     O
O       0.3797   0.2076  0.22339     O
H       0.3837   0.6269  0.29733     H
H       0.3837   0.7568  0.86933     H
H       0.3849   0.0248   0.0609     H
H       0.3849   0.3601  0.10577     H
O       0.3856   0.5568  0.77326     O
O       0.3856   0.8288   0.3934     O
H       0.3868   0.0964   0.9798     H
H       0.3868   0.2904  0.18687     H
C       0.3897   0.0676  0.15027     C
C       0.3897   0.3221   0.0164     C
H       0.3915   0.6621   0.5118     H
H       0.3915   0.7294  0.65487     H
H       0.3927   0.0152  0.36643     H
H       0.3927   0.3775  0.80023     H
N       0.3938   0.6774  0.93824     N
N       0.3938   0.7164  0.22843     N
C       0.3939   0.5749  0.93245     C
C       0.3939    0.819  0.23422     C
H       0.3943   0.5032  0.69407     H
H       0.3943   0.8911   0.4726     H
C       0.4027   0.6484  0.52601     C
C       0.4027   0.7543  0.64066     C
N        0.403   0.4511  0.84662     N
N        0.403   0.9519  0.32004     N
Ni     0.40573  0.59427     0.25    Ni
Ni     0.40573  0.81146  0.91667    Ni
H       0.4089   0.5659   0.9182     H
H       0.4089    0.843  0.24847     H
O       0.4112   0.1943   0.8702     O
O       0.4112   0.2169  0.29646     O
H       0.4121   0.0383  0.10837     H
H       0.4121   0.3738   0.0583     H
C       0.4142   0.0761  0.80236     C
C       0.4142   0.3381   0.3643     C
C       0.4233      0.0  0.16667     C
C       0.4233   0.4233      0.0     C
C       0.4251   0.6061  0.56755     C
C       0.4251    0.819  0.59912     C
C        0.428   0.4694  0.86787     C
C        0.428   0.9586  0.29879     C
N       0.4296   0.4826  0.62255     N
N       0.4296    0.947  0.54412     N
C       0.4305   0.0714  0.97004     C
C       0.4305   0.3591  0.19663     C
H       0.4341   0.5911   0.5818     H
H       0.4341    0.843  0.58487     H
N       0.4346   0.0912  0.82423     N
N       0.4346   0.3434  0.34243     N
N       0.4377   0.6886  0.06026     N
N       0.4377   0.7491  0.10641     N
C       0.4393   0.7011  0.12539     C
C       0.4393   0.7382  0.04128     C
H       0.4395   0.4981   0.0073     H
H       0.4395   0.9414  0.15937     H
O       0.4432   0.6144  0.72674     O
O       0.4432   0.8288  0.43993     O
N       0.4511   0.0481  0.01329     N
N       0.4511    0.403  0.15338     N
C       0.4515   0.5272  0.66526     C
C       0.4515   0.9243  0.50141     C
O        0.452    0.185  0.39989     O
O        0.452    0.267  0.76677     O
N       0.4527   0.5418  0.81369     N
N       0.4527   0.9109  0.35297     N
N       0.4582   0.5473  0.68631     N
N       0.4582   0.9109  0.48036     N
C       0.4584   0.1445  0.94957     C
C       0.4584   0.3139   0.2171     C
H       0.4637    0.103   0.5892     H
H       0.4637   0.3607  0.57747     H
C       0.4641   0.1402  0.60208     C
C       0.4641   0.3239  0.56459     C
C       0.4668   0.2228  0.52696     C
C       0.4668    0.244  0.63971     C
C       0.4694   0.0414  0.03454     C
C       0.4694    0.428  0.13213     C
H       0.4722   0.1909  0.51387     H
H       0.4722   0.2813   0.6528     H
C       0.4728   0.5485  0.83474     C
C       0.4728   0.9243  0.33192     C
C       0.4815   0.1087  0.11326     C
C       0.4815   0.3728  0.05341     C
N       0.4826    0.053  0.78921     N
N       0.4826   0.4296  0.37745     N
C       0.4908   0.1404  0.13456     C
C       0.4908   0.3504  0.03211     C
H       0.4968   0.6057  0.80593     H
H       0.4968   0.8911  0.36073     H
H       0.4981   0.0586  0.17397     H
H       0.4981   0.4395   0.9927     H
H       0.5019   0.5605   0.4927     H
H       0.5019   0.9414  0.67397     H
H       0.5032   0.1089  0.86073     H
H       0.5032   0.3943  0.30593     H
C       0.5092   0.6496  0.53211     C
C       0.5092   0.8596  0.63456     C
N       0.5174   0.5704  0.87745     N
N       0.5174    0.947  0.28921     N
C       0.5185   0.6272  0.55341     C
C       0.5185   0.8913  0.61326     C
C       0.5272   0.0757  0.83192     C
C       0.5272   0.4515  0.33474     C
H       0.5278   0.7187   0.1528     H
H       0.5278   0.8091  0.01387     H
C       0.5306    0.572  0.63213     C
C       0.5306   0.9586  0.53454     C
C       0.5332    0.756  0.13971     C
C       0.5332   0.7772  0.02696     C
C       0.5359   0.6761  0.06459     C
C       0.5359   0.8598  0.10208     C
H       0.5363   0.6393  0.07747     H
H       0.5363    0.897   0.0892     H
C       0.5416   0.6861   0.7171     C
C       0.5416   0.8555  0.44957     C
N       0.5418   0.0891  0.98036     N
N       0.5418   0.4527  0.18631     N
N       0.5473   0.0891  0.85297     N
N       0.5473   0.4582  0.31369     N
O        0.548    0.733  0.26677     O
O        0.548    0.815  0.89989     O
C       0.5485   0.0757  0.00141     C
C       0.5485   0.4728  0.16526     C
N       0.5489    0.597  0.65338     N
N       0.5489   0.9519  0.51329     N
O       0.5568   0.1712  0.93993     O
O       0.5568   0.3856  0.22674     O
H       0.5605   0.0586  0.65937     H
H       0.5605   0.5019   0.5073     H
C       0.5607   0.2618  0.54128     C
C       0.5607   0.2989  0.62539     C
N       0.5623   0.2509  0.60641     N
N       0.5623   0.3114  0.56026     N
N       0.5654   0.6566  0.84243     N
N       0.5654   0.9088  0.32423     N
H       0.5659    0.157  0.08487     H
H       0.5659   0.4089   0.0818     H
C       0.5695   0.6409  0.69663     C
C       0.5695   0.9286  0.47004     C
N       0.5704    0.053  0.04412     N
N       0.5704   0.5174  0.12255     N
C        0.572   0.0414  0.79879     C
C        0.572   0.5306  0.36787     C
C       0.5749    0.181  0.09912     C
C       0.5749   0.3939  0.06755     C
C       0.5767     -0.0  0.66667     C
C       0.5767   0.5767      0.5     C
C       0.5858   0.6619   0.8643     C
C       0.5858   0.9239  0.30236     C
H       0.5879   0.6262   0.5583     H
H       0.5879   0.9617  0.60837     H
O       0.5888   0.7831  0.79646     O
O       0.5888   0.8057   0.3702     O
H       0.5911    0.157  0.74847     H
H       0.5911   0.4341   0.4182     H
Ni     0.59427  0.18854  0.41667    Ni
Ni     0.59427  0.40573     0.75    Ni
N        0.597   0.0481  0.82004     N
N        0.597   0.5489  0.34662     N
C       0.5973   0.2457  0.14066     C
C       0.5973   0.3516  0.02601     C
H       0.6057   0.1089   0.9726     H
H       0.6057   0.4968  0.19407     H
C       0.6061    0.181  0.73422     C
C       0.6061   0.4251  0.43245     C
N       0.6062   0.2836  0.72843     N
N       0.6062   0.3226  0.43824     N
H       0.6073   0.6225  0.30023     H
H       0.6073   0.9848  0.86643     H
H       0.6085   0.2706  0.15487     H
H       0.6085   0.3379   0.0118     H
C       0.6103   0.6779   0.5164     C
C       0.6103   0.9324  0.65027     C
H       0.6132   0.7096  0.68687     H
H       0.6132   0.9036   0.4798     H
O       0.6144   0.1712   0.8934     O
O       0.6144   0.4432  0.27326     O
H       0.6151   0.6399  0.60577     H
H       0.6151   0.9752   0.5609     H
H       0.6163   0.2432  0.36933     H
H       0.6163   0.3731  0.79733     H
O       0.6203   0.7924  0.72339     O
O       0.6203   0.8279  0.44328     O
H       0.6225   0.0152   0.4669     H
H       0.6225   0.6073  0.69977     H
N        0.625   0.6468  0.61946     N
N        0.625   0.9782  0.54721     N
H       0.6255   0.2534  0.29577     H
H       0.6255   0.3721   0.8709     H
H       0.6262   0.0383  0.72497     H
H       0.6262   0.5879   0.4417     H
H       0.6269   0.2432    0.464     H
H       0.6269   0.3837  0.70267     H
C       0.6271   0.3135  0.70736     C
C       0.6271   0.3136  0.45931     C
C       0.6272   0.1087  0.72008     C
C       0.6272   0.5185  0.44659     C
H       0.6279   0.2534  0.53757     H
H       0.6279   0.3745   0.6291     H
H       0.6309   0.7536    0.509     H
H       0.6309   0.8773  0.65767     H
C        0.635   0.7138  0.05137     C
C        0.635   0.9212   0.1153     C
C       0.6365   0.7696  0.03189     C
C       0.6365   0.8669  0.13478     C
H       0.6382   0.6956  0.99273     H
H       0.6382   0.9426  0.17393     H
H       0.6393    0.103  0.24413     H
H       0.6393   0.5363  0.92253     H
H       0.6399   0.0248  0.77243     H
H       0.6399   0.6151  0.39423     H
C       0.6409   0.0714  0.86329     C
C       0.6409   0.5695  0.30337     C
C       0.6458    0.818  0.25932     C
C       0.6458   0.8278  0.90734     C
N       0.6468   0.0218  0.78612     N
N       0.6468    0.625  0.38054     N
C       0.6484   0.2457  0.69268     C
C       0.6484   0.4027  0.47399     C
C       0.6496   0.1404  0.69878     C
C       0.6496   0.5092  0.46789     C
Ni     0.65195   0.3039  0.91667    Ni
Ni     0.65195  0.34805     0.25    Ni
N       0.6566   0.0912   0.0091     N
N       0.6566   0.5654  0.15757     N
C       0.6619   0.0761  0.03097     C
C       0.6619   0.5858   0.1357     C
H       0.6621   0.2706  0.67847     H
H       0.6621   0.3915   0.4882     H
C       0.6761   0.1402  0.23125     C
C       0.6761   0.5359  0.93541     C
N       0.6774   0.2836  0.10491     N
N       0.6774   0.3938  0.06176     N
C       0.6779   0.0676  0.68307     C
C       0.6779   0.6103   0.4836     C
N       0.6809   0.7646  0.87115     N
N       0.6809   0.9163  0.29551     N
H       0.6828    0.691   0.5242     H
H       0.6828   0.9918  0.64247     H
C        0.683   0.8138  0.36134     C
C        0.683   0.8692  0.80532     C
C       0.6861   0.1445  0.88376     C
C       0.6861   0.5416   0.2829     C
C       0.6864   0.3135  0.12598     C
C       0.6864   0.3729  0.04069     C
C       0.6865   0.3136  0.37402     C
C       0.6865   0.3729  0.79264     C
N       0.6886   0.2509  0.22692     N
N       0.6886   0.4377  0.93974     N
O       0.6904   0.8203  0.24137     O
O       0.6904   0.8701  0.92529     O
H        0.691   0.0082  0.69087     H
H        0.691   0.6828   0.4758     H
H        0.693   0.7856  0.82583     H
H        0.693   0.9074  0.34083     H
H       0.6956   0.0574   0.1594     H
H       0.6956   0.6382  0.00727     H
Ni      0.6961  0.34805  0.58333    Ni
H       0.7002   0.7026  0.05527     H
H       0.7002   0.9976   0.1114     H
C       0.7011   0.2618  0.29206     C
C       0.7011   0.4393  0.87461     C
H       0.7026   0.0024  0.22193     H
H       0.7026   0.7002  0.94473     H
H       0.7065   0.7101  0.89933     H
H       0.7065   0.9964  0.26733     H
H       0.7096   0.0964  0.85353     H
H       0.7096   0.6132  0.31313     H
H       0.7101   0.0036    0.066     H
H       0.7101   0.7065  0.10067     H
C        0.712      0.0  0.16667     C
C        0.712    0.712      0.0     C
C       0.7138   0.0788  0.21803     C
C       0.7138    0.635  0.94863     C
C        0.716   0.7864  0.89375     C
C        0.716   0.9296  0.27291     C
N       0.7164   0.3226  0.39509     N
N       0.7164   0.3938  0.77157     N
H       0.7187   0.1909  0.31947     H
H       0.7187   0.5278   0.8472     H
H       0.7241   0.8211  0.86203     H
H       0.7241    0.903  0.30463     H
H       0.7294   0.3379  0.82153     H
H       0.7294   0.3915  0.34513     H
H       0.7303   0.7889  0.63827     H
H       0.7303   0.9414   0.5284     H
O       0.7315   0.8572  0.82182     O
O       0.7315   0.8743  0.34484     O
O        0.733    0.185  0.43344     O
O        0.733    0.548  0.73323     O
C       0.7382   0.2989  0.20794     C
C       0.7382   0.4393  0.95872     C
C       0.7389   0.7431  0.37207     C
C       0.7389   0.9958  0.79459     C
C       0.7431   0.0042  0.53874     C
C       0.7431   0.7389  0.62793     C
C       0.7439   0.8111  0.01628     C
C       0.7439   0.9328  0.15039     C
H       0.7466   0.3721  0.96243     H
H       0.7466   0.3745  0.20423     H
N       0.7491   0.3114  0.27308     N
N       0.7491   0.4377  0.89359     N
H       0.7536   0.1227  0.67567     H
H       0.7536   0.6309    0.491     H
C       0.7543   0.3516  0.80732     C
C       0.7543   0.4027  0.35934     C
C        0.756   0.2228  0.30638     C
C        0.756   0.5332  0.86029     C
H       0.7568   0.3731    0.036     H
H       0.7568   0.3837  0.13067     H
H       0.7598   0.8734   0.1575     H
H       0.7598   0.8864  0.00917     H
N       0.7646   0.0837  0.03782     N
N       0.7646   0.6809  0.12885     N
C       0.7696   0.1331  0.19855     C
C       0.7696   0.6365  0.96811     C
C       0.7772    0.244  0.19362     C
C       0.7772   0.5332  0.97304     C
O       0.7831   0.1943  0.96313     O
O       0.7831   0.5888  0.20354     O
H       0.7856   0.0926   0.9925     H
H       0.7856    0.693  0.17417     H
C       0.7864   0.0704  0.06042     C
C       0.7864    0.716  0.10625     C
H       0.7889   0.0586  0.80493     H
H       0.7889   0.7303  0.36173     H
H       0.7923   0.7925  0.38363     H
H       0.7923   0.9998  0.78303     H
O       0.7924   0.1721  0.89005     O
O       0.7924   0.6203  0.27661     O
H       0.7925   0.0002   0.5503     H
H       0.7925   0.7923  0.61637     H
H       0.8004   0.8368  0.88903     H
H       0.8004   0.9636  0.27763     H
O       0.8057   0.2169  0.53687     O
O       0.8057   0.5888   0.6298     O
H       0.8091   0.2813  0.18053     H
H       0.8091   0.5278  0.98613     H
C       0.8111   0.0672  0.18294     C
C       0.8111   0.7439  0.98372     C
Ni     0.81146  0.40573  0.08333    Ni
C       0.8138   0.1308  0.52801     C
C       0.8138    0.683  0.63866     C
O        0.815    0.267  0.06656     O
O        0.815    0.548  0.10011     O
H       0.8174   0.8271  0.02397     H
H       0.8174   0.9903   0.1427     H
C        0.818   0.1722  0.42599     C
C        0.818   0.6458  0.74068     C
C        0.819   0.3939  0.76578     C
C        0.819   0.4251  0.40088     C
O       0.8203   0.1299  0.40804     O
O       0.8203   0.6904  0.75863     O
H       0.8211    0.097   0.0287     H
H       0.8211   0.7241  0.13797     H
H       0.8271   0.0097  0.19063     H
H       0.8271   0.8174  0.97603     H
C       0.8278    0.182  0.07401     C
C       0.8278   0.6458  0.09266     C
O       0.8279   0.2076  0.60995     O
O       0.8279   0.6203  0.55672     O
O       0.8288   0.3856   0.6066     O
O       0.8288   0.4432  0.56007     O
H       0.8368   0.0364   0.0557     H
H       0.8368   0.8004  0.11097     H
H        0.843   0.4089  0.75153     H
H        0.843   0.4341  0.41513     H
C       0.8555   0.3139  0.61624     C
C       0.8555   0.5416  0.55043     C
O       0.8572   0.1257  0.98849     O
O       0.8572   0.7315  0.17818     O
C       0.8596   0.3504  0.80122     C
C       0.8596   0.5092  0.36544     C
C       0.8598   0.3239  0.26875     C
C       0.8598   0.5359  0.89792     C
C       0.8669   0.2304  0.30145     C
C       0.8669   0.6365  0.86522     C
C       0.8692   0.1862  0.97199     C
C       0.8692    0.683  0.19468     C
O       0.8701   0.1797  0.09196     O
O       0.8701   0.6904  0.07471     O
H       0.8734   0.1136  0.32417     H
H       0.8734   0.7598   0.8425     H
O       0.8743   0.1428  0.51151     O
O       0.8743   0.7315  0.65516     O
H       0.8773   0.2464  0.82433     H
H       0.8773   0.6309  0.34233     H
H       0.8864   0.1266  0.17583     H
H       0.8864   0.7598  0.99083     H
H       0.8911   0.3943   0.5274     H
H       0.8911   0.4968  0.63927     H
C       0.8913   0.3728  0.77992     C
C       0.8913   0.5185  0.38674     C
H        0.897   0.3607  0.25587     H
H        0.897   0.5363   0.9108     H
H        0.903   0.1789   0.4713     H
H        0.903   0.7241  0.69537     H
H       0.9036   0.2904  0.64647     H
H       0.9036   0.6132   0.5202     H
H       0.9074   0.2144   0.5075     H
H       0.9074    0.693  0.65917     H
N       0.9088   0.3434   0.4909     N
N       0.9088   0.5654  0.67577     N
N       0.9109   0.4527  0.64703     N
N       0.9109   0.4582  0.51964     N
N       0.9163   0.2354  0.46218     N
N       0.9163   0.6809  0.70449     N
C       0.9212   0.2862  0.28197     C
C       0.9212    0.635   0.8847     C
C       0.9239   0.3381  0.46903     C
C       0.9239   0.5858  0.69764     C
C       0.9243   0.4515  0.49859     C
C       0.9243   0.4728  0.66808     C
C       0.9286   0.3591  0.63671     C
C       0.9286   0.5695  0.52996     C
C       0.9296   0.2136  0.43958     C
C       0.9296    0.716  0.72709     C
C       0.9324   0.3221  0.81693     C
C       0.9324   0.6103  0.34973     C
C       0.9328   0.1889  0.31706     C
C       0.9328   0.7439  0.84961     C
H       0.9414   0.2111  0.69507     H
H       0.9414   0.4395  0.84063     H
H       0.9414   0.5019  0.32603     H
H       0.9414   0.7303   0.4716     H
H       0.9426   0.3044   0.3406     H
H       0.9426   0.6382  0.82607     H
N        0.947   0.4296  0.45588     N
N        0.947   0.5174  0.71079     N
N       0.9519    0.403  0.67996     N
N       0.9519   0.5489  0.48671     N
C       0.9586    0.428  0.70121     C
C       0.9586   0.5306  0.46546     C
H       0.9617   0.3738  0.77503     H
H       0.9617   0.5879  0.39163     H
H       0.9636   0.1632   0.4443     H
H       0.9636   0.8004  0.72237     H
H       0.9752   0.3601  0.72757     H
H       0.9752   0.6151   0.4391     H
N       0.9782   0.3532  0.71388     N
N       0.9782    0.625  0.45279     N
H       0.9848   0.3775   0.0331     H
H       0.9848   0.6073  0.13357     H
H       0.9903   0.1729  0.30937     H
H       0.9903   0.8174   0.8573     H
H       0.9918    0.309  0.80913     H
H       0.9918   0.6828  0.35753     H
C       0.9958   0.2569  0.96126     C
C       0.9958   0.7389  0.20541     C
H       0.9964   0.2899    0.434     H
H       0.9964   0.7065  0.73267     H
H       0.9976   0.2974  0.27807     H
H       0.9976   0.7002   0.8886     H
H       0.9998   0.2075   0.9497     H
H       0.9998   0.7923  0.21697     H
