data_I
_chemical_name_common  '/home/zhangsd/repos/MofS-CGCNN/ML/data/TSD/clean_cifs/OFEHAK_clean'
_cell_length_a 15.12300
_cell_length_b 17.48140
_cell_length_c 17.48140
_cell_angle_alpha 79.21670
_cell_angle_beta  64.37080
_cell_angle_gamma 64.37080
_space_group_name_H-M_alt      'P 1'


loop_
_space_group_symop_operation_xyz
  'x, y, z' 

loop_
_atom_site_label
_atom_site_fract_x
_atom_site_fract_y
_atom_site_fract_z
_atom_site_type_symbol
N       0.0146    0.928    0.311     N
H       0.0172   0.2378   0.7736     H
N       0.0187    0.063   0.8052     N
C       0.0256   0.6775   0.0217     C
Cd     0.02657  0.91184  0.43368    Cd
O        0.037   0.4856   0.8334     O
C       0.0395    0.749    0.027     C
C       0.0398   0.0889   0.7227     C
O       0.0405   0.0188    0.047     O
C       0.0473   0.9783   0.1775     C
N       0.0574    0.189    0.928     N
O       0.0593    0.547   0.9812     O
Cd     0.06159  0.06632  0.91184    Cd
C       0.0665    0.973    0.249     C
O       0.0699   0.5384   0.7026     O
C       0.0742   0.2221   0.7211     C
N       0.0817   0.3052    0.937     N
C       0.0818   0.0157   0.0949     C
O       0.0875    0.953   0.5188     O
H       0.0878   0.6117   0.1983     H
C       0.0962   0.4997   0.7641     C
C       0.0975   0.5949   0.9843     C
C       0.1036    0.147    0.683     C
H         0.11   0.3242   0.7062     H
Cd     0.12791  0.41184  0.93368    Cd
C       0.1287   0.2227   0.9111     C
O       0.1296   0.8334   0.0144     O
C       0.1298   0.2739   0.6807     C
C       0.1397   0.7641   0.0003     C
C         0.14   0.9997   0.2641     C
O        0.144   0.9856   0.3334     O
O       0.1452   0.0496   0.0782     O
H       0.1522   0.5182   0.2192     H
C        0.156    0.572    0.198     C
N       0.1761   0.8052    0.437     N
C       0.1767   0.9051   0.5157     C
C        0.183   0.6022   0.2494     C
H       0.1838   0.7062   0.1758     H
H       0.1873   0.5116     0.34     H
C       0.1887   0.1237   0.6045     C
O       0.1891   0.0384   0.2026     O
C       0.1895   0.6807   0.2261     C
C       0.1916   0.5641   0.3245     C
H       0.1941   0.0181   0.0927     H
O       0.1948   0.5782   0.9504     O
H       0.1951   0.5181   0.5927     H
C       0.2047   0.7211   0.2779     C
C       0.2068   0.6045   0.3763     C
H       0.2084   0.0734    0.579     H
H       0.2092   0.7736   0.2622     H
H       0.2093   0.5652    0.141     H
C       0.2115    0.473    0.749     C
H       0.2122   0.5927   0.9819     H
H       0.2126    0.579   0.4266     H
C       0.2134    0.683    0.353     C
C       0.2148   0.2506   0.6022     C
O       0.2234   0.9218   0.5496     O
C       0.2248   0.8225   0.4783     C
H       0.2255    0.359   0.5652     H
O        0.227   0.5496   0.5782     O
O       0.2275   0.7026   0.9616     O
C       0.2375   0.7227   0.4111     C
C       0.2443   0.1755   0.5641     C
N       0.2464    0.428    0.811     N
C       0.2506    0.183    0.853     C
H        0.255   0.2736   0.7622     H
C        0.272    0.302    0.572     C
H       0.2818    0.079   0.9266     H
H       0.2861   0.8017   0.1117     H
H       0.2868   0.9073   0.5181     H
C       0.2963   0.2211   0.7779     C
C       0.2969   0.4783   0.6775     C
H       0.3005   0.3017   0.6117     H
H       0.3011     0.16   0.5116     H
C       0.3076   0.5157   0.5949     C
C       0.3124   0.1045   0.8763     C
C       0.3155    0.751    0.473     C
N       0.3256    0.689    0.428     N
H       0.3296   0.2808   0.5182     H
H       0.3503    0.859   0.0652     H
C       0.3514   0.4111   0.7773     C
C        0.354    0.802    0.072     C
H       0.3596   0.8242   0.2062     H
H       0.3608   0.4266    0.921     H
H       0.3714   0.7808   0.0182     H
N       0.3869    0.437   0.6948     N
H       0.3896   0.9818   0.2808     H
O       0.3917   0.7974   0.5384     O
O       0.3937   0.5188    0.547     O
H       0.3978   0.8883   0.3017     H
C       0.4037   0.1807   0.7261     C
C       0.4041   0.7359   0.4997     C
H       0.4155   0.9348    0.359     H
C       0.4156   0.7739   0.1807     C
C       0.4169   0.3763   0.8955     C
C       0.4198   0.0641   0.8245     C
C        0.426    0.928    0.302     C
C       0.4324   0.7506   0.1022     C
C       0.4336    0.353    0.817     C
H       0.4342   0.2062   0.6758     H
Cd     0.46025  0.56632  0.41184    Cd
H       0.4611   0.0116     0.84     H
C       0.4654   0.1022   0.7494     C
H       0.4714   0.7378   0.2736     H
H       0.4727     0.34   0.9884     H
O       0.4774   0.6666   0.4856     O
C       0.4826   0.7221   0.2211     C
C       0.4839   0.3245   0.9359     C
C       0.5161   0.6755   0.0641     C
C       0.5174   0.2779   0.7789     C
O       0.5226   0.3334   0.5144     O
H       0.5273     0.66   0.0116     H
H       0.5286   0.2622   0.7264     H
C       0.5346   0.8978   0.2506     C
H       0.5389   0.9884     0.16     H
Cd     0.53975  0.43368  0.58816    Cd
H       0.5658   0.7938   0.3242     H
C       0.5664    0.647    0.183     C
C       0.5676   0.2494   0.8978     C
C        0.574    0.072    0.698     C
C       0.5802   0.9359   0.1755     C
C       0.5831   0.6237   0.1045     C
C       0.5844   0.2261   0.8193     C
H       0.5845   0.0652    0.641     H
C       0.5959   0.2641   0.5003     C
C       0.5963   0.8193   0.2739     C
H       0.6022   0.1117   0.6983     H
O       0.6063   0.4812    0.453     O
O       0.6083   0.2026   0.4616     O
H       0.6104   0.0182   0.7192     H
N       0.6131    0.563   0.3052     N
H       0.6286   0.2192   0.9818     H
H       0.6392   0.5734    0.079     H
H       0.6404   0.1758   0.7938     H
C        0.646    0.198    0.928     C
C       0.6486   0.5889   0.2227     C
H       0.6497    0.141   0.9348     H
H       0.6704   0.7192   0.4818     H
N       0.6744    0.311    0.572     N
C       0.6845    0.249    0.527     C
C       0.6876   0.8955   0.1237     C
C       0.6924   0.4843   0.4051     C
H       0.6989     0.84   0.4884     H
H       0.6995   0.6983   0.3883     H
C       0.7031   0.5217   0.3225     C
C       0.7037   0.7789   0.2221     C
H       0.7132   0.0927   0.4819     H
H       0.7139   0.1983   0.8883     H
H       0.7182    0.921   0.0734     H
C        0.728    0.698    0.428     C
H        0.745   0.7264   0.2378     H
C       0.7494    0.817    0.147     C
N       0.7536    0.572    0.189     N
C       0.7557   0.8245   0.4359     C
C       0.7625   0.2773   0.5889     C
O       0.7725   0.2974   0.0384     O
O        0.773   0.4504   0.4218     O
H       0.7745    0.641   0.4348     H
C       0.7752   0.1775   0.5217     C
O       0.7766   0.0782   0.4504     O
C       0.7852   0.7494   0.3978     C
C       0.7866    0.317    0.647     C
H       0.7874    0.421   0.5734     H
H       0.7878   0.4073   0.0181     H
C       0.7885    0.527    0.251     C
H       0.7907   0.4348    0.859     H
H       0.7908   0.2264   0.7378     H
H       0.7916   0.9266    0.421     H
C       0.7932   0.3955   0.6237     C
C       0.7953   0.2789   0.7221     C
H       0.8049   0.4819   0.4073     H
O       0.8052   0.4218   0.0496     O
H       0.8059   0.9819   0.9073     H
C       0.8084   0.4359   0.6755     C
C       0.8105   0.3193   0.7739     C
O       0.8109   0.9616   0.7974     O
C       0.8113   0.8763   0.3955     C
H       0.8127   0.4884     0.66     H
H       0.8162   0.2938   0.8242     H
C        0.817   0.3978   0.7506     C
C       0.8233   0.0949   0.4843     C
N       0.8239   0.1948    0.563     N
C        0.844    0.428    0.802     C
H       0.8478   0.4818   0.7808     H
O       0.8548   0.9504   0.9218     O
O        0.856   0.0144   0.6666     O
C         0.86   0.0003   0.7359     C
C       0.8603   0.2359   0.9997     C
C       0.8702   0.7261   0.3193     C
O       0.8704   0.1666   0.9856     O
C       0.8713   0.7773   0.0889     C
Cd     0.87209  0.58816  0.06632    Cd
H         0.89   0.6758   0.2938     H
C       0.8964    0.853    0.317     C
C       0.9025   0.4051   0.0157     C
C       0.9038   0.5003   0.2359     C
H       0.9122   0.3883   0.8017     H
O       0.9125    0.047   0.4812     O
C       0.9182   0.9843   0.9051     C
N       0.9183   0.6948    0.063     N
C       0.9258   0.7779   0.2789     C
O       0.9301   0.4616   0.2974     O
C       0.9335    0.027    0.751     C
Cd     0.93841  0.93368  0.08816    Cd
O       0.9407    0.453   0.0188     O
N       0.9426    0.811    0.072     N
C       0.9527   0.0217   0.8225     C
O       0.9595   0.9812    0.953     O
C       0.9602   0.9111   0.2773     C
C       0.9605    0.251    0.973     C
O        0.963   0.5144   0.1666     O
Cd     0.97343  0.08816  0.56632    Cd
C       0.9744   0.3225   0.9783     C
N       0.9813    0.937   0.1948     N
H       0.9828   0.7622   0.2264     H
N       0.9854    0.072    0.689     N
