data_I
_chemical_name_common  '/home/zhangsd/repos/MofS-CGCNN/ML/data/TSD/clean_cifs/OGURAK_charged'
_cell_length_a 13.17800
_cell_length_b 13.17900
_cell_length_c 13.87790
_cell_angle_alpha 118.34800
_cell_angle_beta  118.34500
_cell_angle_gamma 89.99990
_space_group_name_H-M_alt      'P 1'


loop_
_space_group_symop_operation_xyz
  'x, y, z' 

loop_
_atom_site_label
_atom_site_fract_x
_atom_site_fract_y
_atom_site_fract_z
_atom_site_type_symbol
O       0.0527   0.7458   0.6842     O
O       0.0527   0.9384   0.6842     O
H       0.0533   0.6403   0.4782     H
H       0.0533   0.8379   0.4782     H
N       0.0918   0.1653   0.9598     N
N       0.0918   0.7945   0.9598     N
Cu     0.10571  0.91055   0.8211    Cu
N      0.15161  0.26991  0.06102     N
N      0.15161  0.79111  0.06102     N
N       0.1675   0.0927   0.9604     N
N       0.1675   0.8677   0.9604     N
C       0.2668   0.2663   0.1372     C
C       0.2668   0.8709   0.1372     C
N      0.27083  0.15263  0.06106     N
N      0.27083  0.90843  0.06106     N
H       0.2921   0.5024   0.2682     H
H       0.2921   0.7658   0.2682     H
C       0.3581   0.4811   0.3156     C
C       0.3581   0.8345   0.3156     C
C       0.3618    0.361   0.2512     C
C       0.3618   0.8902   0.2512     C
H       0.4249   0.6403   0.4782     H
H       0.4249   0.8379   0.4782     H
C       0.4413   0.5663   0.4386     C
C       0.4413   0.8723   0.4386     C
C        0.481   0.3583   0.3144     C
C        0.481   0.9561   0.3144     C
H       0.5029   0.2925   0.2672     H
H       0.5029   0.9747   0.2672     H
C       0.5524   0.5524    0.513     C
C       0.5524   0.9606    0.513     C
C        0.566   0.4434   0.4376     C
C        0.566   0.9942   0.4376     C
O       0.6315   0.7458   0.6842     O
O       0.6315   0.9384   0.6842     O
H        0.641   0.0481   0.4764     H
H        0.641   0.4283   0.4764     H
C       0.6451   0.6455   0.6334     C
C       0.6451   0.9879   0.6334     C
Cu     0.71539  0.91055   0.8211    Cu
O       0.7445    0.053   0.6832     O
O       0.7445   0.6302   0.6832     O
H       0.7643   0.2925   0.2672     H
H       0.7643   0.9747   0.2672     H
N      0.79023  0.15263  0.06106     N
N      0.79023  0.90843  0.06106     N
N       0.7929   0.0927   0.9604     N
N       0.7929   0.8677   0.9604     N
C       0.8334   0.3583   0.3144     C
C       0.8334   0.9561   0.3144     C
H       0.8354   0.0481   0.4764     H
H       0.8354   0.4283   0.4764     H
N        0.868   0.1653   0.9598     N
N        0.868   0.7945   0.9598     N
C       0.8704   0.2663   0.1372     C
C       0.8704   0.8709   0.1372     C
C       0.8716   0.4434   0.4376     C
C       0.8716   0.9942   0.4376     C
C       0.8894    0.361   0.2512     C
C       0.8894   0.8902   0.2512     C
Cl     0.90222  0.90222  0.80444    Cl
N      0.90941  0.26991  0.06102     N
N      0.90941  0.79111  0.06102     N
Cu     0.91059  0.10576  0.82118    Cu
Cu     0.91059  0.71542  0.82118    Cu
O       0.9387    0.053   0.6832     O
O       0.9387   0.6302   0.6832     O
C       0.9575   0.4811   0.3156     C
C       0.9575   0.8345   0.3156     C
C       0.9606   0.5524    0.513     C
C       0.9606   0.9606    0.513     C
H       0.9761   0.5024   0.2682     H
H       0.9761   0.7658   0.2682     H
C       0.9883   0.6455   0.6334     C
C       0.9883   0.9879   0.6334     C
C       0.9973   0.5663   0.4386     C
C       0.9973   0.8723   0.4386     C
