data_I
_chemical_name_common  '/home/zhangsd/repos/MofS-CGCNN/ML/data/TSD/clean_cifs/OHAZAZ_clean'
_cell_length_a  7.96260
_cell_length_b 12.13310
_cell_length_c 13.31820
_cell_angle_alpha 111.95100
_cell_angle_beta  104.93800
_cell_angle_gamma 91.57600
_space_group_name_H-M_alt      'P 1'


loop_
_space_group_symop_operation_xyz
  'x, y, z' 

loop_
_atom_site_label
_atom_site_fract_x
_atom_site_fract_y
_atom_site_fract_z
_atom_site_type_symbol
C       0.0508   0.0922   0.2035     C
O       0.0548   0.0868   0.1054     O
H       0.0679   0.2752   0.4013     H
H       0.0765   0.1529   0.4157     H
O       0.0769   0.9562   0.7854     O
C       0.1444   0.2162   0.4092     C
C       0.2034   0.1637    0.304     C
H       0.2509   0.6172   0.7145     H
Gd      0.2513  0.01872  0.98942    Gd
H        0.256   0.2279   0.2904     H
O       0.2722   0.4559   0.5039     O
O       0.2848    0.815     0.88     O
O       0.2859   0.9172   0.1219     O
N       0.2901   0.2735   0.5135     N
H       0.2915   0.1123   0.3148     H
H       0.3099    0.774   0.2236     H
O       0.3218   0.0941   0.5254     O
C       0.3362   0.3968   0.5552     C
H       0.3476   0.5915   0.8201     H
H       0.3527   0.1202   0.7514     H
C       0.3621   0.6323   0.7721     C
C        0.364   0.2018    0.567     C
O       0.3673   0.5698   0.1835     O
H       0.3861   0.3986   0.2297     H
C       0.4049   0.7651   0.8426     C
H       0.4137   0.8905   0.3265     H
C       0.4262   0.8142   0.2715     C
O       0.4439   0.1845   0.1401     O
C       0.4442   0.9053   0.1331     C
H       0.4482   0.2408   0.8518     H
N       0.4587   0.4469   0.6601     N
C       0.4667   0.1642   0.8001     C
C       0.4671   0.6183   0.2775     C
O        0.468   0.0511   0.9138     O
N       0.4893   0.2596   0.6694     N
H       0.4967   0.3892   0.3416     H
C       0.4994   0.5789   0.7148     C
C       0.5006   0.4211   0.2852     C
H       0.5033   0.6108   0.6584     H
N       0.5107   0.7404   0.3306     N
O        0.532   0.9489   0.0862     O
C       0.5329   0.3817   0.7225     C
C       0.5333   0.8358   0.1999     C
N       0.5413   0.5531   0.3399     N
H       0.5518   0.7592   0.1482     H
C       0.5558   0.0947   0.8669     C
O       0.5561   0.8155   0.8599     O
C       0.5738   0.1858   0.7285     C
H       0.5863   0.1095   0.6735     H
C       0.5951   0.2349   0.1574     C
H       0.6139   0.6014   0.7703     H
O       0.6327   0.4302   0.8165     O
C        0.636   0.7982    0.433     C
C       0.6379   0.3677   0.2279     C
H       0.6473   0.8798   0.2486     H
H       0.6524   0.4085   0.1799     H
C       0.6638   0.6032   0.4448     C
O       0.6782   0.9059   0.4746     O
H       0.6901    0.226   0.7764     H
H       0.7085   0.8877   0.6852     H
N       0.7099   0.7265   0.4865     N
O       0.7141   0.0828   0.8781     O
O       0.7152    0.185     0.12     O
O       0.7278   0.5441   0.4961     O
H        0.744   0.7721   0.7096     H
Gd      0.7487  0.98128  0.01058    Gd
H       0.7491   0.3828   0.2855     H
C       0.7966   0.8363    0.696     C
C       0.8556   0.7838   0.5908     C
O       0.9231   0.0438   0.2146     O
H       0.9235   0.8471   0.5843     H
H       0.9321   0.7248   0.5987     H
O       0.9452   0.9132   0.8946     O
C       0.9492   0.9078   0.7965     C
