data_I
_chemical_name_common  '/home/zhangsd/repos/MofS-CGCNN/ML/data/TSD/clean_cifs/OHIHET_clean'
_cell_length_a 13.98220
_cell_length_b 13.98220
_cell_length_c  6.22330
_cell_angle_alpha 90.00000
_cell_angle_beta  90.00000
_cell_angle_gamma 90.00000
_space_group_name_H-M_alt      'P 1'


loop_
_space_group_symop_operation_xyz
  'x, y, z' 

loop_
_atom_site_label
_atom_site_fract_x
_atom_site_fract_y
_atom_site_fract_z
_atom_site_type_symbol
C        0.003   0.8024   0.9154     C
C       0.0247   0.0619   0.3354     C
C       0.0311   0.9068   0.4973     C
C       0.0328   0.5555   0.8316     C
H        0.041    0.293    0.845     H
H       0.0527   0.8439   0.4959     H
C       0.0528   0.2418   0.9374     C
N       0.0549   0.1275   0.1645     N
H       0.0551   0.5923   0.7177     H
C       0.0555   0.9672   0.3316     C
C       0.0619   0.4753   0.1646     C
H       0.0923   0.9449   0.2177     H
C       0.0932   0.5311   0.9973     C
H        0.097    0.301    0.419     H
C       0.1275   0.4451   0.3355     C
C       0.1328   0.3594   0.4295     C
C       0.1406   0.1328   0.0705     C
N       0.1409   0.2044   0.9263     N
H       0.1561   0.5527   0.9959     H
C       0.1976    0.503   0.4154     C
H        0.199    0.097    0.081     H
N       0.2044   0.3591   0.5737     N
H        0.207    0.041    0.655     H
C       0.2418   0.4472   0.5626     C
Zn        0.25     0.25     0.75    Zn
C       0.2582   0.0528   0.5626     C
H        0.293    0.459    0.655     H
N       0.2956   0.1409   0.5737     N
H        0.301    0.403    0.081     H
C       0.3024    0.997   0.4154     C
H       0.3439   0.9473   0.9959     H
N       0.3591   0.2956   0.9263     N
C       0.3594   0.3672   0.0705     C
C       0.3672   0.1406   0.4295     C
C       0.3725   0.0549   0.3355     C
H        0.403    0.199    0.419     H
C       0.4068   0.9689   0.9973     C
H       0.4077   0.5551   0.2177     H
C       0.4381   0.0247   0.1646     C
C       0.4445   0.5328   0.3316     C
H       0.4449   0.9077   0.7177     H
N       0.4451   0.3725   0.1645     N
C       0.4472   0.2582   0.9374     C
H       0.4473   0.6561   0.4959     H
H        0.459    0.207    0.845     H
C       0.4672   0.9445   0.8316     C
C       0.4689   0.5932   0.4973     C
C       0.4753   0.4381   0.3354     C
C        0.497   0.6976   0.9154     C
C        0.503   0.3024   0.0846     C
C       0.5247   0.5619   0.6646     C
C       0.5311   0.4068   0.5027     C
C       0.5328   0.0555   0.1684     C
H        0.541    0.793    0.155     H
H       0.5527   0.3439   0.5041     H
C       0.5528   0.7418   0.0626     C
C       0.5549   0.6275   0.8355     C
H       0.5551   0.0923   0.2823     H
C       0.5555   0.4672   0.6684     C
C       0.5619   0.9753   0.8354     C
H       0.5923   0.4449   0.7823     H
C       0.5932   0.0311   0.0027     C
H        0.597    0.801    0.581     H
N       0.6275   0.9451   0.6645     N
C       0.6328   0.8594   0.5705     C
C       0.6406   0.6328   0.9295     C
N       0.6409   0.7044   0.0737     N
H       0.6561   0.0527   0.0041     H
C       0.6976    0.003   0.5846     C
H        0.699    0.597    0.919     H
N       0.7044   0.8591   0.4263     N
H        0.707    0.541    0.345     H
C       0.7418   0.9472   0.4374     C
Zn        0.75     0.75     0.25    Zn
C       0.7582   0.5528   0.4374     C
H        0.793    0.959    0.345     H
N       0.7956   0.6409   0.4263     N
H        0.801    0.903    0.919     H
C       0.8024    0.497   0.5846     C
H       0.8439   0.4473   0.0041     H
N       0.8591   0.7956   0.0737     N
C       0.8594   0.8672   0.9295     C
C       0.8672   0.6406   0.5705     C
N       0.8725   0.5549   0.6645     N
H        0.903    0.699    0.581     H
C       0.9068   0.4689   0.0027     C
H       0.9077   0.0551   0.7823     H
C       0.9381   0.5247   0.8354     C
C       0.9445   0.0328   0.6684     C
H       0.9449   0.4077   0.2823     H
C       0.9451   0.8725   0.8355     C
C       0.9472   0.7582   0.0626     C
H       0.9473   0.1561   0.5041     H
H        0.959    0.707    0.155     H
C       0.9672   0.4445   0.1684     C
C       0.9689   0.0932   0.5027     C
C       0.9753   0.9381   0.6646     C
C        0.997   0.1976   0.0846     C
