data_I
_chemical_name_common  '/home/zhangsd/repos/MofS-CGCNN/ML/data/TSD/clean_cifs/OJICUG_clean'
_cell_length_a 14.05600
_cell_length_b 14.05600
_cell_length_c 18.09900
_cell_angle_alpha 90.00000
_cell_angle_beta  90.00000
_cell_angle_gamma 120.00000
_space_group_name_H-M_alt      'P 1'


loop_
_space_group_symop_operation_xyz
  'x, y, z' 

loop_
_atom_site_label
_atom_site_fract_x
_atom_site_fract_y
_atom_site_fract_z
_atom_site_type_symbol
C       0.0276   0.4283  0.03362     C
C       0.0276   0.4283  0.46638     C
C       0.0276   0.5993  0.03362     C
C       0.0276   0.5993  0.46638     C
H       0.0462   0.3791   0.0567     H
H       0.0462   0.3791   0.4433     H
H       0.0462   0.6671   0.0567     H
H       0.0462   0.6671   0.4433     H
C       0.0554   0.5277  0.06706     C
C       0.0554   0.5277  0.43294     C
C       0.1164   0.5582  0.13882     C
C       0.1164   0.5582  0.36118     C
O      0.14133   0.4907  0.16659     O
O      0.14133   0.4907  0.33341     O
O      0.14133  0.65063  0.16659     O
O      0.14133  0.65063  0.33341     O
Sc     0.25014  0.50028     0.25    Sc
Sc     0.25014  0.74986     0.25    Sc
H       0.3329   0.3791   0.0567     H
H       0.3329   0.3791   0.4433     H
H       0.3329   0.9538   0.0567     H
H       0.3329   0.9538   0.4433     H
O      0.33333  0.66666     0.25     O
O      0.34937   0.4907  0.16659     O
O      0.34937   0.4907  0.33341     O
O      0.34937  0.85867  0.16659     O
O      0.34937  0.85867  0.33341     O
H       0.3791   0.0462   0.5567     H
H       0.3791   0.0462   0.9433     H
H       0.3791   0.3329   0.5567     H
H       0.3791   0.3329   0.9433     H
C       0.4007   0.4283  0.03362     C
C       0.4007   0.4283  0.46638     C
C       0.4007   0.9724  0.03362     C
C       0.4007   0.9724  0.46638     C
C       0.4283   0.0276  0.53362     C
C       0.4283   0.0276  0.96638     C
C       0.4283   0.4007  0.53362     C
C       0.4283   0.4007  0.96638     C
C       0.4418   0.5582  0.13882     C
C       0.4418   0.5582  0.36118     C
C       0.4418   0.8836  0.13882     C
C       0.4418   0.8836  0.36118     C
C       0.4723   0.5277  0.06706     C
C       0.4723   0.5277  0.43294     C
C       0.4723   0.9446  0.06706     C
C       0.4723   0.9446  0.43294     C
O       0.4907  0.14133  0.66659     O
O       0.4907  0.14133  0.83341     O
O       0.4907  0.34937  0.66659     O
O       0.4907  0.34937  0.83341     O
Sc     0.49972  0.74986     0.25    Sc
Sc     0.50028  0.25014     0.75    Sc
O       0.5093  0.65063  0.16659     O
O       0.5093  0.65063  0.33341     O
O       0.5093  0.85867  0.16659     O
O       0.5093  0.85867  0.33341     O
C       0.5277   0.0554  0.56706     C
C       0.5277   0.0554  0.93294     C
C       0.5277   0.4723  0.56706     C
C       0.5277   0.4723  0.93294     C
C       0.5582   0.1164  0.63882     C
C       0.5582   0.1164  0.86118     C
C       0.5582   0.4418  0.63882     C
C       0.5582   0.4418  0.86118     C
C       0.5717   0.5993  0.03362     C
C       0.5717   0.5993  0.46638     C
C       0.5717   0.9724  0.03362     C
C       0.5717   0.9724  0.46638     C
C       0.5993   0.0276  0.53362     C
C       0.5993   0.0276  0.96638     C
C       0.5993   0.5717  0.53362     C
C       0.5993   0.5717  0.96638     C
H       0.6209   0.6671   0.0567     H
H       0.6209   0.6671   0.4433     H
H       0.6209   0.9538   0.0567     H
H       0.6209   0.9538   0.4433     H
O      0.65063  0.14133  0.66659     O
O      0.65063  0.14133  0.83341     O
O      0.65063   0.5093  0.66659     O
O      0.65063   0.5093  0.83341     O
O      0.66667  0.33334     0.75     O
H       0.6671   0.0462   0.5567     H
H       0.6671   0.0462   0.9433     H
H       0.6671   0.6209   0.5567     H
H       0.6671   0.6209   0.9433     H
Sc     0.74986  0.25014     0.75    Sc
Sc     0.74986  0.49972     0.75    Sc
O      0.85867  0.34937  0.66659     O
O      0.85867  0.34937  0.83341     O
O      0.85867   0.5093  0.66659     O
O      0.85867   0.5093  0.83341     O
C       0.8836   0.4418  0.63882     C
C       0.8836   0.4418  0.86118     C
C       0.9446   0.4723  0.56706     C
C       0.9446   0.4723  0.93294     C
H       0.9538   0.3329   0.5567     H
H       0.9538   0.3329   0.9433     H
H       0.9538   0.6209   0.5567     H
H       0.9538   0.6209   0.9433     H
C       0.9724   0.4007  0.53362     C
C       0.9724   0.4007  0.96638     C
C       0.9724   0.5717  0.53362     C
C       0.9724   0.5717  0.96638     C
