data_I
_chemical_name_common  '/home/zhangsd/repos/MofS-CGCNN/ML/data/TSD/clean_cifs/OJIDAN_clean'
_cell_length_a 16.84300
_cell_length_b 31.47000
_cell_length_c 31.47000
_cell_angle_alpha 120.00000
_cell_angle_beta  90.00000
_cell_angle_gamma 90.00000
_space_group_name_H-M_alt      'P 1'


loop_
_space_group_symop_operation_xyz
  'x, y, z' 

loop_
_atom_site_label
_atom_site_fract_x
_atom_site_fract_y
_atom_site_fract_z
_atom_site_type_symbol
H       0.0216   0.4124   0.0952     H
H       0.0216   0.6828   0.5876     H
H       0.0216   0.9048   0.3172     H
C       0.0258   0.4227   0.1284     C
C       0.0258   0.7057   0.5773     C
C       0.0258   0.8716   0.2943     C
C       0.0276   0.2095   0.4678     C
C       0.0276   0.2583   0.7905     C
C       0.0276   0.5322   0.7417     C
H       0.0303   0.5996   0.2927     H
H       0.0303   0.6931   0.4004     H
H       0.0303   0.7073   0.3069     H
C        0.032   0.2006   0.6205     C
C        0.032   0.3795   0.5801     C
C        0.032   0.4199   0.7994     C
C       0.0325   0.5906   0.3167     C
C       0.0325   0.6833   0.2739     C
C       0.0325   0.7261   0.4094     C
C       0.0347   0.2504   0.6573     C
C       0.0347   0.3427   0.5931     C
C       0.0347   0.4069   0.7496     C
C       0.0348   0.1611   0.4504     C
C       0.0348   0.2893   0.8389     C
C       0.0348   0.5496   0.7107     C
C       0.0395   0.5634   0.3872     C
C       0.0395   0.6128   0.1762     C
C       0.0395   0.8238   0.4366     C
C       0.0419    0.457   0.2269     C
C       0.0419   0.7699    0.543     C
C       0.0419   0.7731   0.2301     C
H       0.0425   0.5537   0.4106     H
H       0.0425   0.5894   0.1431     H
H       0.0425   0.8569   0.4463     H
H       0.0469   0.4689   0.2604     H
H       0.0469   0.7396   0.2085     H
H       0.0469   0.7915   0.5311     H
H       0.0676   0.2311   0.4867     H
H       0.0676   0.2556   0.7689     H
H       0.0676   0.5133   0.7444     H
H       0.0824   0.2675   0.6639     H
H       0.0824   0.3361   0.6036     H
H       0.0824   0.3964   0.7325     H
C       0.0914   0.4111   0.1464     C
C       0.0914   0.7353   0.5889     C
C       0.0914   0.8536   0.2647     C
O       0.0935  0.12987  0.55988     O
O       0.0935  0.43001  0.87013     O
O       0.0935  0.44012  0.56999     O
C       0.1017   0.1747   0.5917     C
C       0.1017   0.4083    0.583     C
C       0.1017    0.417   0.8253     C
C       0.1021   0.1448   0.4679     C
C       0.1021   0.3231   0.8552     C
C       0.1021   0.5321   0.6769     C
O       0.1024  0.09955  0.45796     O
O       0.1024  0.35841  0.90045     O
O       0.1024  0.54204  0.64159     O
C       0.1042   0.5744   0.3263     C
C       0.1042   0.6737   0.2481     C
C       0.1042   0.7519   0.4256     C
C       0.1053   0.4286   0.1954     C
C       0.1053   0.7668   0.5714     C
C       0.1053   0.8046   0.2332     C
C        0.106   0.5607    0.361     C
C        0.106    0.639   0.1997     C
C        0.106   0.8003   0.4393     C
H       0.1288     0.39    0.124     H
H       0.1288    0.734     0.61     H
H       0.1288    0.876    0.266     H
H       0.1311   0.5492   0.2324     H
H       0.1311   0.6832   0.4508     H
H       0.1311   0.7676   0.3168     H
H       0.1324   0.4222   0.2744     H
H       0.1324   0.7256   0.1478     H
H       0.1324   0.8522   0.5778     H
H       0.1329   0.4756   0.0746     H
H       0.1329    0.599   0.5244     H
H       0.1329   0.9254    0.401     H
H        0.134   0.5199   0.1599     H
H        0.134     0.64   0.4801     H
H        0.134   0.8401     0.36     H
H       0.1453   0.4086   0.4053     H
H       0.1453   0.5947   0.0033     H
H       0.1453   0.9967   0.5914     H
Sc     0.14726  0.07196  0.50137    Sc
Sc     0.14726  0.42941  0.92804    Sc
Sc     0.14726  0.49863  0.57059    Sc
H        0.153    0.384   0.3231     H
H        0.153   0.6769   0.0609     H
H        0.153   0.9391    0.616     H
H       0.1532   0.5494   0.3671     H
H       0.1532   0.6329   0.1823     H
H       0.1532   0.8177   0.4506     H
O       0.1563  0.17336  0.49083     O
O       0.1563  0.31747  0.82664     O
O       0.1563  0.50917  0.68253     O
O       0.1629   0.1987   0.5936     O
O       0.1629   0.3949   0.8013     O
O       0.1629   0.4064   0.6051     O
C       0.1786   0.5711   0.2999     C
C       0.1786   0.7001   0.2712     C
C       0.1786   0.7288   0.4289     C
C       0.1787   0.4229   0.2163     C
C       0.1787   0.7837   0.2066     C
C       0.1787   0.7934   0.5771     C
C       0.1789   0.5544    0.249     C
C       0.1789   0.6946   0.4456     C
C       0.1789    0.751   0.3054     C
C       0.1802   0.4223   0.2597     C
C       0.1802   0.7403   0.1626     C
C       0.1802   0.8374   0.5777     C
C       0.1808   0.4837   0.0916     C
C       0.1808   0.6079   0.5163     C
C       0.1808   0.9084   0.3921     C
C       0.1822   0.5104   0.1433     C
C       0.1822   0.6329   0.4896     C
C       0.1822   0.8567   0.3671     C
O       0.1849   0.0398   0.5421     O
O       0.1849   0.4579   0.4977     O
O       0.1849   0.5023   0.9602     O
O       0.1854  0.00795  0.43905     O
O       0.1854   0.4311  0.99205     O
O       0.1854  0.56095   0.5689     O
C       0.1899   0.4174   0.3941     C
C       0.1899   0.6059   0.0233     C
C       0.1899   0.9767   0.5826     C
C       0.1911   0.4049   0.3451     C
C       0.1911   0.6549   0.0598     C
C       0.1911   0.9402   0.5951     C
C         0.25   0.0232   0.5469     C
O         0.25  0.10766  0.51426     O
Sc        0.25  0.18116  0.53904    Sc
Sc        0.25  0.35788  0.81884    Sc
O         0.25   0.4066  0.89234     O
C         0.25   0.4222   0.2823     C
C         0.25   0.4242   0.3304     C
C         0.25   0.4251   0.1968     C
H         0.25   0.4282   0.1689     H
C         0.25   0.4409   0.0131     C
C         0.25    0.442   0.4276     C
C         0.25   0.4531   0.4763     C
Sc        0.25  0.46096  0.64212    Sc
C         0.25   0.4703   0.0676     C
O         0.25  0.48574   0.5934     O
C         0.25    0.523   0.1703     C
C         0.25   0.5237   0.9768     C
C         0.25   0.5456   0.2236     C
C         0.25   0.5722   0.5591     C
C         0.25   0.5724   0.0144     C
C         0.25   0.5796    0.323     C
H         0.25   0.5921   0.3568     H
C         0.25   0.5973   0.5297     C
H         0.25   0.6432   0.2353     H
C         0.25   0.6473    0.477     C
C         0.25   0.6696   0.0938     C
C         0.25    0.677   0.2566     C
C         0.25    0.678   0.4544     C
C         0.25   0.7177   0.1399     C
H         0.25   0.7407   0.5718     H
C         0.25   0.7434   0.4204     C
H         0.25   0.7647   0.4079     H
C         0.25   0.7717   0.5749     C
C         0.25   0.7764    0.322     C
C         0.25   0.8032   0.2283     C
C         0.25   0.8297   0.3527     C
H         0.25   0.8311   0.2593     H
C         0.25   0.8601   0.5778     C
C         0.25   0.9062   0.5758     C
C         0.25   0.9324   0.4027     C
C         0.25   0.9856    0.558     C
C         0.25   0.9869   0.4278     C
C       0.3089   0.4049   0.3451     C
C       0.3089   0.6549   0.0598     C
C       0.3089   0.9402   0.5951     C
C       0.3101   0.4174   0.3941     C
C       0.3101   0.6059   0.0233     C
C       0.3101   0.9767   0.5826     C
O       0.3146  0.00795  0.43905     O
O       0.3146   0.4311  0.99205     O
O       0.3146  0.56095   0.5689     O
O       0.3151   0.0398   0.5421     O
O       0.3151   0.4579   0.4977     O
O       0.3151   0.5023   0.9602     O
C       0.3178   0.5104   0.1433     C
C       0.3178   0.6329   0.4896     C
C       0.3178   0.8567   0.3671     C
C       0.3192   0.4837   0.0916     C
C       0.3192   0.6079   0.5163     C
C       0.3192   0.9084   0.3921     C
C       0.3198   0.4223   0.2597     C
C       0.3198   0.7403   0.1626     C
C       0.3198   0.8374   0.5777     C
C       0.3211   0.5544    0.249     C
C       0.3211   0.6946   0.4456     C
C       0.3211    0.751   0.3054     C
C       0.3213   0.4229   0.2163     C
C       0.3213   0.7837   0.2066     C
C       0.3213   0.7934   0.5771     C
C       0.3214   0.5711   0.2999     C
C       0.3214   0.7001   0.2712     C
C       0.3214   0.7288   0.4289     C
O       0.3371   0.1987   0.5936     O
O       0.3371   0.3949   0.8013     O
O       0.3371   0.4064   0.6051     O
O       0.3437  0.17336  0.49083     O
O       0.3437  0.31747  0.82664     O
O       0.3437  0.50917  0.68253     O
H       0.3468   0.5494   0.3671     H
H       0.3468   0.6329   0.1823     H
H       0.3468   0.8177   0.4506     H
H        0.347    0.384   0.3231     H
H        0.347   0.6769   0.0609     H
H        0.347   0.9391    0.616     H
Sc     0.35274  0.07196  0.50137    Sc
Sc     0.35274  0.42941  0.92804    Sc
Sc     0.35274  0.49863  0.57059    Sc
H       0.3547   0.4086   0.4053     H
H       0.3547   0.5947   0.0033     H
H       0.3547   0.9967   0.5914     H
H        0.366   0.5199   0.1599     H
H        0.366     0.64   0.4801     H
H        0.366   0.8401     0.36     H
H       0.3671   0.4756   0.0746     H
H       0.3671    0.599   0.5244     H
H       0.3671   0.9254    0.401     H
H       0.3676   0.4222   0.2744     H
H       0.3676   0.7256   0.1478     H
H       0.3676   0.8522   0.5778     H
H       0.3689   0.5492   0.2324     H
H       0.3689   0.6832   0.4508     H
H       0.3689   0.7676   0.3168     H
H       0.3712     0.39    0.124     H
H       0.3712    0.734     0.61     H
H       0.3712    0.876    0.266     H
C        0.394   0.5607    0.361     C
C        0.394    0.639   0.1997     C
C        0.394   0.8003   0.4393     C
C       0.3947   0.4286   0.1954     C
C       0.3947   0.7668   0.5714     C
C       0.3947   0.8046   0.2332     C
C       0.3958   0.5744   0.3263     C
C       0.3958   0.6737   0.2481     C
C       0.3958   0.7519   0.4256     C
O       0.3976  0.09955  0.45796     O
O       0.3976  0.35841  0.90045     O
O       0.3976  0.54204  0.64159     O
C       0.3979   0.1448   0.4679     C
C       0.3979   0.3231   0.8552     C
C       0.3979   0.5321   0.6769     C
C       0.3983   0.1747   0.5917     C
C       0.3983   0.4083    0.583     C
C       0.3983    0.417   0.8253     C
O       0.4065  0.12987  0.55988     O
O       0.4065  0.43001  0.87013     O
O       0.4065  0.44012  0.56999     O
C       0.4086   0.4111   0.1464     C
C       0.4086   0.7353   0.5889     C
C       0.4086   0.8536   0.2647     C
H       0.4176   0.2675   0.6639     H
H       0.4176   0.3361   0.6036     H
H       0.4176   0.3964   0.7325     H
H       0.4324   0.2311   0.4867     H
H       0.4324   0.2556   0.7689     H
H       0.4324   0.5133   0.7444     H
H       0.4531   0.4689   0.2604     H
H       0.4531   0.7396   0.2085     H
H       0.4531   0.7915   0.5311     H
H       0.4575   0.5537   0.4106     H
H       0.4575   0.5894   0.1431     H
H       0.4575   0.8569   0.4463     H
C       0.4581    0.457   0.2269     C
C       0.4581   0.7699    0.543     C
C       0.4581   0.7731   0.2301     C
C       0.4605   0.5634   0.3872     C
C       0.4605   0.6128   0.1762     C
C       0.4605   0.8238   0.4366     C
C       0.4652   0.1611   0.4504     C
C       0.4652   0.2893   0.8389     C
C       0.4652   0.5496   0.7107     C
C       0.4653   0.2504   0.6573     C
C       0.4653   0.3427   0.5931     C
C       0.4653   0.4069   0.7496     C
C       0.4675   0.5906   0.3167     C
C       0.4675   0.6833   0.2739     C
C       0.4675   0.7261   0.4094     C
C        0.468   0.2006   0.6205     C
C        0.468   0.3795   0.5801     C
C        0.468   0.4199   0.7994     C
H       0.4697   0.5996   0.2927     H
H       0.4697   0.6931   0.4004     H
H       0.4697   0.7073   0.3069     H
C       0.4724   0.2095   0.4678     C
C       0.4724   0.2583   0.7905     C
C       0.4724   0.5322   0.7417     C
C       0.4742   0.4227   0.1284     C
C       0.4742   0.7057   0.5773     C
C       0.4742   0.8716   0.2943     C
H       0.4784   0.4124   0.0952     H
H       0.4784   0.6828   0.5876     H
H       0.4784   0.9048   0.3172     H
H       0.5216   0.0952   0.4124     H
H       0.5216   0.3172   0.9048     H
H       0.5216   0.5876   0.6828     H
C       0.5258   0.1284   0.4227     C
C       0.5258   0.2943   0.8716     C
C       0.5258   0.5773   0.7057     C
C       0.5276   0.4678   0.2095     C
C       0.5276   0.7417   0.5322     C
C       0.5276   0.7905   0.2583     C
H       0.5303   0.2927   0.5996     H
H       0.5303   0.3069   0.7073     H
H       0.5303   0.4004   0.6931     H
C        0.532   0.5801   0.3795     C
C        0.532   0.6205   0.2006     C
C        0.532   0.7994   0.4199     C
C       0.5325   0.2739   0.6833     C
C       0.5325   0.3167   0.5906     C
C       0.5325   0.4094   0.7261     C
C       0.5347   0.5931   0.3427     C
C       0.5347   0.6573   0.2504     C
C       0.5347   0.7496   0.4069     C
C       0.5348   0.4504   0.1611     C
C       0.5348   0.7107   0.5496     C
C       0.5348   0.8389   0.2893     C
C       0.5395   0.1762   0.6128     C
C       0.5395   0.3872   0.5634     C
C       0.5395   0.4366   0.8238     C
C       0.5419   0.2269    0.457     C
C       0.5419   0.2301   0.7731     C
C       0.5419    0.543   0.7699     C
H       0.5425   0.1431   0.5894     H
H       0.5425   0.4106   0.5537     H
H       0.5425   0.4463   0.8569     H
H       0.5469   0.2085   0.7396     H
H       0.5469   0.2604   0.4689     H
H       0.5469   0.5311   0.7915     H
H       0.5676   0.4867   0.2311     H
H       0.5676   0.7444   0.5133     H
H       0.5676   0.7689   0.2556     H
H       0.5824   0.6036   0.3361     H
H       0.5824   0.6639   0.2675     H
H       0.5824   0.7325   0.3964     H
C       0.5914   0.1464   0.4111     C
C       0.5914   0.2647   0.8536     C
C       0.5914   0.5889   0.7353     C
O       0.5935  0.55988  0.12987     O
O       0.5935  0.56999  0.44012     O
O       0.5935  0.87013  0.43001     O
C       0.6017    0.583   0.4083     C
C       0.6017   0.5917   0.1747     C
C       0.6017   0.8253    0.417     C
C       0.6021   0.4679   0.1448     C
C       0.6021   0.6769   0.5321     C
C       0.6021   0.8552   0.3231     C
O       0.6024  0.45796  0.09955     O
O       0.6024  0.64159  0.54204     O
O       0.6024  0.90045  0.35841     O
C       0.6042   0.2481   0.6737     C
C       0.6042   0.3263   0.5744     C
C       0.6042   0.4256   0.7519     C
C       0.6053   0.1954   0.4286     C
C       0.6053   0.2332   0.8046     C
C       0.6053   0.5714   0.7668     C
C        0.606   0.1997    0.639     C
C        0.606    0.361   0.5607     C
C        0.606   0.4393   0.8003     C
H       0.6288    0.124     0.39     H
H       0.6288    0.266    0.876     H
H       0.6288     0.61    0.734     H
H       0.6311   0.2324   0.5492     H
H       0.6311   0.3168   0.7676     H
H       0.6311   0.4508   0.6832     H
H       0.6324   0.1478   0.7256     H
H       0.6324   0.2744   0.4222     H
H       0.6324   0.5778   0.8522     H
H       0.6329   0.0746   0.4756     H
H       0.6329    0.401   0.9254     H
H       0.6329   0.5244    0.599     H
H        0.634   0.1599   0.5199     H
H        0.634     0.36   0.8401     H
H        0.634   0.4801     0.64     H
H       0.6453   0.0033   0.5947     H
H       0.6453   0.4053   0.4086     H
H       0.6453   0.5914   0.9967     H
Sc     0.64726  0.50137  0.07196    Sc
Sc     0.64726  0.57059  0.49863    Sc
Sc     0.64726  0.92804  0.42941    Sc
H        0.653   0.0609   0.6769     H
H        0.653   0.3231    0.384     H
H        0.653    0.616   0.9391     H
H       0.6532   0.1823   0.6329     H
H       0.6532   0.3671   0.5494     H
H       0.6532   0.4506   0.8177     H
O       0.6563  0.49083  0.17336     O
O       0.6563  0.68253  0.50917     O
O       0.6563  0.82664  0.31747     O
O       0.6629   0.5936   0.1987     O
O       0.6629   0.6051   0.4064     O
O       0.6629   0.8013   0.3949     O
C       0.6786   0.2712   0.7001     C
C       0.6786   0.2999   0.5711     C
C       0.6786   0.4289   0.7288     C
C       0.6787   0.2066   0.7837     C
C       0.6787   0.2163   0.4229     C
C       0.6787   0.5771   0.7934     C
C       0.6789    0.249   0.5544     C
C       0.6789   0.3054    0.751     C
C       0.6789   0.4456   0.6946     C
C       0.6802   0.1626   0.7403     C
C       0.6802   0.2597   0.4223     C
C       0.6802   0.5777   0.8374     C
C       0.6808   0.0916   0.4837     C
C       0.6808   0.3921   0.9084     C
C       0.6808   0.5163   0.6079     C
C       0.6822   0.1433   0.5104     C
C       0.6822   0.3671   0.8567     C
C       0.6822   0.4896   0.6329     C
O       0.6849   0.4977   0.4579     O
O       0.6849   0.5421   0.0398     O
O       0.6849   0.9602   0.5023     O
O       0.6854  0.43905  0.00795     O
O       0.6854   0.5689  0.56095     O
O       0.6854  0.99205   0.4311     O
C       0.6899   0.0233   0.6059     C
C       0.6899   0.3941   0.4174     C
C       0.6899   0.5826   0.9767     C
C       0.6911   0.0598   0.6549     C
C       0.6911   0.3451   0.4049     C
C       0.6911   0.5951   0.9402     C
C         0.75   0.0131   0.4409     C
C         0.75   0.0144   0.5724     C
C         0.75   0.0676   0.4703     C
C         0.75   0.0938   0.6696     C
C         0.75   0.1399   0.7177     C
H         0.75   0.1689   0.4282     H
C         0.75   0.1703    0.523     C
C         0.75   0.1968   0.4251     C
C         0.75   0.2236   0.5456     C
C         0.75   0.2283   0.8032     C
H         0.75   0.2353   0.6432     H
C         0.75   0.2566    0.677     C
H         0.75   0.2593   0.8311     H
C         0.75   0.2823   0.4222     C
C         0.75    0.322   0.7764     C
C         0.75    0.323   0.5796     C
C         0.75   0.3304   0.4242     C
C         0.75   0.3527   0.8297     C
H         0.75   0.3568   0.5921     H
C         0.75   0.4027   0.9324     C
H         0.75   0.4079   0.7647     H
C         0.75   0.4204   0.7434     C
C         0.75   0.4276    0.442     C
C         0.75   0.4278   0.9869     C
C         0.75   0.4544    0.678     C
C         0.75   0.4763   0.4531     C
C         0.75    0.477   0.6473     C
O         0.75  0.51426  0.10766     O
C         0.75   0.5297   0.5973     C
Sc        0.75  0.53904  0.18116    Sc
C         0.75   0.5469   0.0232     C
C         0.75    0.558   0.9856     C
C         0.75   0.5591   0.5722     C
H         0.75   0.5718   0.7407     H
C         0.75   0.5749   0.7717     C
C         0.75   0.5758   0.9062     C
C         0.75   0.5778   0.8601     C
O         0.75   0.5934  0.48574     O
Sc        0.75  0.64212  0.46096    Sc
Sc        0.75  0.81884  0.35788    Sc
O         0.75  0.89234   0.4066     O
C         0.75   0.9768   0.5237     C
C       0.8089   0.0598   0.6549     C
C       0.8089   0.3451   0.4049     C
C       0.8089   0.5951   0.9402     C
C       0.8101   0.0233   0.6059     C
C       0.8101   0.3941   0.4174     C
C       0.8101   0.5826   0.9767     C
O       0.8146  0.43905  0.00795     O
O       0.8146   0.5689  0.56095     O
O       0.8146  0.99205   0.4311     O
O       0.8151   0.4977   0.4579     O
O       0.8151   0.5421   0.0398     O
O       0.8151   0.9602   0.5023     O
C       0.8178   0.1433   0.5104     C
C       0.8178   0.3671   0.8567     C
C       0.8178   0.4896   0.6329     C
C       0.8192   0.0916   0.4837     C
C       0.8192   0.3921   0.9084     C
C       0.8192   0.5163   0.6079     C
C       0.8198   0.1626   0.7403     C
C       0.8198   0.2597   0.4223     C
C       0.8198   0.5777   0.8374     C
C       0.8211    0.249   0.5544     C
C       0.8211   0.3054    0.751     C
C       0.8211   0.4456   0.6946     C
C       0.8213   0.2066   0.7837     C
C       0.8213   0.2163   0.4229     C
C       0.8213   0.5771   0.7934     C
C       0.8214   0.2712   0.7001     C
C       0.8214   0.2999   0.5711     C
C       0.8214   0.4289   0.7288     C
O       0.8371   0.5936   0.1987     O
O       0.8371   0.6051   0.4064     O
O       0.8371   0.8013   0.3949     O
O       0.8437  0.49083  0.17336     O
O       0.8437  0.68253  0.50917     O
O       0.8437  0.82664  0.31747     O
H       0.8468   0.1823   0.6329     H
H       0.8468   0.3671   0.5494     H
H       0.8468   0.4506   0.8177     H
H        0.847   0.0609   0.6769     H
H        0.847   0.3231    0.384     H
H        0.847    0.616   0.9391     H
Sc     0.85274  0.50137  0.07196    Sc
Sc     0.85274  0.57059  0.49863    Sc
Sc     0.85274  0.92804  0.42941    Sc
H       0.8547   0.0033   0.5947     H
H       0.8547   0.4053   0.4086     H
H       0.8547   0.5914   0.9967     H
H        0.866   0.1599   0.5199     H
H        0.866     0.36   0.8401     H
H        0.866   0.4801     0.64     H
H       0.8671   0.0746   0.4756     H
H       0.8671    0.401   0.9254     H
H       0.8671   0.5244    0.599     H
H       0.8676   0.1478   0.7256     H
H       0.8676   0.2744   0.4222     H
H       0.8676   0.5778   0.8522     H
H       0.8689   0.2324   0.5492     H
H       0.8689   0.3168   0.7676     H
H       0.8689   0.4508   0.6832     H
H       0.8712    0.124     0.39     H
H       0.8712    0.266    0.876     H
H       0.8712     0.61    0.734     H
C        0.894   0.1997    0.639     C
C        0.894    0.361   0.5607     C
C        0.894   0.4393   0.8003     C
C       0.8947   0.1954   0.4286     C
C       0.8947   0.2332   0.8046     C
C       0.8947   0.5714   0.7668     C
C       0.8958   0.2481   0.6737     C
C       0.8958   0.3263   0.5744     C
C       0.8958   0.4256   0.7519     C
O       0.8976  0.45796  0.09955     O
O       0.8976  0.64159  0.54204     O
O       0.8976  0.90045  0.35841     O
C       0.8979   0.4679   0.1448     C
C       0.8979   0.6769   0.5321     C
C       0.8979   0.8552   0.3231     C
C       0.8983    0.583   0.4083     C
C       0.8983   0.5917   0.1747     C
C       0.8983   0.8253    0.417     C
O       0.9065  0.55988  0.12987     O
O       0.9065  0.56999  0.44012     O
O       0.9065  0.87013  0.43001     O
C       0.9086   0.1464   0.4111     C
C       0.9086   0.2647   0.8536     C
C       0.9086   0.5889   0.7353     C
H       0.9176   0.6036   0.3361     H
H       0.9176   0.6639   0.2675     H
H       0.9176   0.7325   0.3964     H
H       0.9324   0.4867   0.2311     H
H       0.9324   0.7444   0.5133     H
H       0.9324   0.7689   0.2556     H
H       0.9531   0.2085   0.7396     H
H       0.9531   0.2604   0.4689     H
H       0.9531   0.5311   0.7915     H
H       0.9575   0.1431   0.5894     H
H       0.9575   0.4106   0.5537     H
H       0.9575   0.4463   0.8569     H
C       0.9581   0.2269    0.457     C
C       0.9581   0.2301   0.7731     C
C       0.9581    0.543   0.7699     C
C       0.9605   0.1762   0.6128     C
C       0.9605   0.3872   0.5634     C
C       0.9605   0.4366   0.8238     C
C       0.9652   0.4504   0.1611     C
C       0.9652   0.7107   0.5496     C
C       0.9652   0.8389   0.2893     C
C       0.9653   0.5931   0.3427     C
C       0.9653   0.6573   0.2504     C
C       0.9653   0.7496   0.4069     C
C       0.9675   0.2739   0.6833     C
C       0.9675   0.3167   0.5906     C
C       0.9675   0.4094   0.7261     C
C        0.968   0.5801   0.3795     C
C        0.968   0.6205   0.2006     C
C        0.968   0.7994   0.4199     C
H       0.9697   0.2927   0.5996     H
H       0.9697   0.3069   0.7073     H
H       0.9697   0.4004   0.6931     H
C       0.9724   0.4678   0.2095     C
C       0.9724   0.7417   0.5322     C
C       0.9724   0.7905   0.2583     C
C       0.9742   0.1284   0.4227     C
C       0.9742   0.2943   0.8716     C
C       0.9742   0.5773   0.7057     C
H       0.9784   0.0952   0.4124     H
H       0.9784   0.3172   0.9048     H
H       0.9784   0.5876   0.6828     H
