data_I
_chemical_name_common  '/home/zhangsd/repos/MofS-CGCNN/ML/data/TSD/clean_cifs/OKELIB_clean'
_cell_length_a 11.00310
_cell_length_b 11.22170
_cell_length_c 11.69590
_cell_angle_alpha 69.19300
_cell_angle_beta  79.67600
_cell_angle_gamma 81.00800
_space_group_name_H-M_alt      'P 1'


loop_
_space_group_symop_operation_xyz
  'x, y, z' 

loop_
_atom_site_label
_atom_site_fract_x
_atom_site_fract_y
_atom_site_fract_z
_atom_site_type_symbol
O       0.0131   0.0709    0.371     O
Ni     0.01533   0.7547  0.76187    Ni
H       0.0195   0.0191   0.3316     H
Ni     0.02843   0.5735  0.07488    Ni
O       0.0576   0.5835   0.8967     O
O       0.0916   0.1555   0.1211     O
O       0.1158   0.6673   0.6405     O
H       0.1347   0.5629   0.8805     H
O       0.1356   0.3101   0.9429     O
Ni     0.13653   0.9824  0.49931    Ni
O       0.1396   0.8218   0.4556     O
C       0.1492   0.1979   0.0161     C
O       0.1519   0.2972   0.2585     O
C       0.1578   0.7035   0.5296     C
O       0.1761   0.8117   0.7961     O
O       0.2009   0.4688   0.0939     O
H       0.2074   0.7344   0.2859     H
C        0.223   0.6175   0.4627     C
C       0.2266    0.366   0.1829     C
C       0.2387   0.6532   0.3329     C
C        0.244   0.1072   0.9728     C
H       0.2544   0.2086   0.7918     H
H        0.266   0.4646   0.6162     H
C       0.2727   0.8385   0.7152     C
O       0.2732   0.9012   0.6021     O
C        0.275   0.4916   0.5305     C
H        0.277   0.9731   0.1379     H
C       0.2773   0.1291   0.8481     C
C       0.2927   0.9888   0.0533     C
C       0.2996   0.5693   0.2755     C
H       0.3082   0.5949   0.1899     H
C       0.3368   0.4121   0.4708     C
C       0.3448   0.0339   0.8053     C
C       0.3494    0.446   0.3417     C
H       0.3595   0.0482   0.7209     H
C       0.3595   0.8996   0.0127     C
C       0.3622   0.3303   0.1905     C
H       0.3722   0.3324   0.5166     H
H       0.3864   0.8227   0.0703     H
C       0.3915   0.9157    0.888     C
H       0.3937   0.2245   0.0787     H
C       0.3998   0.7818   0.7526     C
C       0.4173   0.3597   0.2783     C
H       0.4261    0.672   0.6483     H
C       0.4297   0.2443    0.135     C
C       0.4529   0.8127   0.8404     C
C       0.4644   0.6952   0.7008     C
C       0.5356   0.3048   0.2992     C
C       0.5471   0.1873   0.1596     C
C       0.5703   0.7557    0.865     C
H       0.5739    0.328   0.3517     H
C       0.5827   0.6403   0.7217     C
C       0.6002   0.2182   0.2474     C
H       0.6063   0.7755   0.9213     H
C       0.6085   0.0843    0.112     C
H       0.6136   0.1773   0.9297     H
H       0.6278   0.6676   0.4834     H
C       0.6378   0.6697   0.8095     C
C       0.6405   0.1004   0.9873     C
H       0.6405   0.9518   0.2791     H
C       0.6506    0.554   0.6583     C
C       0.6552   0.9661   0.1947     C
C       0.6632   0.5879   0.5292     C
H       0.6918   0.4051   0.8101     H
C       0.7004   0.4307   0.7245     C
C       0.7073   0.0112   0.9467     C
C       0.7227   0.8709   0.1519     C
H        0.723   0.0269   0.8621     H
C        0.725   0.5084   0.4695     C
O       0.7268   0.0988   0.3979     O
C       0.7273   0.1615   0.2848     C
H        0.734   0.5354   0.3838     H
H       0.7456   0.7914   0.2082     H
C        0.756   0.8928   0.0272     C
C       0.7613   0.3468   0.6671     C
C       0.7734    0.634   0.8171     C
C        0.777   0.3825   0.5373     C
H       0.7926   0.2656   0.7141     H
O       0.7991   0.5312   0.9061     O
O       0.8239   0.1883   0.2039     O
C       0.8422   0.2965   0.4704     C
O       0.8481   0.7028   0.7415     O
C       0.8508   0.8021   0.9839     C
O       0.8604   0.1782   0.5444     O
Ni     0.86347   0.0176  0.50069    Ni
O       0.8644   0.6899   0.0571     O
H       0.8653   0.4371   0.1195     H
O       0.8842   0.3327   0.3595     O
O       0.9084   0.8445   0.8789     O
O       0.9424   0.4165   0.1033     O
Ni     0.97157   0.4265  0.92512    Ni
H       0.9805   0.9809   0.6684     H
Ni     0.98467   0.2453  0.23813    Ni
O       0.9869   0.9291    0.629     O
