data_I
_chemical_name_common  '/home/zhangsd/repos/MofS-CGCNN/ML/data/TSD/clean_cifs/OKILIE_clean'
_cell_length_a  8.74420
_cell_length_b 16.76590
_cell_length_c 16.76590
_cell_angle_alpha 62.95660
_cell_angle_beta  79.98840
_cell_angle_gamma 100.01200
_space_group_name_H-M_alt      'P 1'


loop_
_space_group_symop_operation_xyz
  'x, y, z' 

loop_
_atom_site_label
_atom_site_fract_x
_atom_site_fract_y
_atom_site_fract_z
_atom_site_type_symbol
O      0.00063   0.5606  0.66751     O
C       0.0151   0.7846    0.121     C
H       0.0193   0.9949   0.1267     H
H       0.0244   0.8784   0.9949     H
O      0.03053  0.27857  0.22908     O
C       0.0482   0.2156   0.2967     C
C       0.0511   0.8235   0.0285     C
H       0.0537   0.6881   0.2375     H
O       0.0542  0.05872  0.51722     O
H        0.055   0.3824   0.7861     H
H       0.0612   0.9166   0.2725     H
C       0.0689     0.71   0.1739     C
O      0.07142  0.57594  0.48278     O
C       0.0796   0.0285    0.148     C
H       0.0898   0.2325   0.6257     H
H       0.1034   0.1508   0.0408     H
C       0.1034   0.3343   0.6549     C
C       0.1065   0.9807   0.2331     C
C       0.1258   0.7862   0.9807     C
C       0.1361    0.121   0.0944     C
C       0.1418   0.6702   0.1329     C
Mn     0.14283  0.42792  0.14856    Mn
N       0.1437   0.2879   0.6106     N
H       0.1442   0.0408   0.8084     H
H       0.1446   0.8109   0.9166     H
H        0.146   0.1267   0.8784     H
O      0.16814  0.22811  0.33249     O
H       0.1726   0.6176   0.1685     H
C       0.1726   0.7056   0.0381     C
N       0.2081   0.4204   0.6117     N
C       0.2107   0.0381   0.2563     C
Mn     0.21491  0.57208  0.57648    Mn
H       0.2155   0.8582   0.3743     H
C       0.2276    0.148   0.8235     C
C       0.2305   0.0944   0.7846     C
C       0.2428   0.1739   0.1161     C
O      0.25196  0.72143  0.50765     O
N       0.2543   0.8985   0.3894     N
C       0.2583   0.9892   0.3451     C
O      0.25961  0.22908  0.49235     O
C       0.2691   0.6657   0.9892     C
C       0.2747   0.1329   0.1969     C
C       0.2844   0.3418   0.5373     C
N       0.2877   0.5796   0.0321     N
H       0.2912   0.2375   0.0744     H
Mn     0.29139  0.14856  0.42352    Mn
N       0.3198   0.0321   0.3883     N
C       0.3202   0.4236   0.5408     C
C       0.3217   0.8791   0.4627     C
C       0.3326   0.7844   0.5123     C
H       0.3337   0.2725   0.8109     H
C       0.3396   0.2331   0.7862     C
H       0.3411   0.1685   0.2139     H
C       0.3449   0.2967   0.4877     C
O       0.3477  0.41794  0.06304     O
N       0.3558   0.7121   0.8985     N
H       0.3573   0.7675   0.8582     H
C       0.3589   0.1161     0.71     C
C        0.361   0.9644   0.4592     C
H       0.3656   0.0744   0.6881     H
C       0.3966   0.5764   0.9644     C
O      0.41074  0.06304  0.51902     O
C       0.4245   0.9924   0.5199     C
O      0.42976  0.58206  0.48098     O
C       0.4321   0.4877   0.9924     C
O      0.44003  0.77189   0.5606     O
C       0.4426   0.6582   0.8791     C
C       0.4444   0.5123   0.4801     C
H       0.4526   0.8492   0.1916     H
C        0.467   0.2563   0.7056     C
C       0.4716   0.1969   0.6702     C
O      0.49548  0.94128  0.57594     O
O      0.50063  0.33249   0.4394     O
C       0.5151    0.879   0.2154     C
H       0.5193   0.8733   0.0051     H
H       0.5244   0.0051   0.1216     H
O      0.53053  0.77092  0.72143     O
C       0.5482   0.7033   0.7844     C
C       0.5511   0.9715   0.1765     C
H       0.5537   0.7625   0.3119     H
O       0.5542  0.48278  0.94128     O
H        0.555   0.2139   0.6176     H
H       0.5612   0.7275   0.0834     H
C       0.5689   0.8261     0.29     C
O      0.57142  0.51722  0.42406     O
C       0.5796    0.852   0.9715     C
H       0.5898   0.3743   0.7675     H
C       0.6034   0.3451   0.6657     C
H       0.6034   0.9592   0.8492     H
C       0.6065   0.7669   0.0193     C
C       0.6258   0.0193   0.2138     C
C       0.6361   0.9056    0.879     C
C       0.6418   0.8671   0.3298     C
Mn     0.64283  0.85144  0.57208    Mn
N       0.6437   0.3894   0.7121     N
H       0.6442   0.1916   0.9592     H
H       0.6446   0.0834   0.1891     H
H        0.646   0.1216   0.8733     H
O      0.66814  0.66751  0.77189     O
H       0.6726   0.8315   0.3824     H
C       0.6726   0.9619   0.2944     C
N       0.7081   0.3883   0.5796     N
C       0.7107   0.7437   0.9619     C
Mn     0.71491  0.42352  0.42792    Mn
H       0.7155   0.6257   0.1418     H
C       0.7276   0.1765    0.852     C
C       0.7305   0.2154   0.9056     C
C       0.7428   0.8839   0.8261     C
O      0.75196  0.49235  0.27857     O
N       0.7543   0.6106   0.1015     N
C       0.7583   0.6549   0.0108     C
O      0.75961  0.50765  0.77092     O
C       0.7691   0.0108   0.3343     C
C       0.7747   0.8031   0.8671     C
C       0.7844   0.4627   0.6582     C
N       0.7877   0.9679   0.4204     N
H       0.7912   0.9256   0.7625     H
Mn     0.79139  0.57648  0.85144    Mn
N       0.8198   0.6117   0.9679     N
C       0.8202   0.4592   0.5764     C
C       0.8217   0.5373   0.1209     C
C       0.8326   0.4877   0.2156     C
H       0.8337   0.1891   0.7275     H
C       0.8396   0.2138   0.7669     C
H       0.8411   0.7861   0.8315     H
C       0.8449   0.5123   0.7033     C
O       0.8477  0.93696  0.58206     O
N       0.8558   0.1015   0.2879     N
H       0.8573   0.1418   0.2325     H
C       0.8589     0.29   0.8839     C
C        0.861   0.5408   0.0356     C
H       0.8656   0.3119   0.9256     H
C       0.8966   0.0356   0.4236     C
O      0.91074  0.48098  0.93696     O
C       0.9245   0.4801   0.0076     C
O      0.92976  0.51902  0.41794     O
C       0.9321   0.0076   0.5123     C
O      0.94003   0.4394  0.22811     O
C       0.9426   0.1209   0.3418     C
C       0.9444   0.5199   0.4877     C
H       0.9526   0.8084   0.1508     H
C        0.967   0.2944   0.7437     C
C       0.9716   0.3298   0.8031     C
O      0.99548  0.42406  0.05872     O
