data_I
_chemical_name_common  '/home/zhangsd/repos/MofS-CGCNN/ML/data/TSD/clean_cifs/OLANEW_clean'
_cell_length_a 16.41300
_cell_length_b 18.43000
_cell_length_c 24.70000
_cell_angle_alpha 87.90000
_cell_angle_beta  85.39500
_cell_angle_gamma 75.05800
_space_group_name_H-M_alt      'P 1'


loop_
_space_group_symop_operation_xyz
  'x, y, z' 

loop_
_atom_site_label
_atom_site_fract_x
_atom_site_fract_y
_atom_site_fract_z
_atom_site_type_symbol
C       0.0055   0.4171   0.0526     C
O       0.0074   0.8037   0.8621     O
O        0.013   0.2258   0.6072     O
C       0.0152   0.0582   0.4424     C
C       0.0153   0.7564   0.6355     C
C       0.0187   0.4719   0.0839     C
H       0.0192   0.4809   0.9142     H
O       0.0192   0.9776   0.2784     O
H       0.0226   0.6836   0.5756     H
O       0.0232   0.2341   0.5193     O
C       0.0244   0.7036   0.8007     C
C       0.0266   0.0302   0.3908     C
H       0.0355   0.8211   0.6943     H
C       0.0382    0.388   0.2614     C
H       0.0422   0.5731   0.9672     H
C       0.0428   0.9579   0.6399     C
C       0.0454   0.9811   0.6971     C
C       0.0477   0.6047   0.7369     C
C       0.0485   0.2033   0.5611     C
C        0.054   0.7539   0.8356     C
H       0.0542   0.3101   0.0277     H
C       0.0546   0.7021   0.5985     C
H       0.0592   0.4181   0.2831     H
H       0.0611    0.051   0.4636     H
C       0.0625   0.2878    0.199     C
C       0.0626   0.3468   0.0499     C
C       0.0626   0.7849    0.669     C
C       0.0648   0.9028   0.5367     C
H       0.0731   0.8842   0.5016     H
O        0.075   0.6021   0.3519     O
O       0.0765   0.5704   0.1583     O
O       0.0781   0.5209   0.6632     O
C       0.0794   0.6507   0.7701     C
H       0.0798   0.0039   0.3767     H
C       0.0807    0.215    0.362     C
Cd     0.08111  0.67049  0.44593    Cd
C       0.0913   0.4549   0.1134     C
C        0.095   0.3348   0.2269     C
H       0.0991   0.2491   0.1792     H
C       0.1061   0.5464   0.7009     C
O       0.1158   0.1706   0.3239     O
H       0.1171   0.5279   0.2638     H
C       0.1179   0.5043   0.1506     C
N       0.1184   0.9201   0.6189     N
O       0.1201   0.2361   0.3969     O
N       0.1213    0.955   0.7149     N
H       0.1219    0.107   0.6378     H
C       0.1249   0.1377   0.5585     C
H       0.1257   0.0873    0.746     H
C       0.1302   0.3325   0.0798     C
C       0.1313   0.8925   0.5694     C
O        0.135   0.7408   0.8358     O
H       0.1373   0.6445   0.7708     H
C       0.1377    0.978   0.7661     C
C       0.1403   0.0521   0.7738     C
O       0.1409   0.2012   0.7927     O
N       0.1431   0.3865   0.1105     N
C       0.1431   0.6744   0.5953     C
H       0.1468   0.7705   0.8558     H
O        0.148   0.6021   0.5167     O
C       0.1502   0.5937   0.3496     C
C       0.1502     0.76   0.6655     C
H       0.1519   0.8793    0.805     H
C       0.1526   0.0953   0.6045     C
H       0.1535   0.1489   0.4781     H
C       0.1575   0.9279   0.8084     C
C        0.164   0.0743   0.8214     C
Cd     0.16538   0.3001  0.84406    Cd
C       0.1691   0.1536    0.829     C
C       0.1707   0.1204   0.5089     C
C       0.1722   0.5327   0.2587     C
O       0.1811   0.4154   0.8783     O
O       0.1828   0.5277    0.711     O
N       0.1829   0.3341   0.2198     N
O       0.1849   0.6105   0.3881     O
C       0.1854    0.947   0.8559     C
C       0.1878   0.6172   0.5548     C
C       0.1892   0.7029   0.6296     C
C       0.1898   0.0202   0.8627     C
N       0.1906   0.4702   0.1712     N
O       0.1953   0.1714   0.8704     O
O       0.1957    0.203   0.0604     O
C       0.1975   0.2594   0.0855     C
N        0.198   0.7999   0.6914     N
O       0.2061   0.8222   0.8939     O
C       0.2067   0.5646   0.2983     C
Co     0.20927   0.8986  0.66288    Co
H       0.2094   0.4959   0.6893     H
H       0.2097   0.0335   0.8942     H
O       0.2123   0.2973   0.3086     O
C       0.2168   0.8877   0.8988     C
C       0.2189   0.3812   0.9182     C
C       0.2211   0.8515   0.5553     C
C       0.2215   0.5081   0.2115     C
C       0.2241   0.0367   0.6018     C
H       0.2249   0.5248   0.9202     H
C       0.2311   0.3178   0.2609     C
O       0.2314   0.3106   0.9243     O
Co     0.23631  0.36464  0.15232    Co
C       0.2422   0.0608   0.5053     C
O       0.2434   0.8267   0.5089     O
C       0.2443   0.4999   0.9519     C
C       0.2461   0.4245   0.9597     C
Cd     0.24619  0.17842  0.35282    Cd
H       0.2475   0.6835   0.6286     H
O       0.2478   0.6513   0.9394     O
N       0.2485   0.9888   0.6476     N
N       0.2517   0.2656   0.1209     N
O       0.2535   0.9033   0.9378     O
C       0.2573   0.7651   0.7238     C
O       0.2622   0.0717   0.4085     O
O       0.2627   0.5864    0.561     O
H       0.2646    0.181   0.2087     H
C       0.2697   0.0197   0.5512     C
N       0.2702   0.8487   0.5972     N
C       0.2711   0.5378   0.9912     C
Cd     0.27247    0.765  0.96862    Cd
O       0.2727   0.6987   0.7407     O
C       0.2757   0.6172   0.9818     C
C       0.2759    0.387   0.0068     C
H         0.28   0.3358   0.0109     H
C       0.2864   0.5726   0.2911     C
C       0.2927   0.0411   0.4519     C
N       0.2938     0.88   0.7108     N
C       0.2986   0.5007   0.0397     C
C       0.2993   0.4247   0.0472     C
C       0.3026   0.5172   0.2044     C
C       0.3031   0.0007   0.6793     C
C       0.3065   0.8181   0.7408     C
H       0.3073    0.596   0.3176     H
O       0.3087   0.6476   0.0158     O
C        0.311   0.1641   0.1841     C
O       0.3112   0.0964   0.2872     O
H        0.316   0.5263   0.0666     H
C       0.3161   0.2004   0.1339     C
H       0.3185   0.9805   0.5487     H
C       0.3206   0.3234   0.2456     C
N       0.3206   0.3897   0.0983     N
C       0.3294   0.9372   0.7189     C
N       0.3303   0.3429   0.1938     N
Cd     0.33102  0.94787  0.00105    Cd
H       0.3341   0.5035   0.1716     H
O       0.3345   0.0561   0.6792     O
C       0.3379   0.5461   0.2443     C
H       0.3387   0.7129   0.5605     H
O       0.3547   0.2048   0.3846     O
C        0.356    0.808   0.5908     C
C       0.3596   0.8085   0.7837     C
O       0.3622   0.9948   0.4506     O
Cd     0.36404  0.51416   0.5039    Cd
H       0.3685   0.7657   0.8058     H
C       0.3706   0.0684   0.2527     C
C       0.3753   0.1029   0.1972     C
H       0.3763   0.3039   0.3165     H
C         0.38   0.7349   0.5707     C
C       0.3839   0.9285   0.7592     C
C        0.384   0.3151   0.2797     C
C       0.3862   0.1756   0.0972     C
H       0.3913   0.2015   0.0646     H
Cd     0.39361  0.00351  0.35636    Cd
C       0.3975   0.8647   0.7914     C
C       0.3981   0.3768   0.1128     C
C        0.404   0.3503    0.171     C
H       0.4049    0.887   0.6185     H
H       0.4115   0.9655   0.7647     H
H       0.4183   0.3009   0.4199     H
C       0.4194   0.8382   0.6055     C
C       0.4266   0.5522   0.2365     C
O       0.4292   0.0111   0.2644     O
C       0.4305   0.1638   0.3828     C
H       0.4337   0.8597   0.8192     H
O       0.4373   0.4226   0.4513     O
O       0.4386   0.5969   0.5176     O
O       0.4421   0.9833    0.931     O
C       0.4422   0.0751   0.1595     C
C       0.4488   0.1114     0.11     C
O       0.4496   0.8696   0.9572     O
O       0.4536   0.0981   0.3682     O
O       0.4544   0.5868   0.2694     O
C        0.462   0.3244   0.2558     C
O       0.4627   0.3863   0.0855     O
C       0.4641   0.6944   0.5657     C
C       0.4711   0.3412   0.2017     C
O       0.4723   0.5161   0.1999     O
C       0.4745   0.2735   0.4178     C
C       0.4769   0.9164   0.9296     C
H       0.4772   0.6537   0.8139     H
H       0.4831   0.0316   0.1676     H
C       0.4895   0.6177   0.5406     C
H       0.4925   0.6809   0.7228     H
C       0.4958   0.2011   0.3982     C
C       0.5042   0.7989   0.6018     C
H       0.5075   0.3191   0.2772     H
C       0.5105   0.3823   0.4594     C
H       0.5169   0.9684   0.8324     H
H       0.5228   0.3463   0.1861     H
C       0.5231   0.0836   0.0704     C
C       0.5255   0.7265   0.5822     C
O       0.5277   0.4839   0.8001     O
C       0.5289   0.6588   0.7983     C
C       0.5359   0.3056   0.4343     C
O       0.5373   0.6137   0.9145     O
C        0.538   0.6756   0.7442     C
O       0.5456   0.4132   0.7306     O
O       0.5464   0.9019   0.6318     O
O       0.5504   0.1304   0.0428     O
C       0.5512   0.8886     0.89     C
C       0.5578   0.9249   0.8405     C
O       0.5579   0.0167    0.069     O
O       0.5614   0.4031   0.4824     O
O       0.5627   0.5774   0.5487     O
H       0.5663   0.1403   0.1808     H
C       0.5695   0.8362   0.6172     C
O       0.5708   0.9889   0.7356     O
C       0.5734   0.4478   0.7635     C
C       0.5806   0.1618   0.3945     C
H       0.5817   0.6991   0.5801     H
H       0.5885   0.0345   0.2353     H
H       0.5951    0.113   0.3815     H
C        0.596   0.6497    0.829     C
C       0.6019   0.6232   0.8872     C
C       0.6025   0.1353   0.2086     C
Cd     0.60639  0.99649  0.64364    Cd
H       0.6087   0.7985   0.9354     H
C       0.6138   0.8244   0.9028     C
C        0.616   0.6849   0.7203     C
C       0.6161   0.0715   0.2408     C
C         0.62   0.2651   0.4293     C
H       0.6237   0.6961   0.6835     H
C       0.6247   0.8971   0.8028     C
C       0.6294   0.9316   0.7473     C
H       0.6315   0.2343   0.1942     H
Cd     0.63596  0.48584   0.4961    Cd
O       0.6378   0.0052   0.5494     O
C       0.6404   0.1915   0.2163     C
C        0.644    0.192   0.4092     C
O       0.6453   0.7952   0.6154     O
H       0.6613   0.2871   0.4395     H
C       0.6621   0.4539   0.7557     C
O       0.6655   0.9439   0.3208     O
H       0.6659   0.4965   0.8284     H
Cd     0.66898  0.05213  0.99895    Cd
N       0.6697   0.6571   0.8062     N
C       0.6706   0.0628   0.2811     C
N       0.6794   0.6103   0.9017     N
C       0.6794   0.6766   0.7544     C
H       0.6815   0.0195   0.4513     H
C       0.6839   0.7996   0.8661     C
H        0.684   0.4737   0.9334     H
O       0.6888   0.9036   0.7128     O
C        0.689   0.8359   0.8159     C
O       0.6913   0.3524   0.9842     O
H       0.6927    0.404   0.6824     H
C       0.6935   0.1819   0.2592     C
C       0.6969   0.9993   0.3207     C
C       0.6974   0.4828   0.7956     C
C       0.7007   0.5753   0.9528     C
C       0.7014   0.4993   0.9603     C
N       0.7062     0.12   0.2892     N
C       0.7073   0.9589   0.5481     C
C       0.7136   0.4274   0.7089     C
H         0.72   0.6642   0.9891     H
C       0.7241    0.613   0.9932     C
C       0.7243   0.3828   0.0182     C
O       0.7273   0.3013   0.2593     O
Cd     0.72753    0.235  0.03138    Cd
C       0.7289   0.4622   0.0088     C
N       0.7298   0.1513   0.4028     N
C       0.7303   0.9803   0.4488     C
H       0.7354    0.819   0.7913     H
O       0.7373   0.4136    0.439     O
O       0.7378   0.9283   0.5915     O
C       0.7427   0.2349   0.2762     C
O       0.7465   0.0967   0.0622     O
N       0.7483   0.7344   0.8791     N
N       0.7515   0.0112   0.3524     N
O       0.7522   0.3487   0.0606     O
H       0.7525   0.3165   0.3714     H
Cd     0.75381  0.82158  0.64718    Cd
C       0.7539   0.5755   0.0403     C
C       0.7557   0.5001   0.0481     C
O       0.7566   0.1733   0.4911     O
C       0.7578   0.9392   0.4947     C
Co     0.76369  0.63536  0.84768    Co
O       0.7686   0.6894   0.0757     O
C       0.7689   0.6822   0.7391     C
H       0.7751   0.4752   0.0798     H
C       0.7759   0.9633   0.3982     C
C       0.7785   0.4919   0.7885     C
C       0.7789   0.1485   0.4447     C
C       0.7811   0.6188   0.0818     C
C       0.7832   0.1123   0.1012     C
O       0.7877   0.7027   0.6914     O
H       0.7903   0.9665   0.1058     H
H       0.7906   0.5041   0.3107     H
Co     0.79073   0.1014  0.33712    Co
C       0.7933   0.4354   0.7017     C
O       0.7939   0.1778   0.1061     O
N        0.802   0.2001   0.3086     N
C       0.8025   0.7406   0.9145     C
O       0.8043    0.797   0.9396     O
O       0.8047   0.8286   0.1296     O
N       0.8094   0.5298   0.8288     N
C       0.8102   0.9798   0.1373     C
C       0.8108   0.2971   0.3704     C
C       0.8122   0.3828   0.4452     C
C       0.8146    0.053   0.1441     C
O       0.8151   0.3895   0.6119     O
N       0.8171   0.6659   0.7802     N
O       0.8172   0.4723    0.289     O
O       0.8189   0.5846   0.1217     O
C       0.8278   0.4673   0.7413     C
C       0.8293   0.8796   0.4911     C
C       0.8309   0.8464    0.171     C
Cd     0.83462   0.6999  0.15594    Cd
C        0.836   0.9257   0.1786     C
C       0.8425   0.0721   0.1916     C
H       0.8465   0.8511   0.5219     H
C       0.8474   0.9047   0.3955     C
H       0.8481   0.1207    0.195     H
C       0.8498     0.24   0.3345     C
C       0.8498   0.4063   0.6504     C
O        0.852   0.3979   0.4833     O
H       0.8532   0.2295   0.1442     H
C       0.8569   0.3256   0.4047     C
N       0.8569   0.6135   0.8895     N
O       0.8591   0.7988   0.2073     O
C       0.8597   0.9479   0.2262     C
C       0.8623    0.022   0.2339     C
H       0.8627   0.3555   0.2292     H
O        0.865   0.2592   0.1642     O
C       0.8687   0.1075   0.4306     C
C       0.8698   0.6675   0.9202     C
H       0.8743   0.9127    0.254     H
C       0.8751   0.8623   0.4415     C
H       0.8781    0.893   0.3622     H
N       0.8787    0.045   0.2851     N
O       0.8799   0.7639   0.6031     O
N       0.8816   0.0799   0.3811     N
C       0.8821   0.4957   0.8494     C
H       0.8829   0.4721   0.7362     H
O       0.8842   0.8294   0.6761     O
C       0.8939   0.4536   0.2991     C
H       0.9009   0.7509   0.8208     H
C        0.905   0.6652   0.7731     C
C       0.9087   0.5451   0.8866     C
Cd     0.91889  0.32951  0.55407    Cd
C       0.9193    0.785    0.638     C
H       0.9202   0.9961   0.6233     H
C       0.9206   0.3493   0.2299     C
O       0.9219   0.4791   0.3368     O
O       0.9235   0.4296   0.8417     O
O        0.925   0.3979   0.6481     O
H       0.9269   0.1158   0.4984     H
C       0.9352   0.0972   0.4633     C
C       0.9374   0.2151    0.331     C
C       0.9374   0.6532   0.9501     C
C       0.9375   0.7122    0.801     C
H       0.9389    0.949   0.5364     H
H       0.9408   0.5819   0.7169     H
C       0.9454   0.2979   0.4015     C
H       0.9458   0.6899   0.9723     H
C        0.946   0.2461   0.1644     C
C       0.9515   0.7967   0.4389     C
C       0.9523   0.3953   0.2631     C
C       0.9546   0.0189   0.3029     C
C       0.9572   0.0421   0.3601     C
H       0.9578   0.4269   0.0328     H
C       0.9618    0.612   0.7386     C
H       0.9645   0.1789   0.3057     H
C       0.9734   0.9698   0.6092     C
C       0.9756   0.2964   0.1993     C
O       0.9768   0.7659   0.4807     O
H       0.9774   0.3164   0.4244     H
O       0.9808   0.0224   0.7216     O
H       0.9808   0.5191   0.0858     H
C       0.9813   0.5281   0.9161     C
C       0.9847   0.2436   0.3645     C
C       0.9848   0.9418   0.5576     C
O        0.987   0.7742   0.3928     O
O       0.9926   0.1963   0.1379     O
C       0.9945   0.5829   0.9474     C
