data_I
_chemical_name_common  '/home/zhangsd/repos/MofS-CGCNN/ML/data/TSD/clean_cifs/ONUKAL_clean'
_cell_length_a 11.09100
_cell_length_b 11.09100
_cell_length_c 19.36400
_cell_angle_alpha 90.00000
_cell_angle_beta  90.00000
_cell_angle_gamma 120.00000
_space_group_name_H-M_alt      'P 1'


loop_
_space_group_symop_operation_xyz
  'x, y, z' 

loop_
_atom_site_label
_atom_site_fract_x
_atom_site_fract_y
_atom_site_fract_z
_atom_site_type_symbol
O        0.007    0.284   0.5692     O
O        0.007    0.284   0.9308     O
O        0.007    0.723   0.5692     O
O        0.007    0.723   0.9308     O
H       0.0141   0.2971   0.6111     H
H       0.0141   0.2971   0.8889     H
H       0.0141    0.717   0.6111     H
H       0.0141    0.717   0.8889     H
C        0.017    0.403   0.5355     C
C        0.017    0.403   0.9645     C
C        0.017    0.614   0.5355     C
C        0.017    0.614   0.9645     C
C       0.0432   0.5216   0.5697     C
C       0.0432   0.5216   0.9303     C
C       0.0856   0.5428   0.6437     C
C       0.0856   0.5428   0.8563     C
O       0.1014   0.4496   0.6728     O
O       0.1014   0.4496   0.8272     O
O       0.1014   0.6518   0.6728     O
O       0.1014   0.6518   0.8272     O
Fe     0.23345   0.4669     0.75    Fe
Fe     0.23345  0.76655     0.75    Fe
O        0.277    0.284   0.5692     O
O        0.277    0.284   0.9308     O
O        0.277    0.993   0.5692     O
O        0.277    0.993   0.9308     O
H        0.283   0.2971   0.6111     H
H        0.283   0.2971   0.8889     H
H        0.283   0.9859   0.6111     H
H        0.283   0.9859   0.8889     H
O        0.284    0.007   0.0692     O
O        0.284    0.007   0.4308     O
O        0.284    0.277   0.0692     O
O        0.284    0.277   0.4308     O
H       0.2971   0.0141   0.1111     H
H       0.2971   0.0141   0.3889     H
H       0.2971    0.283   0.1111     H
H       0.2971    0.283   0.3889     H
O      0.33333  0.66667     0.75     O
O       0.3482   0.4496   0.6728     O
O       0.3482   0.4496   0.8272     O
O       0.3482   0.8986   0.6728     O
O       0.3482   0.8986   0.8272     O
C        0.386    0.403   0.5355     C
C        0.386    0.403   0.9645     C
C        0.386    0.983   0.5355     C
C        0.386    0.983   0.9645     C
C        0.403    0.017   0.0355     C
C        0.403    0.017   0.4645     C
C        0.403    0.386   0.0355     C
C        0.403    0.386   0.4645     C
O       0.4496   0.1014   0.1728     O
O       0.4496   0.1014   0.3272     O
O       0.4496   0.3482   0.1728     O
O       0.4496   0.3482   0.3272     O
C       0.4572   0.5428   0.6437     C
C       0.4572   0.5428   0.8563     C
C       0.4572   0.9144   0.6437     C
C       0.4572   0.9144   0.8563     C
Fe      0.4669  0.23345     0.25    Fe
C       0.4784   0.5216   0.5697     C
C       0.4784   0.5216   0.9303     C
C       0.4784   0.9568   0.5697     C
C       0.4784   0.9568   0.9303     C
C       0.5216   0.0432   0.0697     C
C       0.5216   0.0432   0.4303     C
C       0.5216   0.4784   0.0697     C
C       0.5216   0.4784   0.4303     C
Fe      0.5331  0.76655     0.75    Fe
C       0.5428   0.0856   0.1437     C
C       0.5428   0.0856   0.3563     C
C       0.5428   0.4572   0.1437     C
C       0.5428   0.4572   0.3563     C
O       0.5504   0.6518   0.6728     O
O       0.5504   0.6518   0.8272     O
O       0.5504   0.8986   0.6728     O
O       0.5504   0.8986   0.8272     O
C        0.597    0.614   0.5355     C
C        0.597    0.614   0.9645     C
C        0.597    0.983   0.5355     C
C        0.597    0.983   0.9645     C
C        0.614    0.017   0.0355     C
C        0.614    0.017   0.4645     C
C        0.614    0.597   0.0355     C
C        0.614    0.597   0.4645     C
O       0.6518   0.1014   0.1728     O
O       0.6518   0.1014   0.3272     O
O       0.6518   0.5504   0.1728     O
O       0.6518   0.5504   0.3272     O
O      0.66667  0.33333     0.25     O
H       0.7029    0.717   0.6111     H
H       0.7029    0.717   0.8889     H
H       0.7029   0.9859   0.6111     H
H       0.7029   0.9859   0.8889     H
O        0.716    0.723   0.5692     O
O        0.716    0.723   0.9308     O
O        0.716    0.993   0.5692     O
O        0.716    0.993   0.9308     O
H        0.717   0.0141   0.1111     H
H        0.717   0.0141   0.3889     H
H        0.717   0.7029   0.1111     H
H        0.717   0.7029   0.3889     H
O        0.723    0.007   0.0692     O
O        0.723    0.007   0.4308     O
O        0.723    0.716   0.0692     O
O        0.723    0.716   0.4308     O
Fe     0.76655  0.23345     0.25    Fe
Fe     0.76655   0.5331     0.25    Fe
O       0.8986   0.3482   0.1728     O
O       0.8986   0.3482   0.3272     O
O       0.8986   0.5504   0.1728     O
O       0.8986   0.5504   0.3272     O
C       0.9144   0.4572   0.1437     C
C       0.9144   0.4572   0.3563     C
C       0.9568   0.4784   0.0697     C
C       0.9568   0.4784   0.4303     C
C        0.983    0.386   0.0355     C
C        0.983    0.386   0.4645     C
C        0.983    0.597   0.0355     C
C        0.983    0.597   0.4645     C
H       0.9859    0.283   0.1111     H
H       0.9859    0.283   0.3889     H
H       0.9859   0.7029   0.1111     H
H       0.9859   0.7029   0.3889     H
O        0.993    0.277   0.0692     O
O        0.993    0.277   0.4308     O
O        0.993    0.716   0.0692     O
O        0.993    0.716   0.4308     O
