data_I
_chemical_name_common  '/home/zhangsd/repos/MofS-CGCNN/ML/data/TSD/clean_cifs/ORANAY_clean'
_cell_length_a 15.61150
_cell_length_b 15.61150
_cell_length_c 15.18420
_cell_angle_alpha 90.00000
_cell_angle_beta  90.00000
_cell_angle_gamma 120.00000
_space_group_name_H-M_alt      'P 1'


loop_
_space_group_symop_operation_xyz
  'x, y, z' 

loop_
_atom_site_label
_atom_site_fract_x
_atom_site_fract_y
_atom_site_fract_z
_atom_site_type_symbol
Mg         0.0      0.5      0.0    Mg
Mg         0.0      0.5      0.5    Mg
H       0.0539   0.2891   0.3441     H
H       0.0539   0.2891   0.6559     H
H       0.0539   0.7648   0.1559     H
H       0.0539   0.7648   0.8441     H
O      0.05831   0.4467  0.40578     O
O      0.05831   0.4467  0.59422     O
O      0.05831  0.61161  0.09422     O
O      0.05831  0.61161  0.90578     O
H       0.1007   0.2014     0.25     H
H       0.1007   0.2014     0.75     H
H       0.1007   0.8993     0.25     H
H       0.1007   0.8993     0.75     H
C        0.107   0.3223   0.3057     C
C        0.107   0.3223   0.6943     C
C        0.107   0.7847   0.1943     C
C        0.107   0.7847   0.8057     C
C      0.13465  0.48768  0.36078     C
C      0.13465  0.48768  0.63922     C
C      0.13465  0.64697  0.13922     C
C      0.13465  0.64697  0.86078     C
C      0.13507  0.27014     0.25     C
C      0.13507  0.27014     0.75     C
C      0.13507  0.86493     0.25     C
C      0.13507  0.86493     0.75     C
C      0.15932  0.42422   0.3031     C
C      0.15932  0.42422   0.6969     C
C      0.15932   0.7351   0.1969     C
C      0.15932   0.7351   0.8031     C
O      0.19558  0.58007  0.35858     O
O      0.19558  0.58007  0.64142     O
O      0.19558  0.61551  0.14142     O
O      0.19558  0.61551  0.85858     O
H       0.2014   0.1007     0.25     H
H       0.2014   0.1007     0.75     H
C       0.2153   0.3223   0.1943     C
C       0.2153   0.3223   0.8057     C
C       0.2153    0.893   0.3057     C
C       0.2153    0.893   0.6943     C
H       0.2352   0.2891   0.1559     H
H       0.2352   0.2891   0.8441     H
H       0.2352   0.9461   0.3441     H
H       0.2352   0.9461   0.6559     H
N      0.23701  0.47402     0.25     N
N      0.23701  0.47402     0.75     N
N      0.23701  0.76299     0.25     N
N      0.23701  0.76299     0.75     N
C       0.2649  0.42422   0.1969     C
C       0.2649  0.42422   0.8031     C
C       0.2649  0.84068   0.3031     C
C       0.2649  0.84068   0.6969     C
C      0.27014  0.13507     0.25     C
C      0.27014  0.13507     0.75     C
H       0.2891   0.0539   0.1559     H
H       0.2891   0.0539   0.8441     H
H       0.2891   0.2352   0.3441     H
H       0.2891   0.2352   0.6559     H
C       0.3223    0.107   0.1943     C
C       0.3223    0.107   0.8057     C
C       0.3223   0.2153   0.3057     C
C       0.3223   0.2153   0.6943     C
Ce     0.33333  0.66667     0.25    Ce
Ce     0.33333  0.66667     0.75    Ce
C      0.35303  0.48768  0.13922     C
C      0.35303  0.48768  0.86078     C
C      0.35303  0.86535  0.36078     C
C      0.35303  0.86535  0.63922     C
O      0.38449  0.58007  0.14142     O
O      0.38449  0.58007  0.85858     O
O      0.38449  0.80442  0.35858     O
O      0.38449  0.80442  0.64142     O
O      0.38839   0.4467  0.09422     O
O      0.38839   0.4467  0.90578     O
O      0.38839  0.94169  0.40578     O
O      0.38839  0.94169  0.59422     O
O      0.41993  0.61551  0.35858     O
O      0.41993  0.61551  0.64142     O
O      0.41993  0.80442  0.14142     O
O      0.41993  0.80442  0.85858     O
C      0.42422  0.15932   0.1969     C
C      0.42422  0.15932   0.8031     C
C      0.42422   0.2649   0.3031     C
C      0.42422   0.2649   0.6969     C
O       0.4467  0.05831  0.09422     O
O       0.4467  0.05831  0.90578     O
O       0.4467  0.38839  0.40578     O
O       0.4467  0.38839  0.59422     O
N      0.47402  0.23701     0.25     N
N      0.47402  0.23701     0.75     N
C      0.48768  0.13465  0.13922     C
C      0.48768  0.13465  0.86078     C
C      0.48768  0.35303  0.36078     C
C      0.48768  0.35303  0.63922     C
Mg         0.5      0.0      0.0    Mg
Mg         0.5      0.0      0.5    Mg
Mg         0.5      0.5      0.0    Mg
Mg         0.5      0.5      0.5    Mg
C      0.51232  0.64697  0.36078     C
C      0.51232  0.64697  0.63922     C
C      0.51232  0.86535  0.13922     C
C      0.51232  0.86535  0.86078     C
N      0.52598  0.76299     0.25     N
N      0.52598  0.76299     0.75     N
O       0.5533  0.61161  0.40578     O
O       0.5533  0.61161  0.59422     O
O       0.5533  0.94169  0.09422     O
O       0.5533  0.94169  0.90578     O
C      0.57578   0.7351   0.3031     C
C      0.57578   0.7351   0.6969     C
C      0.57578  0.84068   0.1969     C
C      0.57578  0.84068   0.8031     C
O      0.58007  0.19558  0.14142     O
O      0.58007  0.19558  0.85858     O
O      0.58007  0.38449  0.35858     O
O      0.58007  0.38449  0.64142     O
O      0.61161  0.05831  0.40578     O
O      0.61161  0.05831  0.59422     O
O      0.61161   0.5533  0.09422     O
O      0.61161   0.5533  0.90578     O
O      0.61551  0.19558  0.35858     O
O      0.61551  0.19558  0.64142     O
O      0.61551  0.41993  0.14142     O
O      0.61551  0.41993  0.85858     O
C      0.64697  0.13465  0.36078     C
C      0.64697  0.13465  0.63922     C
C      0.64697  0.51232  0.13922     C
C      0.64697  0.51232  0.86078     C
Ce     0.66667  0.33333     0.25    Ce
Ce     0.66667  0.33333     0.75    Ce
C       0.6777   0.7847   0.3057     C
C       0.6777   0.7847   0.6943     C
C       0.6777    0.893   0.1943     C
C       0.6777    0.893   0.8057     C
H       0.7109   0.7648   0.3441     H
H       0.7109   0.7648   0.6559     H
H       0.7109   0.9461   0.1559     H
H       0.7109   0.9461   0.8441     H
C      0.72986  0.86493     0.25     C
C      0.72986  0.86493     0.75     C
C       0.7351  0.15932   0.3031     C
C       0.7351  0.15932   0.6969     C
C       0.7351  0.57578   0.1969     C
C       0.7351  0.57578   0.8031     C
N      0.76299  0.23701     0.25     N
N      0.76299  0.23701     0.75     N
N      0.76299  0.52598     0.25     N
N      0.76299  0.52598     0.75     N
H       0.7648   0.0539   0.3441     H
H       0.7648   0.0539   0.6559     H
H       0.7648   0.7109   0.1559     H
H       0.7648   0.7109   0.8441     H
C       0.7847    0.107   0.3057     C
C       0.7847    0.107   0.6943     C
C       0.7847   0.6777   0.1943     C
C       0.7847   0.6777   0.8057     C
H       0.7986   0.8993     0.25     H
H       0.7986   0.8993     0.75     H
O      0.80442  0.38449  0.14142     O
O      0.80442  0.38449  0.85858     O
O      0.80442  0.41993  0.35858     O
O      0.80442  0.41993  0.64142     O
C      0.84068   0.2649   0.1969     C
C      0.84068   0.2649   0.8031     C
C      0.84068  0.57578   0.3031     C
C      0.84068  0.57578   0.6969     C
C      0.86493  0.13507     0.25     C
C      0.86493  0.13507     0.75     C
C      0.86493  0.72986     0.25     C
C      0.86493  0.72986     0.75     C
C      0.86535  0.35303  0.13922     C
C      0.86535  0.35303  0.86078     C
C      0.86535  0.51232  0.36078     C
C      0.86535  0.51232  0.63922     C
C        0.893   0.2153   0.1943     C
C        0.893   0.2153   0.8057     C
C        0.893   0.6777   0.3057     C
C        0.893   0.6777   0.6943     C
H       0.8993   0.1007     0.25     H
H       0.8993   0.1007     0.75     H
H       0.8993   0.7986     0.25     H
H       0.8993   0.7986     0.75     H
O      0.94169  0.38839  0.09422     O
O      0.94169  0.38839  0.90578     O
O      0.94169   0.5533  0.40578     O
O      0.94169   0.5533  0.59422     O
H       0.9461   0.2352   0.1559     H
H       0.9461   0.2352   0.8441     H
H       0.9461   0.7109   0.3441     H
H       0.9461   0.7109   0.6559     H
