data_I
_chemical_name_common  '/home/zhangsd/repos/MofS-CGCNN/ML/data/TSD/clean_cifs/OSIWUJ_clean'
_cell_length_a 11.70340
_cell_length_b 11.98090
_cell_length_c 12.53160
_cell_angle_alpha 107.48900
_cell_angle_beta  106.57400
_cell_angle_gamma 112.34100
_space_group_name_H-M_alt      'P 1'


loop_
_space_group_symop_operation_xyz
  'x, y, z' 

loop_
_atom_site_label
_atom_site_fract_x
_atom_site_fract_y
_atom_site_fract_z
_atom_site_type_symbol
H       0.0071   0.5323   0.6474     H
C      0.01223  0.44873  0.13986     C
H       0.0171   0.2671   0.9206     H
H       0.0204   0.6108   0.2624     H
H       0.0339   0.1415   0.2692     H
C       0.0354   0.3289    0.998     C
H       0.0421   0.1705   0.6664     H
C       0.0473   0.4855   0.7892     C
H       0.0566   0.2786   0.3614     H
N      0.06011  0.64631  0.98062     N
C       0.0872   0.5429   0.7086     C
C       0.0928   0.2186    0.351     C
H       0.0963   0.1882   0.4138     H
H        0.103   0.1212   0.7588     H
C       0.1214   0.1657   0.7086     C
H       0.1243   0.4959   0.6664     H
H       0.1283   0.4943    0.849     H
H       0.1403   0.1151   0.6474     H
N      0.14276  0.47956  0.19032     N
H       0.1558   0.6376   0.7588     H
N      0.15766  0.39976  0.09632     N
H       0.1825   0.7744   0.5862     H
H       0.1952   0.9172   0.6386     H
H       0.2207   0.3547    0.849     H
H       0.2295   0.3227   0.3004     H
C       0.2336   0.2914   0.3636     C
C       0.2418   0.8676    0.649     C
C       0.2419   0.3037   0.7892     C
H        0.258   0.3484   0.7376     H
H       0.2647   0.8723   0.7308     H
H       0.2677   0.2289   0.3484     H
Ag     0.26869  0.71138  0.12556    Ag
H       0.2895   0.0041   0.3058     H
N      0.29043  0.84173  0.31186     N
C        0.302    0.961    0.355     C
Ag     0.30407  0.62171   0.3971    Ag
N       0.3161   0.8142   0.4116     N
C       0.3326   0.4108    0.491     C
N      0.33415  0.01605   0.4783     N
C       0.3416   0.9198    0.509     C
N      0.35585  0.53775   0.5217     N
Ag     0.35687  0.41418  0.12556    Ag
C         0.37   0.9278   0.6364     C
C      0.37237  0.30887  0.86014     C
H       0.4035   0.6535   0.9206     H
N       0.4045   0.4026   0.5884     N
Ag     0.40697  0.22461   0.6029    Ag
H       0.4193   0.8805   0.6516     H
N      0.42051  0.33431  0.98062     N
H       0.4291   0.0223   0.6996     H
N      0.43866  0.69656  0.09632     N
C        0.447    0.606    0.645     C
N      0.45244  0.28924  0.80968     N
C       0.4626   0.6691    0.998     C
N      0.47857  0.52987  0.68814     N
H       0.4837   0.6983   0.6942     H
H       0.5163   0.3017   0.3058     H
N      0.52143  0.47013  0.31186     N
C       0.5374   0.3309    0.002     C
N      0.54756  0.71076  0.19032     N
C        0.553    0.394    0.355     C
N      0.56134  0.30344  0.90368     N
H       0.5709   0.9777   0.3004     H
N      0.57949  0.66569  0.01938     N
H       0.5807   0.1195   0.3484     H
Ag     0.59303  0.77539   0.3971    Ag
N       0.5955   0.5974   0.4116     N
H       0.5965   0.3465   0.0794     H
C      0.62763  0.69113  0.13986     C
C         0.63   0.0722   0.3636     C
Ag     0.64313  0.58582  0.87444    Ag
N      0.64415  0.46225   0.4783     N
C       0.6584   0.0802    0.491     C
N      0.66585  0.98395   0.5217     N
C       0.6674   0.5892    0.509     C
N       0.6839   0.1858   0.5884     N
Ag     0.69593  0.37829   0.6029    Ag
C        0.698    0.039    0.645     C
N      0.70957  0.15827  0.68814     N
H       0.7105   0.9959   0.6942     H
Ag     0.73131  0.28862  0.87444    Ag
H       0.7323   0.7711   0.6516     H
H       0.7353   0.1277   0.2692     H
H        0.742   0.6516   0.2624     H
C       0.7581   0.6963   0.2108     C
C       0.7582   0.1324    0.351     C
C       0.7664   0.7086   0.6364     C
H       0.7705   0.6773   0.6996     H
H       0.7793   0.6453    0.151     H
H       0.8048   0.0828   0.3614     H
H       0.8175   0.2256   0.4138     H
N      0.84234  0.60024  0.90368     N
H       0.8442   0.3624   0.2412     H
N      0.85724  0.52044  0.80968     N
H       0.8597   0.8849   0.3526     H
H       0.8717   0.5057    0.151     H
H       0.8757   0.5041   0.3336     H
C       0.8786   0.8343   0.2914     C
H        0.897   0.8788   0.2412     H
H       0.9037   0.8118   0.5862     H
C       0.9072   0.7814    0.649     C
C       0.9128   0.4571   0.2914     C
N      0.93989  0.35369  0.01938     N
H       0.9434   0.7214   0.6386     H
C       0.9527   0.5145   0.2108     C
H       0.9579   0.8295   0.3336     H
C       0.9646   0.6711    0.002     C
H       0.9661   0.8585   0.7308     H
H       0.9796   0.3892   0.7376     H
H       0.9829   0.7329   0.0794     H
C      0.98777  0.55127  0.86014     C
H       0.9929   0.4677   0.3526     H
