data_I
_chemical_name_common  '/home/zhangsd/repos/MofS-CGCNN/ML/data/TSD/clean_cifs/OSUVOP_clean'
_cell_length_a  7.26300
_cell_length_b 24.54000
_cell_length_c 17.71800
_cell_angle_alpha 90.00000
_cell_angle_beta  90.72600
_cell_angle_gamma 90.00000
_space_group_name_H-M_alt      'P 1'


loop_
_space_group_symop_operation_xyz
  'x, y, z' 

loop_
_atom_site_label
_atom_site_fract_x
_atom_site_fract_y
_atom_site_fract_z
_atom_site_type_symbol
U          0.0      0.0      0.0     U
U          0.0      0.5      0.5     U
H       0.0023   0.1519   0.7192     H
H       0.0023   0.3481   0.2192     H
C       0.0134   0.1353    0.671     C
C       0.0134   0.3647    0.171     C
H       0.0259   0.2353   0.1154     H
H       0.0259   0.2647   0.6154     H
C       0.0373    0.089   0.5281     C
C       0.0373    0.411   0.0281     C
C       0.0375   0.6606   0.2356     C
C       0.0375   0.8394   0.7356     C
H       0.0438    0.074   0.4788     H
H       0.0438    0.426   0.9788     H
C       0.0479   0.2214   0.1647     C
C       0.0479   0.2786   0.6647     C
C        0.067   0.6814   0.3082     C
C        0.067   0.8186   0.8082     C
O       0.0705   0.5867   0.5635     O
O       0.0705   0.9133   0.0635     O
C       0.1075   0.5743   0.9248     C
C       0.1075   0.9257   0.4248     C
C       0.1127   0.1802   0.3072     C
C       0.1127   0.3198   0.8072     C
C       0.1171   0.5976   0.8525     C
C       0.1171   0.9024   0.3525     C
H        0.137    0.166   0.3562     H
H        0.137    0.334   0.8562     H
O       0.1393   0.6021   0.1361     O
O       0.1393   0.8979   0.6361     O
H       0.1529   0.6672   0.6528     H
H       0.1529   0.8328   0.1528     H
H       0.1586   0.7274   0.5508     H
H       0.1586   0.7726   0.0508     H
C       0.1629   0.1497   0.6246     C
C       0.1629   0.3503   0.1246     C
H       0.1657    0.668   0.3386     H
H       0.1657    0.832   0.8386     H
C       0.1663   0.6202   0.2043     C
C       0.1663   0.8798   0.7043     C
C       0.1717   0.1254   0.5526     C
C       0.1717   0.3746   0.0526     C
C       0.1961   0.2423   0.2073     C
C       0.1961   0.2577   0.7073     C
H       0.1962   0.6808   0.0276     H
H       0.1962   0.8192   0.5276     H
H       0.2135   0.5875   0.8197     H
H       0.2135   0.9125   0.3197     H
C       0.2196   0.5689   0.5939     C
C       0.2196   0.9311   0.0939     C
C       0.2256   0.2204   0.2777     C
C       0.2256   0.2796   0.7777     C
C       0.2448   0.7392   0.5144     C
C       0.2448   0.7608   0.0144     C
C       0.2574   0.5376   0.9501     C
C       0.2574   0.9624   0.4501     C
C       0.2653    0.653   0.6725     C
C       0.2653    0.847   0.1725     C
C       0.2678   0.7066   0.0009     C
C       0.2678   0.7934   0.5009     C
H       0.2712   0.1341   0.5204     H
H       0.2712   0.3659   0.0204     H
O       0.2713   0.5206   0.5776     O
O       0.2713   0.9794   0.0776     O
O       0.2774   0.5263   0.0204     O
O       0.2774   0.9737   0.5204     O
H       0.2841   0.1002   0.7552     H
H       0.2841   0.3998   0.2552     H
O       0.3057    0.603   0.2411     O
O       0.3057    0.897   0.7411     O
H       0.3173   0.7157    0.745     H
H       0.3173   0.7843    0.245     H
H       0.3266   0.2333   0.3073     H
H       0.3266   0.2667   0.8073     H
H       0.3283   0.6638    0.484     H
H       0.3283   0.8362    0.984     H
C       0.3307   0.6034   0.6473     C
C       0.3307   0.8966   0.1473     C
Si      0.3337  0.19997  0.66518    Si
Si      0.3337  0.30003  0.16518    Si
C       0.3467   0.7016   0.4752     C
C       0.3467   0.7984   0.9752     C
O       0.3647   0.5181   0.9007     O
O       0.3647   0.9819   0.4007     O
C       0.3652   0.6821    0.727     C
C       0.3652   0.8179    0.227     C
C       0.3947   0.6886   0.9484     C
C       0.3947   0.8114   0.4484     C
C       0.3994   0.1138   0.7728     C
C       0.3994   0.3862   0.2728     C
H       0.4088   0.6506   0.9404     H
H       0.4088   0.8494   0.4404     H
U      0.41315  0.54457  0.13593     U
U      0.41315  0.95543  0.63593     U
H       0.4494   0.0508   0.8449     H
H       0.4494   0.4492   0.3449     H
H       0.4497   0.1922   0.1035     H
H       0.4497   0.3078   0.6035     H
C       0.4649   0.1631   0.7439     C
C       0.4649   0.3369   0.2439     C
C       0.4782   0.7184   0.4221     C
C       0.4782   0.7816   0.9221     C
C       0.4977   0.0841   0.8262     C
C       0.4977   0.4159   0.3262     C
C       0.4978   0.2249   0.5928     C
C       0.4978   0.2751   0.0928     C
C       0.5022   0.7249   0.9072     C
C       0.5022   0.7751   0.4072     C
C       0.5023   0.5841   0.6738     C
C       0.5023   0.9159   0.1738     C
C       0.5218   0.2184   0.0779     C
C       0.5218   0.2816   0.5779     C
C       0.5351   0.6631   0.7561     C
C       0.5351   0.8369   0.2561     C
H       0.5503   0.6922   0.3965     H
H       0.5503   0.8078   0.8965     H
H       0.5506   0.5508   0.6551     H
H       0.5506   0.9492   0.1551     H
U      0.58685  0.04457  0.36407     U
U      0.58685  0.45543  0.86407     U
H       0.5912   0.1506   0.5596     H
H       0.5912   0.3494   0.0596     H
C       0.6006   0.6138   0.7272     C
C       0.6006   0.8862   0.2272     C
C       0.6053   0.1886   0.5516     C
C       0.6053   0.3114   0.0516     C
C       0.6348   0.1821    0.773     C
C       0.6348   0.3179    0.273     C
O       0.6353   0.0181   0.5993     O
O       0.6353   0.4819   0.0993     O
C       0.6533   0.2016   0.0248     C
C       0.6533   0.2984   0.5248     C
Si      0.6663  0.69997  0.83482    Si
Si      0.6663  0.80003  0.33482    Si
C       0.6693   0.1034   0.8527     C
C       0.6693   0.3966   0.3527     C
H       0.6717   0.1638    0.016     H
H       0.6717   0.3362    0.516     H
H       0.6734   0.7333   0.1927     H
H       0.6734   0.7667   0.6927     H
H       0.6827   0.2157    0.755     H
H       0.6827   0.2843    0.255     H
O       0.6943    0.103   0.2589     O
O       0.6943    0.397   0.7589     O
H       0.7159   0.6002   0.7448     H
H       0.7159   0.8998   0.2448     H
O       0.7226   0.0263   0.4796     O
O       0.7226   0.4737   0.9796     O
O       0.7287   0.0206   0.9224     O
O       0.7287   0.4794   0.4224     O
H       0.7288   0.6341   0.9796     H
H       0.7288   0.8659   0.4796     H
C       0.7322   0.2066   0.4991     C
C       0.7322   0.2934   0.9991     C
C       0.7347    0.153   0.8275     C
C       0.7347    0.347   0.3275     C
C       0.7426   0.0376   0.5499     C
C       0.7426   0.4624   0.0499     C
C       0.7552   0.2392   0.9856     C
C       0.7552   0.2608   0.4856     C
C       0.7744   0.7204   0.2223     C
C       0.7744   0.7796   0.7223     C
C       0.7804   0.0689   0.9061     C
C       0.7804   0.4311   0.4061     C
H       0.7865   0.0875   0.6803     H
H       0.7865   0.4125   0.1803     H
H       0.8038   0.1808   0.4724     H
H       0.8038   0.3192   0.9724     H
C       0.8039   0.7423   0.2927     C
C       0.8039   0.7577   0.7927     C
C       0.8283   0.6254   0.9474     C
C       0.8283   0.8746   0.4474     C
C       0.8337   0.1202   0.2957     C
C       0.8337   0.3798   0.7957     C
H       0.8343    0.168   0.1614     H
H       0.8343    0.332   0.6614     H
C       0.8371   0.6497   0.8754     C
C       0.8371   0.8503   0.3754     C
H       0.8414   0.2274   0.9492     H
H       0.8414   0.2726   0.4492     H
H       0.8471   0.1672   0.8472     H
H       0.8471   0.3328   0.3472     H
O       0.8607   0.1021   0.3639     O
O       0.8607   0.3979   0.8639     O
H        0.863    0.666   0.1438     H
H        0.863    0.834   0.6438     H
C       0.8829   0.0976   0.6475     C
C       0.8829   0.4024   0.1475     C
C       0.8873   0.6802   0.1928     C
C       0.8873   0.8198   0.6928     C
C       0.8925   0.0743   0.5752     C
C       0.8925   0.4257   0.0752     C
O       0.9295   0.0867   0.9365     O
O       0.9295   0.4133   0.4365     O
C        0.933   0.1814   0.1918     C
C        0.933   0.3186   0.6918     C
C       0.9521   0.7214   0.3353     C
C       0.9521   0.7786   0.8353     C
H       0.9562    0.574   0.0212     H
H       0.9562    0.926   0.5212     H
C       0.9625   0.1606   0.2644     C
C       0.9625   0.3394   0.7644     C
C       0.9627    0.589   0.9719     C
C       0.9627    0.911   0.4719     C
H       0.9741   0.7353   0.3846     H
H       0.9741   0.7647   0.8846     H
C       0.9866   0.6353    0.829     C
C       0.9866   0.8647    0.329     C
H       0.9977   0.6519   0.7808     H
H       0.9977   0.8481   0.2808     H
