data_I
_chemical_name_common  '/home/zhangsd/repos/MofS-CGCNN/ML/data/TSD/clean_cifs/OTAQAD_clean'
_cell_length_a 32.95090
_cell_length_b  6.69900
_cell_length_c 16.55550
_cell_angle_alpha 90.00000
_cell_angle_beta  90.00000
_cell_angle_gamma 90.00000
_space_group_name_H-M_alt      'P 1'


loop_
_space_group_symop_operation_xyz
  'x, y, z' 

loop_
_atom_site_label
_atom_site_fract_x
_atom_site_fract_y
_atom_site_fract_z
_atom_site_type_symbol
N          0.0      0.0   0.3828     N
N          0.0      0.0   0.6172     N
C      0.02046      0.0   0.2467     C
C      0.02046      0.0   0.7533     C
C      0.03153      0.0   0.3302     C
C      0.03153      0.0   0.6698     C
N       0.0615      0.0      0.5     N
C      0.07053      0.0   0.3553     C
C      0.07053      0.0   0.6447     C
C      0.08525      0.0    0.433     C
C      0.08525      0.0    0.567     C
C       0.0996      0.0   0.2845     C
C       0.0996      0.0   0.7155     C
C      0.11692   0.1753    0.249     C
C      0.11692   0.1753    0.751     C
C      0.11692   0.8247    0.249     C
C      0.11692   0.8247    0.751     C
C       0.1232      0.0   0.4602     C
C       0.1232      0.0   0.5398     C
C      0.14868   0.1707   0.1923     C
C      0.14868   0.1707   0.8077     C
C      0.14868   0.8293   0.1923     C
C      0.14868   0.8293   0.8077     C
C      0.16651      0.0   0.1589     C
C      0.16651      0.0   0.8411     C
C       0.2009      0.0   0.0931     C
C       0.2009      0.0   0.9069     C
O      0.20936   0.1881   0.0865     O
O      0.20936   0.1881   0.9135     O
O      0.20936   0.8119   0.0865     O
O      0.20936   0.8119   0.9135     O
O       0.2265      0.5      0.0     O
Ga        0.25     0.25      0.0    Ga
Ga        0.25     0.75      0.0    Ga
O       0.2735      0.0      0.0     O
O      0.29064   0.3119   0.0865     O
O      0.29064   0.3119   0.9135     O
O      0.29064   0.6881   0.0865     O
O      0.29064   0.6881   0.9135     O
C       0.2991      0.5   0.0931     C
C       0.2991      0.5   0.9069     C
C      0.33349      0.5   0.1589     C
C      0.33349      0.5   0.8411     C
C      0.35132   0.3293   0.1923     C
C      0.35132   0.3293   0.8077     C
C      0.35132   0.6707   0.1923     C
C      0.35132   0.6707   0.8077     C
C       0.3768      0.5   0.4602     C
C       0.3768      0.5   0.5398     C
C      0.38308   0.3247    0.249     C
C      0.38308   0.3247    0.751     C
C      0.38308   0.6753    0.249     C
C      0.38308   0.6753    0.751     C
C       0.4004      0.5   0.2845     C
C       0.4004      0.5   0.7155     C
C      0.41475      0.5    0.433     C
C      0.41475      0.5    0.567     C
C      0.42947      0.5   0.3553     C
C      0.42947      0.5   0.6447     C
N       0.4385      0.5      0.5     N
C      0.46847      0.5   0.3302     C
C      0.46847      0.5   0.6698     C
C      0.47954      0.5   0.2467     C
C      0.47954      0.5   0.7533     C
N          0.5      0.5   0.3828     N
N          0.5      0.5   0.6172     N
C      0.52046      0.5   0.2467     C
C      0.52046      0.5   0.7533     C
C      0.53153      0.5   0.3302     C
C      0.53153      0.5   0.6698     C
N       0.5615      0.5      0.5     N
C      0.57053      0.5   0.3553     C
C      0.57053      0.5   0.6447     C
C      0.58525      0.5    0.433     C
C      0.58525      0.5    0.567     C
C       0.5996      0.5   0.2845     C
C       0.5996      0.5   0.7155     C
C      0.61692   0.3247    0.249     C
C      0.61692   0.3247    0.751     C
C      0.61692   0.6753    0.249     C
C      0.61692   0.6753    0.751     C
C       0.6232      0.5   0.4602     C
C       0.6232      0.5   0.5398     C
C      0.64868   0.3293   0.1923     C
C      0.64868   0.3293   0.8077     C
C      0.64868   0.6707   0.1923     C
C      0.64868   0.6707   0.8077     C
C      0.66651      0.5   0.1589     C
C      0.66651      0.5   0.8411     C
C       0.7009      0.5   0.0931     C
C       0.7009      0.5   0.9069     C
O      0.70936   0.3119   0.0865     O
O      0.70936   0.3119   0.9135     O
O      0.70936   0.6881   0.0865     O
O      0.70936   0.6881   0.9135     O
O       0.7265      0.0      0.0     O
Ga        0.75     0.25      0.0    Ga
Ga        0.75     0.75      0.0    Ga
O       0.7735      0.5      0.0     O
O      0.79064   0.1881   0.0865     O
O      0.79064   0.1881   0.9135     O
O      0.79064   0.8119   0.0865     O
O      0.79064   0.8119   0.9135     O
C       0.7991      0.0   0.0931     C
C       0.7991      0.0   0.9069     C
C      0.83349      0.0   0.1589     C
C      0.83349      0.0   0.8411     C
C      0.85132   0.1707   0.1923     C
C      0.85132   0.1707   0.8077     C
C      0.85132   0.8293   0.1923     C
C      0.85132   0.8293   0.8077     C
C       0.8768      0.0   0.4602     C
C       0.8768      0.0   0.5398     C
C      0.88308   0.1753    0.249     C
C      0.88308   0.1753    0.751     C
C      0.88308   0.8247    0.249     C
C      0.88308   0.8247    0.751     C
C       0.9004      0.0   0.2845     C
C       0.9004      0.0   0.7155     C
C      0.91475      0.0    0.433     C
C      0.91475      0.0    0.567     C
C      0.92947      0.0   0.3553     C
C      0.92947      0.0   0.6447     C
N       0.9385      0.0      0.5     N
C      0.96847      0.0   0.3302     C
C      0.96847      0.0   0.6698     C
C      0.97954      0.0   0.2467     C
C      0.97954      0.0   0.7533     C
