data_I
_chemical_name_common  '/home/zhangsd/repos/MofS-CGCNN/ML/data/TSD/clean_cifs/OTUDIS_clean'
_cell_length_a 20.44890
_cell_length_b 20.44890
_cell_length_c 10.39280
_cell_angle_alpha 90.00000
_cell_angle_beta  90.00000
_cell_angle_gamma 120.00000
_space_group_name_H-M_alt      'P 1'


loop_
_space_group_symop_operation_xyz
  'x, y, z' 

loop_
_atom_site_label
_atom_site_fract_x
_atom_site_fract_y
_atom_site_fract_z
_atom_site_type_symbol
H       0.0051   0.4464   0.2988     H
C      0.01291  0.44158   0.6102     C
H       0.0177   0.5793   0.1821     H
C      0.01812  0.57213   0.9881     C
C      0.02681  0.45739   0.3803     C
H       0.0594   0.7154    0.014     H
O      0.08228  0.47192  0.85168     O
C      0.09113  0.48742   0.6238     C
O      0.09578  0.61155  0.96983     O
C      0.10543  0.50413   0.3939     C
C        0.113    0.739   0.0026     C
O      0.11666  0.51803  0.17057     O
C      0.12377  0.50611   0.7565     C
H       0.1261   0.7587   0.9168     H
H       0.1271   0.6759   0.1152     H
C      0.13601  0.68586   0.0227     C
C       0.1362  0.51806   0.5157     C
H       0.1379   0.7795   0.0633     H
C      0.15359  0.53789   0.2757     C
Mn     0.16515  0.54565    0.991    Mn
H       0.1881   0.5485   0.5256     H
O      0.19155  0.55745  0.77162     O
O      0.21776  0.48034   0.0176     O
C      0.21958  0.71239   0.0116     C
H       0.2205   0.3584   0.0633     H
O      0.22165  0.58042   0.2875     O
O      0.24126   0.6654  0.00266     O
H       0.2413   0.3674   0.9168     H
C        0.261    0.374   0.0026     C
O      0.26258  0.78224   0.0176     O
H       0.2846    0.344    0.014     H
C      0.28761  0.50719   0.0116     C
C      0.31414  0.45015   0.0227     C
H       0.3241   0.4512   0.1152     H
Na     0.33333  0.66667  0.17752    Na
K      0.33333  0.66667  0.76643     K
O       0.3346  0.57586  0.00266     O
H        0.344   0.0594    0.514     H
H       0.3584   0.1379   0.5633     H
O      0.35877  0.77835   0.2875     O
H       0.3604   0.8119   0.5256     H
O       0.3659  0.80845  0.77162     O
H       0.3674   0.1261   0.4168     H
C        0.374    0.113   0.5026     C
Mn     0.38049  0.83485    0.991    Mn
C      0.38186   0.8638   0.5157     C
C      0.38234  0.87623   0.7565     C
C       0.3843  0.84641   0.2757     C
O      0.38845  0.48423  0.96983     O
O      0.38964  0.91772  0.85168     O
C      0.39629  0.90887   0.6238     C
C       0.3987  0.89457   0.3939     C
O      0.40137  0.88334  0.17057     O
O      0.41958  0.64123   0.2875     O
H       0.4207   0.4384   0.1821     H
O      0.42414  0.75874  0.00266     O
C      0.42787  0.44599   0.9881     C
C      0.42867  0.98709   0.6102     C
C      0.43058  0.97319   0.3803     C
H       0.4384   0.0177   0.6821     H
H       0.4413   0.9949   0.2988     H
C      0.44158  0.42867   0.1102     C
O      0.44255   0.6341  0.77162     O
C      0.44599  0.01812   0.4881     C
H       0.4464   0.4413   0.7988     H
C      0.45015  0.13601   0.5227     C
H       0.4512   0.1271   0.6152     H
H       0.4515   0.6396   0.5256     H
Mn     0.45435  0.61951    0.991    Mn
C      0.45739  0.43058   0.8803     C
C      0.46211   0.6157   0.2757     C
O      0.47192  0.38964  0.35168     O
O      0.48034  0.26258   0.5176     O
C      0.48194  0.61814   0.5157     C
O      0.48197  0.59863  0.17057     O
O      0.48423  0.09578  0.46983     O
C      0.48742  0.39629   0.1238     C
C      0.49281  0.78042   0.0116     C
C      0.49389  0.61766   0.7565     C
C      0.49587   0.6013   0.3939     C
C      0.50413   0.3987   0.8939     C
C      0.50611  0.38234   0.2565     C
C      0.50719  0.21958   0.5116     C
C      0.51258  0.60371   0.6238     C
O      0.51577  0.90422  0.96983     O
O      0.51803  0.40137  0.67057     O
C      0.51806  0.38186   0.0157     C
O      0.51966  0.73742   0.0176     O
O      0.52808  0.61036  0.85168     O
C      0.53789   0.3843   0.7757     C
C      0.54261  0.56942   0.3803     C
Mn     0.54565  0.38049    0.491    Mn
H       0.5485   0.3604   0.0256     H
H       0.5488   0.8729   0.1152     H
C      0.54985  0.86399   0.0227     C
H       0.5536   0.5587   0.2988     H
C      0.55401  0.98188   0.9881     C
O      0.55745   0.3659  0.27162     O
C      0.55842  0.57133   0.6102     C
H       0.5587   0.0051   0.7988     H
H       0.5616   0.9823   0.1821     H
C      0.56942  0.02681   0.8803     C
C      0.57133  0.01291   0.1102     C
C      0.57213  0.55401   0.4881     C
O      0.57586  0.24126  0.50266     O
H       0.5793   0.5616   0.6821     H
O      0.58042  0.35877   0.7875     O
O      0.59863  0.11666  0.67057     O
C       0.6013  0.10543   0.8939     C
C      0.60371  0.09113   0.1238     C
O      0.61036  0.08228  0.35168     O
O      0.61155  0.51577  0.46983     O
C       0.6157  0.15359   0.7757     C
C      0.61766  0.12377   0.2565     C
C      0.61814   0.1362   0.0157     C
Mn     0.61951  0.16515    0.491    Mn
C        0.626    0.887   0.0026     C
H       0.6326   0.8739   0.9168     H
O       0.6341  0.19155  0.27162     O
H       0.6396   0.1881   0.0256     H
O      0.64123  0.22165   0.7875     O
H       0.6416   0.8621   0.0633     H
H        0.656   0.9406    0.014     H
O       0.6654  0.42414  0.50266     O
K      0.66667  0.33333  0.26643     K
Na     0.66667  0.33333  0.67752    Na
H       0.6759   0.5488   0.6152     H
C      0.68586  0.54985   0.5227     C
C      0.71239  0.49281   0.5116     C
H       0.7154    0.656    0.514     H
O      0.73742  0.21776   0.5176     O
C        0.739    0.626   0.5026     C
H       0.7587   0.6326   0.4168     H
O      0.75874   0.3346  0.50266     O
O      0.77835  0.41958   0.7875     O
H       0.7795   0.6416   0.5633     H
C      0.78042  0.28761   0.5116     C
O      0.78224  0.51966   0.5176     O
O      0.80845  0.44255  0.27162     O
H       0.8119   0.4515   0.0256     H
Mn     0.83485  0.45435    0.491    Mn
C      0.84641  0.46211   0.7757     C
H       0.8621   0.2205   0.5633     H
C       0.8638  0.48194   0.0157     C
C      0.86399  0.31414   0.5227     C
H       0.8729   0.3241   0.6152     H
H       0.8739   0.2413   0.4168     H
C      0.87623  0.49389   0.2565     C
O      0.88334  0.48197  0.67057     O
C        0.887    0.261   0.5026     C
C      0.89457  0.49587   0.8939     C
O      0.90422  0.38845  0.46983     O
C      0.90887  0.51258   0.1238     C
O      0.91772  0.52808  0.35168     O
H       0.9406   0.2846    0.514     H
C      0.97319  0.54261   0.8803     C
C      0.98188  0.42787   0.4881     C
H       0.9823   0.4207   0.6821     H
C      0.98709  0.55842   0.1102     C
H       0.9949   0.5536   0.7988     H
