data_I
_chemical_name_common  '/home/zhangsd/repos/MofS-CGCNN/ML/data/TSD/clean_cifs/OTUXUX_clean'
_cell_length_a 20.38560
_cell_length_b 13.82930
_cell_length_c 13.15630
_cell_angle_alpha 90.00000
_cell_angle_beta  103.63200
_cell_angle_gamma 90.00000
_space_group_name_H-M_alt      'P 1'


loop_
_space_group_symop_operation_xyz
  'x, y, z' 

loop_
_atom_site_label
_atom_site_fract_x
_atom_site_fract_y
_atom_site_fract_z
_atom_site_type_symbol
C       0.0031    0.257   0.0025     C
C       0.0031    0.743   0.5025     C
H       0.0128   0.2392   0.1579     H
H       0.0128   0.7608   0.6579     H
C       0.0186   0.2475   0.4055     C
C       0.0186   0.7525   0.9055     C
H       0.0333   0.2723   0.6532     H
H       0.0333   0.7277   0.1532     H
C       0.0454   0.2674   0.5895     C
C       0.0454   0.7326   0.0895     C
N       0.0723   0.2533   0.0096     N
N       0.0723   0.7467   0.5096     N
O        0.077   0.2683   0.8395     O
O        0.077   0.7317   0.3395     O
C       0.0857   0.2504   0.4082     C
C       0.0857   0.7496   0.9082     C
H       0.0975    0.245   0.0713     H
H       0.0975    0.755   0.5713     H
H       0.0989   0.2446   0.3454     H
H       0.0989   0.7554   0.8454     H
C       0.1051   0.2612   0.9305     C
C       0.1051   0.7388   0.4305     C
C       0.1126   0.2705   0.5849     C
C       0.1126   0.7295   0.0849     C
N        0.134   0.2613   0.4965     N
N        0.134   0.7387   0.9965     N
H        0.145   0.0804   0.0649     H
H        0.145   0.2794   0.6471     H
H        0.145   0.7206   0.1471     H
H        0.145   0.9196   0.5649     H
O       0.1489   0.1983   0.2142     O
O       0.1489   0.8017   0.7142     O
H       0.1725   0.0526   0.4797     H
H       0.1725   0.9474   0.9797     H
C         0.18   0.0403   0.0985     C
C         0.18   0.9597   0.5985     C
C       0.1803   0.2572   0.9676     C
C       0.1803   0.7428   0.4676     C
H       0.1863   0.3767   0.2792     H
H       0.1863   0.6233   0.7792     H
H       0.1911   0.3397   0.0961     H
H       0.1911   0.6603   0.5961     H
H       0.1938   0.1747   0.8477     H
H       0.1938   0.8253   0.3477     H
C       0.1967   0.0407   0.5478     C
C       0.1967   0.9593   0.0478     C
C       0.1972   0.1468   0.2585     C
C       0.1972   0.8532   0.7585     C
H       0.2072   0.4901   0.6902     H
H       0.2072   0.5099   0.1902     H
C       0.2148    0.303   0.0574     C
C       0.2148    0.697   0.5574     C
C       0.2153   0.0612   0.1986     C
C       0.2153   0.9388   0.6986     C
C       0.2163   0.2047   0.9093     C
C       0.2163   0.7953   0.4093     C
C       0.2205   0.4186   0.3115     C
C       0.2205   0.5814   0.8115     C
O       0.2328   0.1587   0.3496     O
O       0.2328   0.8413   0.8496     O
C       0.2333   0.4982   0.2572     C
C       0.2333   0.5018   0.7572     C
N       0.2448   0.1016   0.5909     N
N       0.2448   0.8984   0.0909     N
Cd        0.25     0.25      0.5    Cd
Cd        0.25     0.75      0.0    Cd
N       0.2552   0.3984   0.4091     N
N       0.2552   0.6016   0.9091     N
C       0.2667   0.0018   0.7428     C
C       0.2667   0.9982   0.2428     C
O       0.2672   0.3413   0.6504     O
O       0.2672   0.6587   0.1504     O
C       0.2795   0.0814   0.6885     C
C       0.2795   0.9186   0.1885     C
C       0.2837   0.2953   0.0907     C
C       0.2837   0.7047   0.5907     C
C       0.2847   0.4388   0.8014     C
C       0.2847   0.5612   0.3014     C
C       0.2852    0.197   0.9426     C
C       0.2852    0.803   0.4426     C
H       0.2928   0.0099   0.3098     H
H       0.2928   0.9901   0.8098     H
C       0.3028   0.3532   0.7415     C
C       0.3028   0.6468   0.2415     C
C       0.3033   0.4593   0.4522     C
C       0.3033   0.5407   0.9522     C
H       0.3062   0.3253   0.1523     H
H       0.3062   0.6747   0.6523     H
H       0.3089   0.1603   0.9039     H
H       0.3089   0.8397   0.4039     H
H       0.3137   0.1233   0.7208     H
H       0.3137   0.8767   0.2208     H
C       0.3197   0.2428   0.0324     C
C       0.3197   0.7572   0.5324     C
C         0.32   0.4597   0.9015     C
C         0.32   0.5403   0.4015     C
H       0.3275   0.4474   0.5203     H
H       0.3275   0.5526   0.0203     H
O       0.3511   0.3017   0.7858     O
O       0.3511   0.6983   0.2858     O
H        0.355   0.2206   0.3529     H
H        0.355   0.4196   0.9351     H
H        0.355   0.5804   0.4351     H
H        0.355   0.7794   0.8529     H
N        0.366   0.2387   0.5035     N
N        0.366   0.7613   0.0035     N
C       0.3874   0.2295   0.4151     C
C       0.3874   0.7705   0.9151     C
C       0.3949   0.2388   0.0695     C
C       0.3949   0.7612   0.5695     C
H       0.4011   0.2554   0.6546     H
H       0.4011   0.7446   0.1546     H
H       0.4025    0.255   0.9287     H
H       0.4025    0.745   0.4287     H
C       0.4143   0.2496   0.5918     C
C       0.4143   0.7504   0.0918     C
O        0.423   0.2317   0.1605     O
O        0.423   0.7683   0.6605     O
N       0.4277   0.2467   0.9904     N
N       0.4277   0.7533   0.4904     N
C       0.4546   0.2326   0.4105     C
C       0.4546   0.7674   0.9105     C
H       0.4667   0.2277   0.3468     H
H       0.4667   0.7723   0.8468     H
C       0.4814   0.2525   0.5945     C
C       0.4814   0.7475   0.0945     C
H       0.4872   0.2608   0.8421     H
H       0.4872   0.7392   0.3421     H
C       0.4969    0.243   0.9975     C
C       0.4969    0.757   0.4975     C
C       0.5031    0.243   0.5025     C
C       0.5031    0.757   0.0025     C
H       0.5128   0.2608   0.6579     H
H       0.5128   0.7392   0.1579     H
C       0.5186   0.2525   0.9055     C
C       0.5186   0.7475   0.4055     C
H       0.5333   0.2277   0.1532     H
H       0.5333   0.7723   0.6532     H
C       0.5454   0.2326   0.0895     C
C       0.5454   0.7674   0.5895     C
N       0.5723   0.2467   0.5096     N
N       0.5723   0.7533   0.0096     N
O        0.577   0.2317   0.3395     O
O        0.577   0.7683   0.8395     O
C       0.5857   0.2496   0.9082     C
C       0.5857   0.7504   0.4082     C
H       0.5975    0.255   0.5713     H
H       0.5975    0.745   0.0713     H
H       0.5989   0.2554   0.8454     H
H       0.5989   0.7446   0.3454     H
C       0.6051   0.2388   0.4305     C
C       0.6051   0.7612   0.9305     C
C       0.6126   0.2295   0.0849     C
C       0.6126   0.7705   0.5849     C
N        0.634   0.2387   0.9965     N
N        0.634   0.7613   0.4965     N
H        0.645   0.2206   0.1471     H
H        0.645   0.4196   0.5649     H
H        0.645   0.5804   0.0649     H
H        0.645   0.7794   0.6471     H
O       0.6489   0.3017   0.7142     O
O       0.6489   0.6983   0.2142     O
H       0.6725   0.4474   0.9797     H
H       0.6725   0.5526   0.4797     H
C         0.68   0.4597   0.5985     C
C         0.68   0.5403   0.0985     C
C       0.6803   0.2428   0.4676     C
C       0.6803   0.7572   0.9676     C
H       0.6863   0.1233   0.7792     H
H       0.6863   0.8767   0.2792     H
H       0.6911   0.1603   0.5961     H
H       0.6911   0.8397   0.0961     H
H       0.6938   0.3253   0.3477     H
H       0.6938   0.6747   0.8477     H
C       0.6967   0.4593   0.0478     C
C       0.6967   0.5407   0.5478     C
C       0.6972   0.3532   0.7585     C
C       0.6972   0.6468   0.2585     C
H       0.7072   0.0099   0.1902     H
H       0.7072   0.9901   0.6902     H
C       0.7148    0.197   0.5574     C
C       0.7148    0.803   0.0574     C
C       0.7153   0.4388   0.6986     C
C       0.7153   0.5612   0.1986     C
C       0.7163   0.2953   0.4093     C
C       0.7163   0.7047   0.9093     C
C       0.7205   0.0814   0.8115     C
C       0.7205   0.9186   0.3115     C
O       0.7328   0.3413   0.8496     O
O       0.7328   0.6587   0.3496     O
C       0.7333   0.0018   0.7572     C
C       0.7333   0.9982   0.2572     C
N       0.7448   0.3984   0.0909     N
N       0.7448   0.6016   0.5909     N
Cd        0.75     0.25      0.0    Cd
Cd        0.75     0.75      0.5    Cd
N       0.7552   0.1016   0.9091     N
N       0.7552   0.8984   0.4091     N
C       0.7667   0.4982   0.2428     C
C       0.7667   0.5018   0.7428     C
O       0.7672   0.1587   0.1504     O
O       0.7672   0.8413   0.6504     O
C       0.7795   0.4186   0.1885     C
C       0.7795   0.5814   0.6885     C
C       0.7837   0.2047   0.5907     C
C       0.7837   0.7953   0.0907     C
C       0.7847   0.0612   0.3014     C
C       0.7847   0.9388   0.8014     C
C       0.7852    0.303   0.4426     C
C       0.7852    0.697   0.9426     C
H       0.7928   0.4901   0.8098     H
H       0.7928   0.5099   0.3098     H
C       0.8028   0.1468   0.2415     C
C       0.8028   0.8532   0.7415     C
C       0.8033   0.0407   0.9522     C
C       0.8033   0.9593   0.4522     C
H       0.8062   0.1747   0.6523     H
H       0.8062   0.8253   0.1523     H
H       0.8089   0.3397   0.4039     H
H       0.8089   0.6603   0.9039     H
H       0.8137   0.3767   0.2208     H
H       0.8137   0.6233   0.7208     H
C       0.8197   0.2572   0.5324     C
C       0.8197   0.7428   0.0324     C
C         0.82   0.0403   0.4015     C
C         0.82   0.9597   0.9015     C
H       0.8275   0.0526   0.0203     H
H       0.8275   0.9474   0.5203     H
O       0.8511   0.1983   0.2858     O
O       0.8511   0.8017   0.7858     O
H        0.855   0.0804   0.4351     H
H        0.855   0.2794   0.8529     H
H        0.855   0.7206   0.3529     H
H        0.855   0.9196   0.9351     H
N        0.866   0.2613   0.0035     N
N        0.866   0.7387   0.5035     N
C       0.8874   0.2705   0.9151     C
C       0.8874   0.7295   0.4151     C
C       0.8949   0.2612   0.5695     C
C       0.8949   0.7388   0.0695     C
H       0.9011   0.2446   0.1546     H
H       0.9011   0.7554   0.6546     H
H       0.9025    0.245   0.4287     H
H       0.9025    0.755   0.9287     H
C       0.9143   0.2504   0.0918     C
C       0.9143   0.7496   0.5918     C
O        0.923   0.2683   0.6605     O
O        0.923   0.7317   0.1605     O
N       0.9277   0.2533   0.4904     N
N       0.9277   0.7467   0.9904     N
C       0.9546   0.2674   0.9105     C
C       0.9546   0.7326   0.4105     C
H       0.9667   0.2723   0.8468     H
H       0.9667   0.7277   0.3468     H
C       0.9814   0.2475   0.0945     C
C       0.9814   0.7525   0.5945     C
H       0.9872   0.2392   0.3421     H
H       0.9872   0.7608   0.8421     H
C       0.9969    0.257   0.4975     C
C       0.9969    0.743   0.9975     C
