data_I
_chemical_name_common  '/home/zhangsd/repos/MofS-CGCNN/ML/data/TSD/clean_cifs/OWAVIS_clean'
_cell_length_a 17.47900
_cell_length_b 25.11700
_cell_length_c 26.60700
_cell_angle_alpha 90.00000
_cell_angle_beta  90.00000
_cell_angle_gamma 90.00000
_space_group_name_H-M_alt      'P 1'


loop_
_space_group_symop_operation_xyz
  'x, y, z' 

loop_
_atom_site_label
_atom_site_fract_x
_atom_site_fract_y
_atom_site_fract_z
_atom_site_type_symbol
O       0.0154   0.3895   0.3595     O
O       0.0154   0.8895   0.1405     O
O       0.0194   0.2034   0.0289     O
O       0.0194   0.7034   0.4711     O
C       0.0308   0.3418   0.8131     C
C       0.0308   0.8418   0.6869     C
C       0.0339   0.1254   0.3686     C
C       0.0339   0.6254   0.1314     C
C       0.0348   0.3747   0.7302     C
C       0.0348   0.8747   0.7698     C
O       0.0392   0.2588   0.9666     O
O       0.0392   0.7588   0.5334     O
O       0.0393   0.3034   0.3507     O
O       0.0393   0.8034   0.1493     O
C       0.0402   0.0317   0.3816     C
C       0.0402   0.5317   0.1184     C
H       0.0553   0.3247   0.8397     H
H       0.0553   0.8247   0.6603     H
H       0.0557   0.1591   0.3712     H
H       0.0557   0.6591   0.1288     H
C        0.058   0.3497   0.3621     C
C        0.058   0.8497   0.1379     C
C       0.0584    0.223   0.9962     C
C       0.0584    0.723   0.5038     C
H       0.0619   0.3806   0.7007     H
H       0.0619   0.8806   0.7993     H
H       0.0686   0.0024    0.392     H
H       0.0686   0.5024    0.108     H
C       0.0699   0.3502   0.7685     C
C       0.0699   0.8502   0.7315     C
C       0.0736   0.0823   0.3839     C
C       0.0736   0.5823   0.1161     C
C       0.1413   0.2044   0.9923     C
C       0.1413   0.7044   0.5077     C
C       0.1426   0.3584   0.3749     C
C       0.1426   0.8584   0.1251     C
H        0.145   0.1639   0.0582     H
H        0.145   0.6639   0.4418     H
H       0.1466   0.4377   0.3625     H
H       0.1466   0.9377   0.1375     H
C       0.1511    0.331   0.7657     C
C       0.1511    0.831   0.7343     C
C       0.1563   0.0887   0.4028     C
C       0.1563   0.5887   0.0972     C
H       0.1614   0.2394   0.9246     H
H       0.1614   0.7394   0.5754     H
H       0.1649   0.2819   0.3896     H
H       0.1649   0.7819   0.1104     H
C       0.1734    0.173     0.03     C
C       0.1734    0.673     0.47     C
O       0.1746   0.1373   0.4102     O
O       0.1746   0.6373   0.0898     O
O        0.175   0.3006   0.7977     O
O        0.175   0.8006   0.7023     O
C       0.1758   0.4088   0.3728     C
C       0.1758   0.9088   0.1272     C
H       0.1803   0.0984   0.5275     H
H       0.1803   0.5984   0.9725     H
C        0.183    0.218   0.9494     C
C        0.183    0.718   0.5506     C
C       0.1863   0.3157   0.3897     C
C       0.1863   0.8157   0.1103     C
H       0.1884   0.2241   0.7003     H
H       0.1884   0.7241   0.7997     H
O       0.1907   0.3449   0.7296     O
O       0.1907   0.8449   0.7704     O
O       0.1976   0.0512   0.4095     O
O       0.1976   0.5512   0.0905     O
H       0.2236   0.0621    0.566     H
H       0.2236   0.5621    0.934     H
C       0.2274   0.0801   0.5343     C
H       0.2274   0.1986    0.653     H
C       0.2274   0.5801   0.9657     C
H       0.2274   0.6986    0.847     H
C       0.2349   0.2218   0.6812     C
C       0.2349   0.7218   0.8188     C
H        0.237   0.0547   0.5082     H
H        0.237   0.5547   0.9918     H
Zn     0.23911  0.07901  0.17102    Zn
Zn     0.23911  0.57901  0.32898    Zn
O       0.2453   0.0068   0.1346     O
O       0.2453   0.5068   0.3654     O
C       0.2481   0.1556   0.0248     C
C       0.2481   0.6556   0.4752     C
H       0.2489   0.2566   0.6694     H
H       0.2489   0.7566   0.8306     H
O       0.2508   0.1179   0.1058     O
C       0.2508   0.4164   0.3858     C
O       0.2508   0.6179   0.3942     O
C       0.2508   0.9164   0.1142     C
C       0.2575    0.199   0.9445     C
C       0.2575    0.699   0.5555     C
C       0.2619    0.322    0.405     C
C       0.2619    0.822    0.095     C
O       0.2684   0.2403   0.8664     O
O       0.2684   0.7403   0.6336     O
O       0.2736   0.2305    0.418     O
O       0.2736   0.7305    0.082     O
Zn      0.2792  0.15112  0.42537    Zn
Zn      0.2792  0.65112  0.07463    Zn
Zn     0.28033  0.27965  0.80042    Zn
Zn     0.28033  0.77965  0.69958    Zn
C       0.2824   0.1192    0.065     C
C       0.2824   0.6192    0.435     C
C       0.2846    0.471    0.383     C
C       0.2846    0.971    0.117     C
C        0.289   0.1681   0.9803     C
C        0.289   0.6681   0.5197     C
C       0.2914   0.1194   0.5362     C
C       0.2914   0.6194   0.9638     C
C       0.2929   0.3734    0.403     C
C       0.2929   0.8734    0.097     C
C       0.2983      0.2   0.7142     C
C       0.2983      0.7   0.7858     C
C       0.3016   0.2139    0.898     C
C       0.3016   0.7139    0.602     C
C       0.3058   0.2743   0.4233     C
C       0.3058   0.7743   0.0767     C
N       0.3176   0.1442   0.4956     N
N       0.3176   0.6442   0.0044     N
Zn      0.3182  0.10356  0.64663    Zn
Zn      0.3182  0.60356  0.85337    Zn
N       0.3209   0.2212   0.7563     N
N       0.3209   0.7212   0.7437     N
N        0.328   0.1356   0.5774     N
N        0.328   0.6356   0.9226     N
H       0.3381   0.1547   0.9758     H
H       0.3381   0.6547   0.5242     H
N       0.3406   0.1568   0.7021     N
N       0.3406   0.6568   0.7979     N
H       0.3431   0.3788   0.4134     H
H       0.3431   0.8788   0.0866     H
O       0.3458   0.0966   0.0533     O
O       0.3458   0.5966   0.4467     O
O       0.3472     0.34   0.8156     O
O       0.3472     0.84   0.6844     O
O       0.3482   0.1324    0.371     O
O       0.3482   0.6324    0.129     O
O       0.3512   0.0733    0.193     O
O       0.3512   0.5733    0.307     O
O       0.3521   0.4765   0.3993     O
O       0.3521   0.9765   0.1007     O
O       0.3627   0.0329   0.6499     O
O       0.3627   0.5329   0.8501     O
O       0.3701    0.196   0.8959     O
O       0.3701    0.696   0.6041     O
H       0.3714    0.102   0.2821     H
H       0.3714    0.602   0.2179     H
O       0.3731   0.2822    0.438     O
O       0.3731   0.7822    0.062     O
N       0.3769   0.1768   0.5121     N
N       0.3769   0.6768   0.9879     N
H       0.3782   0.4372   0.8361     H
H       0.3782   0.9372   0.6639     H
C       0.3814   0.1703   0.5609     C
C       0.3814   0.6703   0.9391     C
N       0.3823   0.1904   0.7732     N
N       0.3823   0.6904   0.7268     N
C       0.3929   0.1521   0.7396     C
C       0.3929   0.6521   0.7604     C
Zn     0.40131  0.04563  0.09438    Zn
Zn     0.40131  0.54563  0.40562    Zn
C       0.4139     0.15   0.3667     C
C       0.4139     0.65   0.1333     C
H       0.4153   0.2252   0.6111     H
H       0.4153   0.7252   0.8889     H
C       0.4156   0.3344   0.8338     C
C       0.4156   0.8344   0.6662     C
C       0.4196   0.0844   0.1899     C
C       0.4196   0.5844   0.3101     C
C       0.4208    0.115   0.2783     C
C       0.4208    0.615   0.2217     C
H       0.4238   0.0765   0.7417     H
H       0.4238   0.5765   0.7583     H
C       0.4277   0.4323   0.8481     C
C       0.4277   0.9323   0.6519     C
C       0.4324   0.0295   0.6361     C
C       0.4324   0.5295   0.8639     C
Zn     0.43414  0.22138  0.46167    Zn
Zn     0.43414  0.72138  0.03833    Zn
Zn     0.43485  0.21029  0.83719    Zn
Zn     0.43485  0.71029  0.66281    Zn
C       0.4387   0.1962   0.5934     C
C       0.4387   0.6962   0.9066     C
O        0.447   0.1748   0.4016     O
O        0.447   0.6748   0.0984     O
O       0.4475   0.2893   0.8345     O
O       0.4475   0.7893   0.6655     O
C       0.4489   0.1105   0.7431     C
C       0.4489   0.6105   0.7569     C
O        0.456   0.0767   0.1511     O
O        0.456   0.5767   0.3489     O
C        0.457   0.1417   0.3185     C
C        0.457   0.6417   0.1815     C
C       0.4572   0.3806   0.8482     C
C       0.4572   0.8806   0.6518     C
H       0.4581   0.1707   0.6172     H
H       0.4581   0.6707   0.8828     H
C       0.4588   0.1083   0.2332     C
C       0.4588   0.6083   0.2668     C
C       0.4668   0.4762   0.8644     C
C       0.4668   0.9762   0.6356     C
O       0.4689   0.0694   0.6244     O
O       0.4689   0.5694   0.8756     O
H        0.476   0.1137   0.7744     H
H        0.476   0.6137   0.7256     H
H         0.48   0.2094   0.5732     H
H         0.48   0.7094   0.9268     H
H       0.4843   0.1134   0.7157     H
H       0.4843   0.6134   0.7843     H
O       0.5154   0.1105   0.8595     O
O       0.5154   0.6105   0.6405     O
O       0.5194   0.2966   0.5289     O
O       0.5194   0.7966   0.9711     O
C       0.5308   0.1582   0.3131     C
C       0.5308   0.6582   0.1869     C
C       0.5339   0.3746   0.8686     C
C       0.5339   0.8746   0.6314     C
C       0.5348   0.1253   0.2302     C
C       0.5348   0.6253   0.2698     C
O       0.5392   0.2412   0.4666     O
O       0.5392   0.7412   0.0334     O
O       0.5393   0.1966   0.8507     O
O       0.5393   0.6966   0.6493     O
C       0.5402   0.4683   0.8816     C
C       0.5402   0.9683   0.6184     C
H       0.5553   0.1753   0.3397     H
H       0.5553   0.6753   0.1603     H
H       0.5557   0.3409   0.8712     H
H       0.5557   0.8409   0.6288     H
C        0.558   0.1503   0.8621     C
C        0.558   0.6503   0.6379     C
C       0.5584    0.277   0.4962     C
C       0.5584    0.777   0.0038     C
H       0.5619   0.1194   0.2007     H
H       0.5619   0.6194   0.2993     H
H       0.5686   0.4976    0.892     H
H       0.5686   0.9976    0.608     H
C       0.5699   0.1498   0.2685     C
C       0.5699   0.6498   0.2315     C
C       0.5736   0.4177   0.8839     C
C       0.5736   0.9177   0.6161     C
C       0.6413   0.2956   0.4923     C
C       0.6413   0.7956   0.0077     C
C       0.6426   0.1416   0.8749     C
C       0.6426   0.6416   0.6251     C
H        0.645   0.3361   0.5582     H
H        0.645   0.8361   0.9418     H
H       0.6466   0.0623   0.8625     H
H       0.6466   0.5623   0.6375     H
C       0.6511    0.169   0.2657     C
C       0.6511    0.669   0.2343     C
C       0.6563   0.4113   0.9028     C
C       0.6563   0.9113   0.5972     C
H       0.6614   0.2606   0.4246     H
H       0.6614   0.7606   0.0754     H
H       0.6649   0.2181   0.8896     H
H       0.6649   0.7181   0.6104     H
C       0.6734    0.327     0.53     C
C       0.6734    0.827     0.97     C
O       0.6746   0.3627   0.9102     O
O       0.6746   0.8627   0.5898     O
O        0.675   0.1994   0.2977     O
O        0.675   0.6994   0.2023     O
C       0.6758   0.0912   0.8728     C
C       0.6758   0.5912   0.6272     C
H       0.6803   0.4016   0.0275     H
H       0.6803   0.9016   0.4725     H
C        0.683    0.282   0.4494     C
C        0.683    0.782   0.0506     C
C       0.6863   0.1843   0.8897     C
C       0.6863   0.6843   0.6103     C
H       0.6884   0.2759   0.2003     H
H       0.6884   0.7759   0.2997     H
O       0.6907   0.1551   0.2296     O
O       0.6907   0.6551   0.2704     O
O       0.6976   0.4488   0.9095     O
O       0.6976   0.9488   0.5905     O
H       0.7236   0.4379    0.066     H
H       0.7236   0.9379    0.434     H
H       0.7274   0.3014    0.153     H
C       0.7274   0.4199   0.0343     C
H       0.7274   0.8014    0.347     H
C       0.7274   0.9199   0.4657     C
C       0.7349   0.2782   0.1812     C
C       0.7349   0.7782   0.3188     C
H        0.737   0.4453   0.0082     H
H        0.737   0.9453   0.4918     H
Zn     0.73911  0.42099  0.67102    Zn
Zn     0.73911  0.92099  0.82898    Zn
O       0.7453   0.4932   0.6346     O
O       0.7453   0.9932   0.8654     O
C       0.7481   0.3444   0.5248     C
C       0.7481   0.8444   0.9752     C
H       0.7489   0.2434   0.1694     H
H       0.7489   0.7434   0.3306     H
C       0.7508   0.0836   0.8858     C
O       0.7508   0.3821   0.6058     O
C       0.7508   0.5836   0.6142     C
O       0.7508   0.8821   0.8942     O
C       0.7575    0.301   0.4445     C
C       0.7575    0.801   0.0555     C
C       0.7619    0.178    0.905     C
C       0.7619    0.678    0.595     C
O       0.7684   0.2597   0.3664     O
O       0.7684   0.7597   0.1336     O
O       0.7736   0.2695    0.918     O
O       0.7736   0.7695    0.582     O
Zn      0.7792  0.34888  0.92537    Zn
Zn      0.7792  0.84888  0.57463    Zn
Zn     0.78033  0.22035  0.30042    Zn
Zn     0.78033  0.72035  0.19958    Zn
C       0.7824   0.3808    0.565     C
C       0.7824   0.8808    0.935     C
C       0.7846    0.029    0.883     C
C       0.7846    0.529    0.617     C
C        0.789   0.3319   0.4803     C
C        0.789   0.8319   0.0197     C
C       0.7914   0.3806   0.0362     C
C       0.7914   0.8806   0.4638     C
C       0.7929   0.1266    0.903     C
C       0.7929   0.6266    0.597     C
C       0.7983      0.3   0.2142     C
C       0.7983      0.8   0.2858     C
C       0.8016   0.2861    0.398     C
C       0.8016   0.7861    0.102     C
C       0.8058   0.2257   0.9233     C
C       0.8058   0.7257   0.5767     C
N       0.8176   0.3558   0.9956     N
N       0.8176   0.8558   0.5044     N
Zn      0.8182  0.39644  0.14663    Zn
Zn      0.8182  0.89644  0.35337    Zn
N       0.8209   0.2788   0.2563     N
N       0.8209   0.7788   0.2437     N
N        0.828   0.3644   0.0774     N
N        0.828   0.8644   0.4226     N
H       0.8381   0.3453   0.4758     H
H       0.8381   0.8453   0.0242     H
N       0.8406   0.3432   0.2021     N
N       0.8406   0.8432   0.2979     N
H       0.8431   0.1212   0.9134     H
H       0.8431   0.6212   0.5866     H
O       0.8458   0.4034   0.5533     O
O       0.8458   0.9034   0.9467     O
O       0.8472     0.16   0.3156     O
O       0.8472     0.66   0.1844     O
O       0.8482   0.3676    0.871     O
O       0.8482   0.8676    0.629     O
O       0.8512   0.4267    0.693     O
O       0.8512   0.9267    0.807     O
O       0.8521   0.0235   0.8993     O
O       0.8521   0.5235   0.6007     O
O       0.8627   0.4671   0.1499     O
O       0.8627   0.9671   0.3501     O
O       0.8701    0.304   0.3959     O
O       0.8701    0.804   0.1041     O
H       0.8714    0.398   0.7821     H
H       0.8714    0.898   0.7179     H
O       0.8731   0.2178    0.938     O
O       0.8731   0.7178    0.562     O
N       0.8769   0.3232   0.0121     N
N       0.8769   0.8232   0.4879     N
H       0.8782   0.0628   0.3361     H
H       0.8782   0.5628   0.1639     H
C       0.8814   0.3297   0.0609     C
C       0.8814   0.8297   0.4391     C
N       0.8823   0.3096   0.2732     N
N       0.8823   0.8096   0.2268     N
C       0.8929   0.3479   0.2396     C
C       0.8929   0.8479   0.2604     C
Zn     0.90131  0.45437  0.59438    Zn
Zn     0.90131  0.95437  0.90562    Zn
C       0.9139     0.35   0.8667     C
C       0.9139     0.85   0.6333     C
H       0.9153   0.2748   0.1111     H
H       0.9153   0.7748   0.3889     H
C       0.9156   0.1656   0.3338     C
C       0.9156   0.6656   0.1662     C
C       0.9196   0.4156   0.6899     C
C       0.9196   0.9156   0.8101     C
C       0.9208    0.385   0.7783     C
C       0.9208    0.885   0.7217     C
H       0.9238   0.4235   0.2417     H
H       0.9238   0.9235   0.2583     H
C       0.9277   0.0677   0.3481     C
C       0.9277   0.5677   0.1519     C
C       0.9324   0.4705   0.1361     C
C       0.9324   0.9705   0.3639     C
Zn     0.93414  0.27862  0.96167    Zn
Zn     0.93414  0.77862  0.53833    Zn
Zn     0.93485  0.28971  0.33719    Zn
Zn     0.93485  0.78971  0.16281    Zn
C       0.9387   0.3038   0.0934     C
C       0.9387   0.8038   0.4066     C
O        0.947   0.3252   0.9016     O
O        0.947   0.8252   0.5984     O
O       0.9475   0.2107   0.3345     O
O       0.9475   0.7107   0.1655     O
C       0.9489   0.3895   0.2431     C
C       0.9489   0.8895   0.2569     C
O        0.956   0.4233   0.6511     O
O        0.956   0.9233   0.8489     O
C        0.957   0.3583   0.8185     C
C        0.957   0.8583   0.6815     C
C       0.9572   0.1194   0.3482     C
C       0.9572   0.6194   0.1518     C
H       0.9581   0.3293   0.1172     H
H       0.9581   0.8293   0.3828     H
C       0.9588   0.3917   0.7332     C
C       0.9588   0.8917   0.7668     C
C       0.9668   0.0238   0.3644     C
C       0.9668   0.5238   0.1356     C
O       0.9689   0.4306   0.1244     O
O       0.9689   0.9306   0.3756     O
H        0.976   0.3863   0.2744     H
H        0.976   0.8863   0.2256     H
H         0.98   0.2906   0.0732     H
H         0.98   0.7906   0.4268     H
H       0.9843   0.3866   0.2157     H
H       0.9843   0.8866   0.2843     H
