data_I
_chemical_name_common  '/home/zhangsd/repos/MofS-CGCNN/ML/data/TSD/clean_cifs/OWIHIN_clean'
_cell_length_a 15.43750
_cell_length_b 15.43750
_cell_length_c 12.28480
_cell_angle_alpha 90.00000
_cell_angle_beta  90.00000
_cell_angle_gamma 90.00000
_space_group_name_H-M_alt      'P 1'


loop_
_space_group_symop_operation_xyz
  'x, y, z' 

loop_
_atom_site_label
_atom_site_fract_x
_atom_site_fract_y
_atom_site_fract_z
_atom_site_type_symbol
H          0.0      0.0   0.1249     H
C          0.0      0.0   0.2104     C
C          0.0      0.0   0.4381     C
C          0.0      0.0   0.5619     C
C          0.0      0.0   0.7896     C
H          0.0      0.0   0.8751     H
C          0.0      0.5   0.0396     C
H          0.0      0.5   0.1251     H
H          0.0      0.5   0.3749     H
C          0.0      0.5   0.4604     C
C          0.0      0.5   0.6881     C
C          0.0      0.5   0.8119     C
C      0.03734  0.56904   0.8688     C
C      0.03734  0.56904   0.9827     C
C      0.03734  0.93096   0.2673     C
C      0.03734  0.93096   0.3812     C
H       0.0654   0.6208   0.8261     H
H       0.0654   0.8792   0.4239     H
C      0.06904  0.53734   0.5173     C
C      0.06904  0.53734   0.6312     C
C      0.06904  0.96266   0.6188     C
C      0.06904  0.96266   0.7327     C
C       0.0833   0.6363   0.0415     C
C       0.0833   0.8637   0.2085     C
O        0.091   0.7091   0.9992     O
O        0.091   0.7909   0.2508     O
O        0.114   0.6194   0.1327     O
O        0.114   0.8806   0.1173     O
O       0.1194    0.614   0.3673     O
O       0.1194    0.886   0.8827     O
H       0.1208   0.5654   0.6739     H
H       0.1208   0.9346   0.5761     H
C       0.1363   0.5833   0.4585     C
C       0.1363   0.9167   0.7915     C
In      0.1837   0.6837     0.25    In
H       0.1837     0.75    0.625     H
In      0.1837   0.8163      0.0    In
O       0.2091    0.591   0.5008     O
O       0.2091    0.909   0.7492     O
O        0.242     0.75    0.625     O
H         0.25   0.6837    0.875     H
O         0.25    0.742    0.875     O
O         0.25    0.758    0.375     O
H         0.25   0.8163    0.375     H
O        0.258     0.75    0.125     O
O       0.2909    0.591   0.2492     O
O       0.2909    0.909   0.0008     O
In      0.3163   0.6837      0.5    In
H       0.3163     0.75    0.125     H
In      0.3163   0.8163     0.75    In
C       0.3637   0.5833   0.2915     C
C       0.3637   0.9167   0.9585     C
H       0.3792   0.5654   0.0761     H
H       0.3792   0.9346   0.1739     H
O       0.3806    0.614   0.3827     O
O       0.3806    0.886   0.8673     O
O        0.386   0.6194   0.6173     O
O        0.386   0.8806   0.6327     O
O        0.409   0.7091   0.7508     O
O        0.409   0.7909   0.4992     O
C       0.4167   0.6363   0.7085     C
C       0.4167   0.8637   0.5415     C
C      0.43096  0.53734   0.1188     C
C      0.43096  0.53734   0.2327     C
C      0.43096  0.96266   0.0173     C
C      0.43096  0.96266   0.1312     C
H       0.4346   0.6208   0.9239     H
H       0.4346   0.8792   0.3261     H
C      0.46266  0.56904   0.7673     C
C      0.46266  0.56904   0.8812     C
C      0.46266  0.93096   0.3688     C
C      0.46266  0.93096   0.4827     C
C          0.5      0.0   0.1881     C
C          0.5      0.0   0.3119     C
C          0.5      0.0   0.5396     C
H          0.5      0.0   0.6251     H
H          0.5      0.0   0.8749     H
C          0.5      0.0   0.9604     C
C          0.5      0.5   0.0619     C
C          0.5      0.5   0.2896     C
H          0.5      0.5   0.3751     H
H          0.5      0.5   0.6249     H
C          0.5      0.5   0.7104     C
C          0.5      0.5   0.9381     C
C      0.53734  0.06904   0.3688     C
C      0.53734  0.06904   0.4827     C
C      0.53734  0.43096   0.7673     C
C      0.53734  0.43096   0.8812     C
H       0.5654   0.1208   0.3261     H
H       0.5654   0.3792   0.9239     H
C      0.56904  0.03734   0.0173     C
C      0.56904  0.03734   0.1312     C
C      0.56904  0.46266   0.1188     C
C      0.56904  0.46266   0.2327     C
C       0.5833   0.1363   0.5415     C
C       0.5833   0.3637   0.7085     C
O        0.591   0.2091   0.4992     O
O        0.591   0.2909   0.7508     O
O        0.614   0.1194   0.6327     O
O        0.614   0.3806   0.6173     O
O       0.6194    0.114   0.8673     O
O       0.6194    0.386   0.3827     O
H       0.6208   0.0654   0.1739     H
H       0.6208   0.4346   0.0761     H
C       0.6363   0.0833   0.9585     C
C       0.6363   0.4167   0.2915     C
In      0.6837   0.1837     0.75    In
H       0.6837     0.25    0.125     H
In      0.6837   0.3163      0.5    In
O       0.7091    0.091   0.0008     O
O       0.7091    0.409   0.2492     O
O        0.742     0.25    0.125     O
H         0.75   0.1837    0.375     H
O         0.75    0.242    0.375     O
O         0.75    0.258    0.875     O
H         0.75   0.3163    0.875     H
O        0.758     0.25    0.625     O
O       0.7909    0.091   0.7492     O
O       0.7909    0.409   0.5008     O
In      0.8163   0.1837      0.0    In
H       0.8163     0.25    0.625     H
In      0.8163   0.3163     0.25    In
C       0.8637   0.0833   0.7915     C
C       0.8637   0.4167   0.4585     C
H       0.8792   0.0654   0.5761     H
H       0.8792   0.4346   0.6739     H
O       0.8806    0.114   0.8827     O
O       0.8806    0.386   0.3673     O
O        0.886   0.1194   0.1173     O
O        0.886   0.3806   0.1327     O
O        0.909   0.2091   0.2508     O
O        0.909   0.2909   0.9992     O
C       0.9167   0.1363   0.2085     C
C       0.9167   0.3637   0.0415     C
C      0.93096  0.03734   0.6188     C
C      0.93096  0.03734   0.7327     C
C      0.93096  0.46266   0.5173     C
C      0.93096  0.46266   0.6312     C
H       0.9346   0.1208   0.4239     H
H       0.9346   0.3792   0.8261     H
C      0.96266  0.06904   0.2673     C
C      0.96266  0.06904   0.3812     C
C      0.96266  0.43096   0.8688     C
C      0.96266  0.43096   0.9827     C
