data_I
_chemical_name_common  '/home/zhangsd/repos/MofS-CGCNN/ML/data/TSD/clean_cifs/OWIHUZ_clean'
_cell_length_a 15.49390
_cell_length_b 15.49390
_cell_length_c 12.31210
_cell_angle_alpha 90.00000
_cell_angle_beta  90.00000
_cell_angle_gamma 90.00000
_space_group_name_H-M_alt      'P 1'


loop_
_space_group_symop_operation_xyz
  'x, y, z' 

loop_
_atom_site_label
_atom_site_fract_x
_atom_site_fract_y
_atom_site_fract_z
_atom_site_type_symbol
H          0.0      0.0   0.1255     H
C          0.0      0.0   0.2108     C
C          0.0      0.0  0.43874     C
C          0.0      0.0  0.56126     C
C          0.0      0.0   0.7892     C
H          0.0      0.0   0.8745     H
C          0.0      0.5   0.0392     C
H          0.0      0.5   0.1245     H
H          0.0      0.5   0.3755     H
C          0.0      0.5   0.4608     C
C          0.0      0.5  0.68874     C
C          0.0      0.5  0.81126     C
C      0.03713  0.56908  0.86825     C
C      0.03713  0.56908  0.98221     C
C      0.03713  0.93092  0.26779     C
C      0.03713  0.93092  0.38175     C
H       0.0649   0.6208   0.8256     H
H       0.0649   0.8792   0.4244     H
C      0.06908  0.53713  0.51779     C
C      0.06908  0.53713  0.63175     C
C      0.06908  0.96287  0.61825     C
C      0.06908  0.96287  0.73221     C
C        0.084   0.6362   0.0413     C
C        0.084   0.8638   0.2087     C
O       0.0938   0.7076   0.9966     O
O       0.0938   0.7924   0.2534     O
O       0.1119   0.6188   0.1335     O
O       0.1119   0.8812   0.1165     O
O       0.1188   0.6119   0.3665     O
O       0.1188   0.8881   0.8835     O
H       0.1208   0.5649   0.6744     H
H       0.1208   0.9351   0.5756     H
C       0.1362    0.584   0.4587     C
C       0.1362    0.916   0.7913     C
H       0.1843     0.75    0.625     H
In      0.1867   0.6867     0.25    In
In      0.1867   0.8133      0.0    In
O       0.2076   0.5938   0.5034     O
O       0.2076   0.9062   0.7466     O
O       0.2424     0.75    0.625     O
H         0.25   0.6843    0.875     H
O         0.25   0.7424    0.875     O
O         0.25   0.7576    0.375     O
H         0.25   0.8157    0.375     H
O       0.2576     0.75    0.125     O
O       0.2924   0.5938   0.2466     O
O       0.2924   0.9062   0.0034     O
In      0.3133   0.6867      0.5    In
In      0.3133   0.8133     0.75    In
H       0.3157     0.75    0.125     H
C       0.3638    0.584   0.2913     C
C       0.3638    0.916   0.9587     C
H       0.3792   0.5649   0.0756     H
H       0.3792   0.9351   0.1744     H
O       0.3812   0.6119   0.3835     O
O       0.3812   0.8881   0.8665     O
O       0.3881   0.6188   0.6165     O
O       0.3881   0.8812   0.6335     O
O       0.4062   0.7076   0.7534     O
O       0.4062   0.7924   0.4966     O
C        0.416   0.6362   0.7087     C
C        0.416   0.8638   0.5413     C
C      0.43092  0.53713  0.11825     C
C      0.43092  0.53713  0.23221     C
C      0.43092  0.96287  0.01779     C
C      0.43092  0.96287  0.13175     C
H       0.4351   0.6208   0.9244     H
H       0.4351   0.8792   0.3256     H
C      0.46287  0.56908  0.76779     C
C      0.46287  0.56908  0.88175     C
C      0.46287  0.93092  0.36825     C
C      0.46287  0.93092  0.48221     C
C          0.5      0.0  0.18874     C
C          0.5      0.0  0.31126     C
C          0.5      0.0   0.5392     C
H          0.5      0.0   0.6245     H
H          0.5      0.0   0.8755     H
C          0.5      0.0   0.9608     C
C          0.5      0.5  0.06126     C
C          0.5      0.5   0.2892     C
H          0.5      0.5   0.3745     H
H          0.5      0.5   0.6255     H
C          0.5      0.5   0.7108     C
C          0.5      0.5  0.93874     C
C      0.53713  0.06908  0.36825     C
C      0.53713  0.06908  0.48221     C
C      0.53713  0.43092  0.76779     C
C      0.53713  0.43092  0.88175     C
H       0.5649   0.1208   0.3256     H
H       0.5649   0.3792   0.9244     H
C      0.56908  0.03713  0.01779     C
C      0.56908  0.03713  0.13175     C
C      0.56908  0.46287  0.11825     C
C      0.56908  0.46287  0.23221     C
C        0.584   0.1362   0.5413     C
C        0.584   0.3638   0.7087     C
O       0.5938   0.2076   0.4966     O
O       0.5938   0.2924   0.7534     O
O       0.6119   0.1188   0.6335     O
O       0.6119   0.3812   0.6165     O
O       0.6188   0.1119   0.8665     O
O       0.6188   0.3881   0.3835     O
H       0.6208   0.0649   0.1744     H
H       0.6208   0.4351   0.0756     H
C       0.6362    0.084   0.9587     C
C       0.6362    0.416   0.2913     C
H       0.6843     0.25    0.125     H
In      0.6867   0.1867     0.75    In
In      0.6867   0.3133      0.5    In
O       0.7076   0.0938   0.0034     O
O       0.7076   0.4062   0.2466     O
O       0.7424     0.25    0.125     O
H         0.75   0.1843    0.375     H
O         0.75   0.2424    0.375     O
O         0.75   0.2576    0.875     O
H         0.75   0.3157    0.875     H
O       0.7576     0.25    0.625     O
O       0.7924   0.0938   0.7466     O
O       0.7924   0.4062   0.5034     O
In      0.8133   0.1867      0.0    In
In      0.8133   0.3133     0.25    In
H       0.8157     0.25    0.625     H
C       0.8638    0.084   0.7913     C
C       0.8638    0.416   0.4587     C
H       0.8792   0.0649   0.5756     H
H       0.8792   0.4351   0.6744     H
O       0.8812   0.1119   0.8835     O
O       0.8812   0.3881   0.3665     O
O       0.8881   0.1188   0.1165     O
O       0.8881   0.3812   0.1335     O
O       0.9062   0.2076   0.2534     O
O       0.9062   0.2924   0.9966     O
C        0.916   0.1362   0.2087     C
C        0.916   0.3638   0.0413     C
C      0.93092  0.03713  0.61825     C
C      0.93092  0.03713  0.73221     C
C      0.93092  0.46287  0.51779     C
C      0.93092  0.46287  0.63175     C
H       0.9351   0.1208   0.4244     H
H       0.9351   0.3792   0.8256     H
C      0.96287  0.06908  0.26779     C
C      0.96287  0.06908  0.38175     C
C      0.96287  0.43092  0.86825     C
C      0.96287  0.43092  0.98221     C
