data_I
_chemical_name_common  '/home/zhangsd/repos/MofS-CGCNN/ML/data/TSD/clean_cifs/OXALOP_clean'
_cell_length_a 10.67620
_cell_length_b 28.24200
_cell_length_c 34.07900
_cell_angle_alpha 90.00000
_cell_angle_beta  90.00000
_cell_angle_gamma 90.00000
_space_group_name_H-M_alt      'P 1'


loop_
_space_group_symop_operation_xyz
  'x, y, z' 

loop_
_atom_site_label
_atom_site_fract_x
_atom_site_fract_y
_atom_site_fract_z
_atom_site_type_symbol
O       0.0339  0.69211  0.70935     O
O       0.0339  0.69211  0.79065     O
O       0.0339  0.80789  0.20935     O
O       0.0339  0.80789  0.29065     O
O       0.0358  0.63153  0.20618     O
O       0.0358  0.63153  0.29382     O
O       0.0358  0.86847  0.70618     O
O       0.0358  0.86847  0.79382     O
Y      0.05129  0.69161     0.25     Y
Y      0.05129  0.80839     0.75     Y
H       0.0802   0.6765   0.1461     H
H       0.0802   0.6765   0.3539     H
H       0.0802   0.8235   0.6461     H
H       0.0802   0.8235   0.8539     H
C       0.0886  0.59827  0.18875     C
C       0.0886  0.59827  0.31125     C
C       0.0886  0.90173  0.68875     C
C       0.0886  0.90173  0.81125     C
O        0.105  0.55797   0.2026     O
O        0.105  0.55797   0.2974     O
O        0.105  0.94203   0.7026     O
O        0.105  0.94203   0.7974     O
H       0.1065   0.6317   0.6609     H
H       0.1065   0.6317   0.8391     H
H       0.1065   0.8683   0.1609     H
H       0.1065   0.8683   0.3391     H
O       0.1092   0.2123  0.21048     O
O       0.1092   0.2123  0.28952     O
O       0.1092   0.2877  0.71048     O
O       0.1092   0.2877  0.78952     O
C        0.114  0.71847  0.69295     C
C        0.114  0.71847  0.80705     C
C        0.114  0.78153  0.19295     C
C        0.114  0.78153  0.30705     C
O       0.1167  0.11313  0.70677     O
O       0.1167  0.11313  0.79323     O
O       0.1167  0.38687  0.20677     O
O       0.1167  0.38687  0.29323     O
C       0.1214  0.65227  0.13174     C
C       0.1214  0.65227  0.36826     C
C       0.1214  0.84773  0.63174     C
C       0.1214  0.84773  0.86826     C
Y       0.1283  0.17399     0.75     Y
Y       0.1283  0.32601     0.25     Y
C       0.1302  0.60757  0.14739     C
C       0.1302  0.60757  0.35261     C
C       0.1302  0.89243  0.64739     C
C       0.1302  0.89243  0.85261     C
H       0.1325   0.1587   0.6441     H
H       0.1325   0.1587   0.8559     H
H       0.1325   0.3413   0.1441     H
H       0.1325   0.3413   0.3559     H
O       0.1439  0.74089  0.20445     O
O       0.1439  0.74089  0.29555     O
O       0.1439  0.75911  0.70445     O
O       0.1439  0.75911  0.79555     O
C       0.1595  0.65155  0.64564     C
C       0.1595  0.65155  0.85436     C
C       0.1595  0.84845  0.14564     C
C       0.1595  0.84845  0.35436     C
H        0.167   0.6936   0.0845     H
H        0.167   0.6936   0.4155     H
H        0.167   0.8064   0.5845     H
H        0.167   0.8064   0.9155     H
Y      0.16793  0.50982     0.25     Y
Y      0.16793  0.99018     0.75     Y
C       0.1723  0.66248  0.09502     C
C       0.1723  0.66248  0.40498     C
C       0.1723  0.83752  0.59502     C
C       0.1723  0.83752  0.90498     C
C       0.1746  0.08221  0.68841     C
C       0.1746  0.08221  0.81159     C
C       0.1746  0.41779  0.18841     C
C       0.1746  0.41779  0.31159     C
H       0.1751   0.1487   0.1654     H
H       0.1751   0.1487   0.3346     H
H       0.1751   0.3513   0.6654     H
H       0.1751   0.3513   0.8346     H
C       0.1773  0.69822  0.65683     C
C       0.1773  0.69822  0.84317     C
C       0.1773  0.80178  0.15683     C
C       0.1773  0.80178  0.34317     C
C       0.1823  0.57173  0.12522     C
C       0.1823  0.57173  0.37478     C
C       0.1823  0.92827  0.62522     C
C       0.1823  0.92827  0.87478     C
H       0.1839   0.5404   0.1353     H
H       0.1839   0.5404   0.3647     H
H       0.1839   0.9596   0.6353     H
H       0.1839   0.9596   0.8647     H
C       0.1843  0.13705  0.63034     C
C       0.1843  0.13705  0.86966     C
C       0.1843  0.36295  0.13034     C
C       0.1843  0.36295  0.36966     C
C       0.1903  0.23662  0.19303     C
C       0.1903  0.23662  0.30697     C
C       0.1903  0.26338  0.69303     C
C       0.1903  0.26338  0.80697     C
O       0.2008  0.04174  0.70172     O
O       0.2008  0.04174  0.79828     O
O       0.2008  0.45826  0.20172     O
O       0.2008  0.45826  0.29828     O
H       0.2046   0.1776   0.5817     H
H       0.2046   0.1776   0.9183     H
H       0.2046   0.3224   0.0817     H
H       0.2046   0.3224   0.4183     H
H       0.2071    0.601   0.6058     H
H       0.2071    0.601   0.8942     H
H       0.2071    0.899   0.1058     H
H       0.2071    0.899   0.3942     H
C       0.2173  0.09412  0.64763     C
C       0.2173  0.09412  0.85237     C
C       0.2173  0.40588  0.14763     C
C       0.2173  0.40588  0.35237     C
C       0.2175  0.63337  0.61272     C
C       0.2175  0.63337  0.88728     C
C       0.2175  0.86663  0.11272     C
C       0.2175  0.86663  0.38728     C
O       0.2232  0.22283  0.70371     O
O       0.2232  0.22283  0.79629     O
O       0.2232  0.27717  0.20371     O
O       0.2232  0.27717  0.29629     O
C       0.2268  0.14813  0.59324     C
C       0.2268  0.14813  0.90676     C
C       0.2268  0.35187  0.09324     C
C       0.2268  0.35187  0.40676     C
C       0.2281  0.16688  0.14879     C
C       0.2281  0.16688  0.35121     C
C       0.2281  0.33312  0.64879     C
C       0.2281  0.33312  0.85121     C
C       0.2307  0.62671  0.07403     C
C       0.2307  0.62671  0.42597     C
C       0.2307  0.87329  0.57403     C
C       0.2307  0.87329  0.92597     C
C       0.2326  0.58069  0.08824     C
C       0.2326  0.58069  0.41176     C
C       0.2326  0.91931  0.58824     C
C       0.2326  0.91931  0.91176     C
C       0.2505  0.21446  0.15773     C
C       0.2505  0.21446  0.34227     C
C       0.2505  0.28554  0.65773     C
C       0.2505  0.28554  0.84227     C
C       0.2534  0.72681  0.63414     C
C       0.2534  0.72681  0.86586     C
C       0.2534  0.77319  0.13414     C
C       0.2534  0.77319  0.36586     C
H       0.2674   0.7413    0.142     H
H       0.2674   0.7413    0.358     H
H       0.2674   0.7587    0.642     H
H       0.2674   0.7587    0.858     H
H       0.2675   0.1134   0.1113     H
H       0.2675   0.1134   0.3887     H
H       0.2675   0.3866   0.6113     H
H       0.2675   0.3866   0.8887     H
H       0.2676   0.5558   0.0731     H
H       0.2676   0.5558   0.4269     H
H       0.2676   0.9442   0.5731     H
H       0.2676   0.9442   0.9269     H
C       0.2816  0.14599  0.11647     C
C       0.2816  0.14599  0.38353     C
C       0.2816  0.35401  0.61647     C
C       0.2816  0.35401  0.88353     C
O       0.2821   0.6407  0.03918     O
O       0.2821   0.6407  0.46082     O
O       0.2821   0.8593  0.53918     O
O       0.2821   0.8593  0.96082     O
C       0.2895  0.06232  0.62647     C
C       0.2895  0.06232  0.87353     C
C       0.2895  0.43768  0.12647     C
C       0.2895  0.43768  0.37353     C
C       0.2922  0.66342  0.58959     C
C       0.2922  0.66342  0.91041     C
C       0.2922  0.83658  0.08959     C
C       0.2922  0.83658  0.41041     C
C       0.3016  0.11662  0.57275     C
C       0.3016  0.11662  0.92725     C
C       0.3016  0.38338  0.07275     C
C       0.3016  0.38338  0.42725     C
C       0.3096  0.71022  0.60037     C
C       0.3096  0.71022  0.89963     C
C       0.3096  0.78978  0.10037     C
C       0.3096  0.78978  0.39963     C
H       0.3105   0.0326   0.6378     H
H       0.3105   0.0326   0.8622     H
H       0.3105   0.4674   0.1378     H
H       0.3105   0.4674   0.3622     H
C       0.3249  0.24022  0.13263     C
C       0.3249  0.24022  0.36737     C
C       0.3249  0.25978  0.63263     C
C       0.3249  0.25978  0.86737     C
C       0.3319   0.0731   0.5888     C
C       0.3319   0.0731   0.9112     C
C       0.3319   0.4269   0.0888     C
C       0.3319   0.4269   0.4112     C
H       0.3355   0.5887   0.0032     H
H       0.3355   0.5887   0.4968     H
H       0.3355   0.9113   0.5032     H
H       0.3355   0.9113   0.9968     H
O       0.3373   0.5547   0.2258     O
O       0.3373   0.5547   0.2742     O
O       0.3373   0.9453   0.7258     O
O       0.3373   0.9453   0.7742     O
O         0.34  0.13241  0.53691     O
O         0.34  0.13241  0.96309     O
O         0.34  0.36759  0.03691     O
O         0.34  0.36759  0.46309     O
H       0.3414   0.2275   0.6384     H
H       0.3414   0.2275   0.8616     H
H       0.3414   0.2725   0.1384     H
H       0.3414   0.2725   0.3616     H
O       0.3436  0.64259  0.55666     O
O       0.3436  0.64259  0.94334     O
O       0.3436  0.85741  0.05666     O
O       0.3436  0.85741  0.44334     O
C       0.3567  0.17265  0.09121     C
C       0.3567  0.17265  0.40879     C
C       0.3567  0.32735  0.59121     C
C       0.3567  0.32735  0.90879     C
H       0.3575   0.6963   0.5188     H
H       0.3575   0.6963   0.9812     H
H       0.3575   0.8037   0.0188     H
H       0.3575   0.8037   0.4812     H
H       0.3597   0.7306   0.5847     H
H       0.3597   0.7306   0.9153     H
H       0.3597   0.7694   0.0847     H
H       0.3597   0.7694   0.4153     H
C       0.3751  0.61073  0.02211     C
C       0.3751  0.61073  0.47789     C
C       0.3751  0.88927  0.52211     C
C       0.3751  0.88927  0.97789     C
C       0.3766  0.22023  0.09906     C
C       0.3766  0.22023  0.40094     C
C       0.3766  0.27977  0.59906     C
C       0.3766  0.27977  0.90094     C
H       0.3807    0.051   0.5744     H
H       0.3807    0.051   0.9256     H
H       0.3807    0.449   0.0744     H
H       0.3807    0.449   0.4256     H
O       0.3889   0.5108   0.2295     O
O       0.3889   0.5108   0.2705     O
O       0.3889   0.9892   0.7295     O
O       0.3889   0.9892   0.7705     O
H       0.3987   0.0867   0.0037     H
H       0.3987   0.0867   0.4963     H
H       0.3987   0.4133   0.5037     H
H       0.3987   0.4133   0.9963     H
O       0.4041  0.14879  0.05962     O
O       0.4041  0.14879  0.44038     O
O       0.4041  0.35121  0.55962     O
O       0.4041  0.35121  0.94038     O
H       0.4068   0.1965   0.0163     H
H       0.4068   0.1965   0.4837     H
H       0.4068   0.3035   0.5163     H
H       0.4068   0.3035   0.9837     H
N       0.4074   0.5405     0.25     N
N       0.4074   0.9595     0.75     N
C       0.4134  0.67232  0.53081     C
C       0.4134  0.67232  0.96919     C
C       0.4134  0.82768  0.03081     C
C       0.4134  0.82768  0.46919     C
H       0.4165   0.5918   0.0428     H
H       0.4165   0.5918   0.4572     H
H       0.4165   0.9082   0.5428     H
H       0.4165   0.9082   0.9572     H
H       0.4252    0.239   0.0816     H
H       0.4252    0.239   0.4184     H
H       0.4252    0.261   0.5816     H
H       0.4252    0.261   0.9184     H
C       0.4361  0.10668  0.51704     C
C       0.4361  0.10668  0.98296     C
C       0.4361  0.39332  0.01704     C
C       0.4361  0.39332  0.48296     C
C       0.4673  0.17585  0.03013     C
C       0.4673  0.17585  0.46987     C
C       0.4673  0.32415  0.53013     C
C       0.4673  0.32415  0.96987     C
H        0.468   0.6962   0.0424     H
H        0.468   0.6962   0.4576     H
H        0.468   0.8038   0.5424     H
H        0.468   0.8038   0.9576     H
C       0.4714   0.6415  0.00108     C
C       0.4714   0.6415  0.49892     C
C       0.4714   0.8585  0.50108     C
C       0.4714   0.8585  0.99892     C
O       0.4753   0.0527     0.25     O
O       0.4753   0.4473     0.75     O
H       0.4799    0.689   0.5455     H
H       0.4799    0.689   0.9545     H
H       0.4799    0.811   0.0455     H
H       0.4799    0.811   0.4545     H
H       0.4802   0.0857   0.5358     H
H       0.4802   0.0857   0.9642     H
H       0.4802   0.4143   0.0358     H
H       0.4802   0.4143   0.4642     H
H       0.5198   0.5857   0.5358     H
H       0.5198   0.5857   0.9642     H
H       0.5198   0.9143   0.0358     H
H       0.5198   0.9143   0.4642     H
H       0.5201    0.189   0.5455     H
H       0.5201    0.189   0.9545     H
H       0.5201    0.311   0.0455     H
H       0.5201    0.311   0.4545     H
O       0.5247   0.5527     0.25     O
O       0.5247   0.9473     0.75     O
C       0.5286   0.1415  0.00108     C
C       0.5286   0.1415  0.49892     C
C       0.5286   0.3585  0.50108     C
C       0.5286   0.3585  0.99892     C
H        0.532   0.1962   0.0424     H
H        0.532   0.1962   0.4576     H
H        0.532   0.3038   0.5424     H
H        0.532   0.3038   0.9576     H
C       0.5327  0.67585  0.03013     C
C       0.5327  0.67585  0.46987     C
C       0.5327  0.82415  0.53013     C
C       0.5327  0.82415  0.96987     C
C       0.5639  0.60668  0.51704     C
C       0.5639  0.60668  0.98296     C
C       0.5639  0.89332  0.01704     C
C       0.5639  0.89332  0.48296     C
H       0.5748    0.739   0.0816     H
H       0.5748    0.739   0.4184     H
H       0.5748    0.761   0.5816     H
H       0.5748    0.761   0.9184     H
H       0.5835   0.0918   0.0428     H
H       0.5835   0.0918   0.4572     H
H       0.5835   0.4082   0.5428     H
H       0.5835   0.4082   0.9572     H
C       0.5866  0.17232  0.53081     C
C       0.5866  0.17232  0.96919     C
C       0.5866  0.32768  0.03081     C
C       0.5866  0.32768  0.46919     C
N       0.5926   0.0405     0.25     N
N       0.5926   0.4595     0.75     N
H       0.5932   0.6965   0.0163     H
H       0.5932   0.6965   0.4837     H
H       0.5932   0.8035   0.5163     H
H       0.5932   0.8035   0.9837     H
O       0.5959  0.64879  0.05962     O
O       0.5959  0.64879  0.44038     O
O       0.5959  0.85121  0.55962     O
O       0.5959  0.85121  0.94038     O
H       0.6013   0.5867   0.0037     H
H       0.6013   0.5867   0.4963     H
H       0.6013   0.9133   0.5037     H
H       0.6013   0.9133   0.9963     H
O       0.6111   0.0108   0.2295     O
O       0.6111   0.0108   0.2705     O
O       0.6111   0.4892   0.7295     O
O       0.6111   0.4892   0.7705     O
H       0.6193    0.551   0.5744     H
H       0.6193    0.551   0.9256     H
H       0.6193    0.949   0.0744     H
H       0.6193    0.949   0.4256     H
C       0.6234  0.72023  0.09906     C
C       0.6234  0.72023  0.40094     C
C       0.6234  0.77977  0.59906     C
C       0.6234  0.77977  0.90094     C
C       0.6249  0.11073  0.02211     C
C       0.6249  0.11073  0.47789     C
C       0.6249  0.38927  0.52211     C
C       0.6249  0.38927  0.97789     C
H       0.6403   0.2306   0.5847     H
H       0.6403   0.2306   0.9153     H
H       0.6403   0.2694   0.0847     H
H       0.6403   0.2694   0.4153     H
H       0.6425   0.1963   0.5188     H
H       0.6425   0.1963   0.9812     H
H       0.6425   0.3037   0.0188     H
H       0.6425   0.3037   0.4812     H
C       0.6433  0.67265  0.09121     C
C       0.6433  0.67265  0.40879     C
C       0.6433  0.82735  0.59121     C
C       0.6433  0.82735  0.90879     C
O       0.6564  0.14259  0.55666     O
O       0.6564  0.14259  0.94334     O
O       0.6564  0.35741  0.05666     O
O       0.6564  0.35741  0.44334     O
H       0.6586   0.7275   0.6384     H
H       0.6586   0.7275   0.8616     H
H       0.6586   0.7725   0.1384     H
H       0.6586   0.7725   0.3616     H
O         0.66  0.63241  0.53691     O
O         0.66  0.63241  0.96309     O
O         0.66  0.86759  0.03691     O
O         0.66  0.86759  0.46309     O
O       0.6627   0.0547   0.2258     O
O       0.6627   0.0547   0.2742     O
O       0.6627   0.4453   0.7258     O
O       0.6627   0.4453   0.7742     O
H       0.6645   0.0887   0.0032     H
H       0.6645   0.0887   0.4968     H
H       0.6645   0.4113   0.5032     H
H       0.6645   0.4113   0.9968     H
C       0.6681   0.5731   0.5888     C
C       0.6681   0.5731   0.9112     C
C       0.6681   0.9269   0.0888     C
C       0.6681   0.9269   0.4112     C
C       0.6751  0.74022  0.13263     C
C       0.6751  0.74022  0.36737     C
C       0.6751  0.75978  0.63263     C
C       0.6751  0.75978  0.86737     C
H       0.6895   0.5326   0.6378     H
H       0.6895   0.5326   0.8622     H
H       0.6895   0.9674   0.1378     H
H       0.6895   0.9674   0.3622     H
C       0.6904  0.21022  0.60037     C
C       0.6904  0.21022  0.89963     C
C       0.6904  0.28978  0.10037     C
C       0.6904  0.28978  0.39963     C
C       0.6984  0.61662  0.57275     C
C       0.6984  0.61662  0.92725     C
C       0.6984  0.88338  0.07275     C
C       0.6984  0.88338  0.42725     C
C       0.7078  0.16342  0.58959     C
C       0.7078  0.16342  0.91041     C
C       0.7078  0.33658  0.08959     C
C       0.7078  0.33658  0.41041     C
C       0.7105  0.56232  0.62647     C
C       0.7105  0.56232  0.87353     C
C       0.7105  0.93768  0.12647     C
C       0.7105  0.93768  0.37353     C
O       0.7179   0.1407  0.03918     O
O       0.7179   0.1407  0.46082     O
O       0.7179   0.3593  0.53918     O
O       0.7179   0.3593  0.96082     O
C       0.7184  0.64599  0.11647     C
C       0.7184  0.64599  0.38353     C
C       0.7184  0.85401  0.61647     C
C       0.7184  0.85401  0.88353     C
H       0.7324   0.0558   0.0731     H
H       0.7324   0.0558   0.4269     H
H       0.7324   0.4442   0.5731     H
H       0.7324   0.4442   0.9269     H
H       0.7325   0.6134   0.1113     H
H       0.7325   0.6134   0.3887     H
H       0.7325   0.8866   0.6113     H
H       0.7325   0.8866   0.8887     H
H       0.7326   0.2413    0.142     H
H       0.7326   0.2413    0.358     H
H       0.7326   0.2587    0.642     H
H       0.7326   0.2587    0.858     H
C       0.7466  0.22681  0.63414     C
C       0.7466  0.22681  0.86586     C
C       0.7466  0.27319  0.13414     C
C       0.7466  0.27319  0.36586     C
C       0.7495  0.71446  0.15773     C
C       0.7495  0.71446  0.34227     C
C       0.7495  0.78554  0.65773     C
C       0.7495  0.78554  0.84227     C
C       0.7674  0.08069  0.08824     C
C       0.7674  0.08069  0.41176     C
C       0.7674  0.41931  0.58824     C
C       0.7674  0.41931  0.91176     C
C       0.7693  0.12671  0.07403     C
C       0.7693  0.12671  0.42597     C
C       0.7693  0.37329  0.57403     C
C       0.7693  0.37329  0.92597     C
C       0.7719  0.66688  0.14879     C
C       0.7719  0.66688  0.35121     C
C       0.7719  0.83312  0.64879     C
C       0.7719  0.83312  0.85121     C
C       0.7732  0.64813  0.59324     C
C       0.7732  0.64813  0.90676     C
C       0.7732  0.85187  0.09324     C
C       0.7732  0.85187  0.40676     C
O       0.7768  0.72283  0.70371     O
O       0.7768  0.72283  0.79629     O
O       0.7768  0.77717  0.20371     O
O       0.7768  0.77717  0.29629     O
C       0.7825  0.13337  0.61272     C
C       0.7825  0.13337  0.88728     C
C       0.7825  0.36663  0.11272     C
C       0.7825  0.36663  0.38728     C
C       0.7827  0.59412  0.64763     C
C       0.7827  0.59412  0.85237     C
C       0.7827  0.90588  0.14763     C
C       0.7827  0.90588  0.35237     C
H       0.7929    0.101   0.6058     H
H       0.7929    0.101   0.8942     H
H       0.7929    0.399   0.1058     H
H       0.7929    0.399   0.3942     H
H       0.7954   0.6776   0.5817     H
H       0.7954   0.6776   0.9183     H
H       0.7954   0.8224   0.0817     H
H       0.7954   0.8224   0.4183     H
O       0.7992  0.54174  0.70172     O
O       0.7992  0.54174  0.79828     O
O       0.7992  0.95826  0.20172     O
O       0.7992  0.95826  0.29828     O
C       0.8097  0.73662  0.19303     C
C       0.8097  0.73662  0.30697     C
C       0.8097  0.76338  0.69303     C
C       0.8097  0.76338  0.80697     C
C       0.8157  0.63705  0.63034     C
C       0.8157  0.63705  0.86966     C
C       0.8157  0.86295  0.13034     C
C       0.8157  0.86295  0.36966     C
H       0.8161   0.0404   0.1353     H
H       0.8161   0.0404   0.3647     H
H       0.8161   0.4596   0.6353     H
H       0.8161   0.4596   0.8647     H
C       0.8177  0.07173  0.12522     C
C       0.8177  0.07173  0.37478     C
C       0.8177  0.42827  0.62522     C
C       0.8177  0.42827  0.87478     C
C       0.8227  0.19822  0.65683     C
C       0.8227  0.19822  0.84317     C
C       0.8227  0.30178  0.15683     C
C       0.8227  0.30178  0.34317     C
H       0.8249   0.6487   0.1654     H
H       0.8249   0.6487   0.3346     H
H       0.8249   0.8513   0.6654     H
H       0.8249   0.8513   0.8346     H
C       0.8254  0.58221  0.68841     C
C       0.8254  0.58221  0.81159     C
C       0.8254  0.91779  0.18841     C
C       0.8254  0.91779  0.31159     C
C       0.8277  0.16248  0.09502     C
C       0.8277  0.16248  0.40498     C
C       0.8277  0.33752  0.59502     C
C       0.8277  0.33752  0.90498     C
Y      0.83207  0.00982     0.25     Y
Y      0.83207  0.49018     0.75     Y
H        0.833   0.1936   0.0845     H
H        0.833   0.1936   0.4155     H
H        0.833   0.3064   0.5845     H
H        0.833   0.3064   0.9155     H
C       0.8405  0.15155  0.64564     C
C       0.8405  0.15155  0.85436     C
C       0.8405  0.34845  0.14564     C
C       0.8405  0.34845  0.35436     C
O       0.8561  0.24089  0.20445     O
O       0.8561  0.24089  0.29555     O
O       0.8561  0.25911  0.70445     O
O       0.8561  0.25911  0.79555     O
H       0.8675   0.6587   0.6441     H
H       0.8675   0.6587   0.8559     H
H       0.8675   0.8413   0.1441     H
H       0.8675   0.8413   0.3559     H
C       0.8698  0.10757  0.14739     C
C       0.8698  0.10757  0.35261     C
C       0.8698  0.39243  0.64739     C
C       0.8698  0.39243  0.85261     C
Y       0.8717  0.67399     0.75     Y
Y       0.8717  0.82601     0.25     Y
C       0.8786  0.15227  0.13174     C
C       0.8786  0.15227  0.36826     C
C       0.8786  0.34773  0.63174     C
C       0.8786  0.34773  0.86826     C
O       0.8833  0.61313  0.70677     O
O       0.8833  0.61313  0.79323     O
O       0.8833  0.88687  0.20677     O
O       0.8833  0.88687  0.29323     O
C        0.886  0.21847  0.69295     C
C        0.886  0.21847  0.80705     C
C        0.886  0.28153  0.19295     C
C        0.886  0.28153  0.30705     C
O       0.8908   0.7123  0.21048     O
O       0.8908   0.7123  0.28952     O
O       0.8908   0.7877  0.71048     O
O       0.8908   0.7877  0.78952     O
H       0.8935   0.1317   0.6609     H
H       0.8935   0.1317   0.8391     H
H       0.8935   0.3683   0.1609     H
H       0.8935   0.3683   0.3391     H
O        0.895  0.05797   0.2026     O
O        0.895  0.05797   0.2974     O
O        0.895  0.44203   0.7026     O
O        0.895  0.44203   0.7974     O
C       0.9114  0.09827  0.18875     C
C       0.9114  0.09827  0.31125     C
C       0.9114  0.40173  0.68875     C
C       0.9114  0.40173  0.81125     C
H       0.9198   0.1765   0.1461     H
H       0.9198   0.1765   0.3539     H
H       0.9198   0.3235   0.6461     H
H       0.9198   0.3235   0.8539     H
Y      0.94871  0.19161     0.25     Y
Y      0.94871  0.30839     0.75     Y
O       0.9642  0.13153  0.20618     O
O       0.9642  0.13153  0.29382     O
O       0.9642  0.36847  0.70618     O
O       0.9642  0.36847  0.79382     O
O       0.9661  0.19211  0.70935     O
O       0.9661  0.19211  0.79065     O
O       0.9661  0.30789  0.20935     O
O       0.9661  0.30789  0.29065     O
