data_I
_chemical_name_common  '/home/zhangsd/repos/MofS-CGCNN/ML/data/TSD/clean_cifs/OXALEF_clean'
_cell_length_a 11.77500
_cell_length_b 16.11300
_cell_length_c 16.34600
_cell_angle_alpha 108.24400
_cell_angle_beta  101.66300
_cell_angle_gamma 102.55900
_space_group_name_H-M_alt      'P 1'


loop_
_space_group_symop_operation_xyz
  'x, y, z' 

loop_
_atom_site_label
_atom_site_fract_x
_atom_site_fract_y
_atom_site_fract_z
_atom_site_type_symbol
C       0.0059  0.75844  0.31817     C
O      0.02853  0.81445  0.28002     O
O      0.06102  0.77904  0.39942     O
H       0.0833    0.376    0.629     H
C       0.0848  0.33422  0.73409     C
H       0.1107   0.3228    0.856     H
C       0.1174  0.39411  0.69212     C
C       0.1334  0.36297  0.82622     C
H       0.1404   0.0973   0.6563     H
O      0.14208  0.98341  0.50798     O
H        0.158   0.0607   0.2277     H
H       0.1744   0.1429   0.1351     H
Mn     0.18914  0.89525  0.39036    Mn
C       0.1994  0.48049   0.7416     C
H       0.2078   0.1898   0.8097     H
C       0.2143  0.44908  0.87543     C
C        0.216  0.09967  0.69262     C
H       0.2215   0.5213   0.7122     H
O      0.22539  0.99839  0.34592     O
H        0.231   0.6538   0.2233     H
C       0.2363  0.09262  0.22814     C
C       0.2458  0.14092  0.17276     C
H       0.2462   0.4682   0.9388     H
C       0.2468  0.99451  0.55544     C
C       0.2489  0.50746  0.83287     C
C        0.255  0.15402  0.78368     C
H       0.2676   0.5198   0.1408     H
O      0.27732  0.81304  0.32933     O
H       0.2852   0.2573   0.9686     H
C       0.2859   0.0487  0.65383     C
C       0.3118   0.6503  0.23233     C
O      0.31788   0.9577  0.51864     O
O      0.32559  0.59472  0.87638     O
C       0.3311  0.03895  0.34763     C
C       0.3332  0.57033   0.1838     C
H       0.3382   0.3879   0.1257     H
C       0.3395   0.0896    0.285     C
H       0.3544   0.4303   0.0507     H
C       0.3586  0.18661  0.17142     C
O      0.35888  0.23414  0.11532     O
H       0.3622   0.3173   0.9248     H
C       0.3641  0.15509  0.83597     C
C       0.3673  0.28085   0.9634     C
H       0.3726   0.3648   0.7317     H
C       0.3849  0.81021  0.34962     C
C       0.3938  0.04945  0.70768     C
C        0.398  0.41305  0.09817     C
H       0.4073   0.6625   0.0069     H
C       0.4073  0.72468  0.29357     C
H       0.4095   0.2292   0.6567     H
O      0.41267  0.20664  0.92573     O
C       0.4217  0.61823  0.95544     C
H       0.4236   0.5627   0.9689     H
O      0.42798  0.04001  0.39641     O
C       0.4325   0.1017  0.79851     C
H       0.4412   0.0138   0.6818     H
C        0.451  0.13523  0.28256     C
C       0.4513  0.56513   0.1988     C
C       0.4534   0.3611   0.7416     C
C       0.4564  0.33966  0.05618     C
H        0.459   0.7851   0.7738     H
C       0.4628   0.1839  0.22667     C
O      0.47283  0.86937  0.41177     O
C       0.4745  0.28245  0.11355     C
H       0.4749   0.6772   0.8244     H
C        0.476  0.28121   0.6961     C
H       0.4776   0.8666   0.6796     H
H       0.4831   0.7616    0.912     H
O        0.485  0.48812   0.1618     O
H       0.4943   0.8987   0.1646     H
Mn         0.5      0.0      0.5    Mn
H       0.5057   0.1013   0.8354     H
O        0.515  0.51188   0.8382     O
H       0.5169   0.2384    0.088     H
H       0.5224   0.1334   0.3204     H
C        0.524  0.71879   0.3039     C
H       0.5251   0.3228   0.1756     H
C       0.5255  0.71755  0.88645     C
O      0.52717  0.13063  0.58823     O
C       0.5372   0.8161  0.77333     C
H        0.541   0.2149   0.2262     H
C       0.5436  0.66034  0.94382     C
C       0.5466   0.6389   0.2584     C
C       0.5487  0.43487   0.8012     C
C        0.549  0.86477  0.71744     C
H       0.5588   0.9862   0.3182     H
C       0.5675   0.8983  0.20149     C
O      0.57202  0.95999  0.60359     O
H       0.5764   0.4373   0.0311     H
C       0.5783  0.38177  0.04456     C
O      0.58733  0.79336  0.07427     O
H       0.5905   0.7708   0.3433     H
C       0.5927  0.27532  0.70643     C
H       0.5927   0.3375   0.9931     H
C        0.602  0.58695  0.90183     C
C       0.6062  0.95055  0.29232     C
C       0.6151  0.18979  0.65038     C
H       0.6274   0.6352   0.2683     H
C       0.6327  0.71915   0.0366     C
C       0.6359  0.84491  0.16403     C
H       0.6378   0.6827   0.0752     H
O      0.64112  0.76586  0.88468     O
C       0.6414  0.81339  0.82858     C
H       0.6456   0.5697   0.9493     H
C       0.6605   0.9104    0.715     C
H       0.6618   0.6121   0.8743     H
C       0.6668  0.42967   0.8162     C
C       0.6689  0.96105  0.65237     C
O      0.67441  0.40528  0.12362     O
O      0.68212   0.0423  0.48136     O
C       0.6882   0.3497  0.76767     C
C       0.7141   0.9513  0.34617     C
H       0.7148   0.7427   0.0314     H
O      0.72268  0.18696  0.67067     O
H       0.7324   0.4802   0.8592     H
C        0.745  0.84598  0.21632     C
C       0.7511  0.49254  0.16713     C
C       0.7532  0.00549  0.44456     C
H       0.7538   0.5318   0.0612     H
C       0.7542  0.85908  0.82724     C
C       0.7637  0.90738  0.77186     C
H        0.769   0.3462   0.7767     H
O      0.77461  0.00161  0.65408     O
H       0.7785   0.4787   0.2878     H
C        0.784  0.90033  0.30738     C
C       0.7857  0.55092  0.12457     C
H       0.7922   0.8102   0.1903     H
C       0.8006  0.51951   0.2584     C
Mn     0.81086  0.10475  0.60964    Mn
H       0.8256   0.8571   0.8649     H
H        0.842   0.9393   0.7723     H
O      0.85792  0.01659  0.49202     O
H       0.8596   0.9027   0.3437     H
C       0.8666  0.63703  0.17378     C
C       0.8826  0.60589  0.30788     C
H       0.8893   0.6772    0.144     H
C       0.9152  0.66578  0.26591     C
H       0.9167    0.624    0.371     H
O      0.93898  0.22096  0.60058     O
O      0.97147  0.18555  0.71998     O
C       0.9941  0.24156  0.68183     C
