data_I
_chemical_name_common  '/home/zhangsd/repos/MofS-CGCNN/ML/data/TSD/clean_cifs/OXAMIK_clean'
_cell_length_a  5.06960
_cell_length_b  9.60810
_cell_length_c 12.53280
_cell_angle_alpha 89.12000
_cell_angle_beta  85.50800
_cell_angle_gamma 76.86200
_space_group_name_H-M_alt      'P 1'


loop_
_space_group_symop_operation_xyz
  'x, y, z' 

loop_
_atom_site_label
_atom_site_fract_x
_atom_site_fract_y
_atom_site_fract_z
_atom_site_type_symbol
C       0.0003   0.6586   0.2611     C
H       0.0183   0.4777   0.1731     H
H       0.0542   0.3759   0.5204     H
H       0.0741   0.1504    0.267     H
C       0.0962   0.5246   0.2222     C
O       0.1033   0.3619   0.4568     O
O       0.1143   0.9849   0.6937     O
O       0.1462   0.2147   0.2451     O
H       0.1588   0.2797   0.7575     H
Co     0.16618  0.89367  0.40345    Co
N       0.1715   0.6907   0.3322     N
O       0.1723   0.0967   0.4764     O
P       0.3162  0.21348  0.44277     P
H       0.3201   0.6719   0.7109     H
O       0.3242   0.9562   0.8675     O
N       0.3329   0.4722   0.2705     N
C       0.3709   0.5748   0.3344     C
P       0.3774  0.96745  0.74681     P
C       0.3942   0.2057   0.2972     C
O       0.4314   0.7801   0.5059     O
H       0.4357   0.6844   0.8216     H
O       0.4619   0.9211   0.2833     O
H        0.481   0.4341   0.6246     H
C       0.4852   0.6699   0.7456     C
Co         0.5      0.0      0.0    Co
C       0.5148   0.3301   0.2544     C
H        0.519   0.5659   0.3754     H
O       0.5381   0.0789   0.7167     O
H       0.5643   0.3156   0.1784     H
O       0.5686   0.2199   0.4941     O
C       0.6058   0.7943   0.7028     C
P       0.6226  0.03255  0.25319     P
C       0.6291   0.4252   0.6656     C
N       0.6671   0.5278   0.7295     N
O       0.6758   0.0438   0.1325     O
H       0.6799   0.3281   0.2891     H
P       0.6838  0.78652  0.55723     P
O       0.8277   0.9033   0.5236     O
N       0.8285   0.3093   0.6678     N
Co     0.83382  0.10633  0.59655    Co
H       0.8412   0.7203   0.2425     H
O       0.8538   0.7853   0.7549     O
O       0.8857   0.0151   0.3063     O
O       0.8967   0.6381   0.5432     O
C       0.9038   0.4754   0.7778     C
H       0.9259   0.8496    0.733     H
H       0.9458   0.6241   0.4796     H
H       0.9817   0.5223   0.8269     H
C       0.9997   0.3414   0.7389     C
