data_I
_chemical_name_common  '/home/zhangsd/repos/MofS-CGCNN/ML/data/TSD/clean_cifs/OYEBIE_clean'
_cell_length_a  9.47920
_cell_length_b 11.36580
_cell_length_c 22.12650
_cell_angle_alpha 102.43400
_cell_angle_beta  90.00000
_cell_angle_gamma 114.64600
_space_group_name_H-M_alt      'P 1'


loop_
_space_group_symop_operation_xyz
  'x, y, z' 

loop_
_atom_site_label
_atom_site_fract_x
_atom_site_fract_y
_atom_site_fract_z
_atom_site_type_symbol
H       0.0056   0.0504   0.1048     H
H       0.0175   0.2148   0.5242     H
H       0.0241   0.4116    0.148     H
C      0.03572  0.23084  0.27324     C
H       0.0366    0.605   0.4541     H
H       0.0392    0.171   0.7014     H
C      0.04066  0.17532  0.21463     C
H       0.0448   0.0504   0.6048     H
C      0.05021  0.39902  0.56738     C
C      0.07268  0.43296  0.96308     C
C      0.07308  0.83076   0.9283     C
Zn     0.07894   0.6665  0.62011    Zn
C      0.08159  0.28958  0.08437     C
C      0.08176  0.63332  0.02656     C
O      0.08201   0.2378  0.90459     O
C      0.08229  0.28998  0.55421     C
C      0.08388  0.92896  0.89042     C
C      0.08827  0.87454  0.82543     C
H       0.0898   0.8748   0.9721     H
N      0.09129  0.76152  0.70562     N
C      0.10581  0.40482  0.12653     C
H       0.1255    0.266   0.3007     H
H       0.1318    0.171   0.2014     H
C      0.13466  0.17532  0.71463     C
N      0.13639  0.50966  0.60905     N
H       0.1367   0.7238   0.0447     H
O      0.14045  0.43002   0.4135     O
H       0.1405    0.266   0.8007     H
C      0.15046  0.35872  0.92404     C
C      0.15384  0.56688  0.99002     C
C      0.15492  0.07104  0.60958     C
H       0.1555    0.802   0.9192     H
O      0.15579   0.2378  0.40459     O
H       0.1665   0.9892   0.5946     H
H       0.1773   0.0108   0.9054     H
O      0.18237  0.76166  0.56003     O
C      0.19512  0.23084  0.77324     C
H       0.1973   0.2148   0.0242     H
C      0.20769  0.28998  0.05421     C
C      0.20799  0.28958  0.58437     C
C      0.20826  0.35872  0.42404     C
C      0.21373  0.12546  0.67457     C
H        0.215   0.1252   0.5279     H
C       0.2174   0.8114  0.74396     C
C      0.21946  0.86752  0.80301     C
C      0.24232  0.16924   0.5717     C
C      0.25042  0.51084  0.13747     C
H       0.2576    0.612   0.9833     H
C      0.26042  0.51084  0.63747     C
H       0.2622    0.823   0.4634     H
H        0.263    0.588   0.1665     H
O      0.28957  0.43002   0.9135     O
C      0.29901  0.40482  0.62653     C
H       0.3078   0.8074   0.7295     H
H        0.311   0.9026   0.8295     H
H        0.325    0.588   0.6665     H
C      0.32658  0.83076  0.57637     C
N      0.32977  0.23848  0.79438     N
C      0.34881  0.39902  0.06738     C
C      0.35194  0.13248  0.69699     C
H       0.3535    0.198   0.5808     H
H       0.3544    0.612   0.4833     H
C      0.35818  0.89436  0.47869     C
C      0.36028  0.43296  0.46308     C
N      0.37327  0.50966  0.10905     N
H       0.3875   0.4116    0.648     H
O      0.39064  0.83164  0.62329     O
H       0.3974   0.9614   0.4018     H
C        0.406   0.1886  0.75604     C
H       0.4084   0.0974   0.6705     H
Zn     0.41244   0.3335  0.87989    Zn
H       0.4129   0.2762   0.4553     H
C      0.41304  0.56688  0.49002     C
C      0.41817  0.91734  0.53647     C
O      0.42071  0.23834  0.93997     O
H       0.4316    0.395   0.0459     H
H        0.436   0.0386   0.0982     H
H       0.4392    0.177   0.0366     H
C      0.43932  0.97684   0.4423     C
O        0.441  0.83164  0.12329     O
C      0.44844  0.36668  0.47344     C
C      0.46248  0.02316   0.0577     C
C      0.46382  0.10564  0.02131     C
C      0.49582  0.16924  0.92363     C
C      0.49917  0.91734  0.03647     C
H       0.4996   0.8074   0.2295     H
H       0.5004   0.1926   0.7705     H
C      0.50083  0.08266  0.96353     C
C      0.50418  0.83076  0.07637     C
C      0.53618  0.89436  0.97869     C
C      0.53752  0.97684   0.9423     C
C      0.55156  0.63332  0.52656     C
O        0.559  0.16836  0.87671     O
C      0.56068  0.02316   0.5577     C
H       0.5608    0.823   0.9634     H
H        0.564   0.9614   0.9018     H
H       0.5684    0.605   0.9541     H
O      0.57929  0.76166  0.06003     O
C      0.58183  0.08266  0.46353     C
C      0.58696  0.43312  0.50998     C
H       0.5871   0.7238   0.5447     H
Zn     0.58756   0.6665  0.12011    Zn
H       0.5916   0.9026   0.3295     H
C        0.594   0.8114  0.24396     C
H       0.6026   0.0386   0.5982     H
O      0.60936  0.16836  0.37671     O
H       0.6125   0.5884    0.352     H
N      0.62673  0.49034  0.89095     N
C      0.63972  0.56704  0.53692     C
C      0.64182  0.10564  0.52131     C
H       0.6456    0.388   0.5167     H
H       0.6465    0.802   0.4192     H
C      0.64806  0.86752  0.30301     C
C      0.65119  0.60098  0.93262     C
N      0.67023  0.76152  0.20562     N
C      0.67342  0.16924  0.42363     C
H        0.675    0.412   0.3335     H
H        0.689   0.0974   0.1705     H
H       0.6922   0.1926   0.2705     H
C      0.70099  0.59518  0.37347     C
O      0.71043  0.56998   0.0865     O
H        0.737    0.412   0.8335     H
H       0.7378    0.177   0.5366     H
C      0.73958  0.48916  0.36253     C
H       0.7424    0.388   0.0167     H
C      0.74958  0.48916  0.86253     C
C      0.75768  0.83076   0.4283     C
C      0.78054  0.13248  0.19699     C
C       0.7826   0.1886  0.25604     C
H        0.785   0.8748   0.4721     H
C      0.78627  0.87454  0.32543     C
C      0.79174  0.64128  0.57596     C
C      0.79201  0.71042  0.41563     C
C      0.79231  0.71002  0.94579     C
H       0.8027   0.7852   0.9758     H
C      0.80488  0.76916  0.22676     C
O      0.81763  0.23834  0.43997     O
H       0.8227   0.9892   0.0946     H
H       0.8335   0.0108   0.4054     H
O      0.84421   0.7622  0.59541     O
H       0.8445    0.198   0.0808     H
C      0.84508  0.92896  0.39042     C
C      0.84616  0.43312  0.00998     C
C      0.84954  0.64128  0.07596     C
H       0.8595    0.734   0.1993     H
O      0.85955  0.56998   0.5865     O
H       0.8633   0.2762   0.9553     H
N      0.86361  0.49034  0.39095     N
C      0.86534  0.82468  0.28537     C
H       0.8682    0.829   0.7986     H
H       0.8745    0.734   0.6993     H
C      0.89419  0.59518  0.87347     C
N      0.90871  0.23848  0.29438     N
H       0.9102   0.1252   0.0279     H
C      0.91173  0.12546  0.17457     C
C      0.91612  0.07104  0.10958     C
C      0.91771  0.71002  0.44579     C
O      0.91799   0.7622  0.09541     O
C      0.91824  0.36668  0.97344     C
C      0.91841  0.71042  0.91563     C
Zn     0.92106   0.3335  0.37989    Zn
C      0.92692  0.16924   0.0717     C
C      0.92732  0.56704  0.03692     C
C      0.94979  0.60098  0.43262     C
H       0.9552   0.9496   0.3952     H
C      0.95934  0.82468  0.78537     C
H       0.9608    0.829   0.2986     H
H       0.9634    0.395   0.5459     H
C      0.96428  0.76916  0.72676     C
H       0.9759   0.5884    0.852     H
H       0.9825   0.7852   0.4758     H
H       0.9944   0.9496   0.8952     H
