data_I
_chemical_name_common  '/home/zhangsd/repos/MofS-CGCNN/ML/data/TSD/clean_cifs/OYERIV_clean'
_cell_length_a 22.04500
_cell_length_b 22.04500
_cell_length_c 21.76800
_cell_angle_alpha 90.00000
_cell_angle_beta  90.00000
_cell_angle_gamma 120.00000
_space_group_name_H-M_alt      'P 1'


loop_
_space_group_symop_operation_xyz
  'x, y, z' 

loop_
_atom_site_label
_atom_site_fract_x
_atom_site_fract_y
_atom_site_fract_z
_atom_site_type_symbol
Cl         0.0  0.44061  0.59714    Cl
Cl         0.0  0.44061  0.90286    Cl
Mn         0.0      0.5      0.0    Mn
Mn         0.0      0.5      0.5    Mn
Cl         0.0  0.55939  0.09714    Cl
Cl         0.0  0.55939  0.40286    Cl
H       0.0611   0.3939   0.5108     H
H       0.0611   0.3939   0.9892     H
H       0.0611   0.6672   0.0108     H
H       0.0611   0.6672   0.4892     H
N       0.0846   0.4783   0.0387     N
N       0.0846   0.4783   0.4613     N
N       0.0846   0.6063   0.5387     N
N       0.0846   0.6063   0.9613     N
C       0.0907   0.4229   0.0212     C
C       0.0907   0.4229   0.4788     C
C       0.0907   0.6678   0.5212     C
C       0.0907   0.6678   0.9788     C
H       0.1219   0.5557   0.0999     H
H       0.1219   0.5557   0.4001     H
H       0.1219   0.5662   0.5999     H
H       0.1219   0.5662   0.9001     H
C        0.126   0.5172   0.0857     C
C        0.126   0.5172   0.4143     C
C        0.126   0.6088   0.5857     C
C        0.126   0.6088   0.9143     C
C       0.1371   0.4058   0.0467     C
C       0.1371   0.4058   0.4533     C
C       0.1371   0.7313   0.5467     C
C       0.1371   0.7313   0.9533     C
H       0.1399   0.3667   0.0319     H
H       0.1399   0.3667   0.4681     H
H       0.1399   0.7732   0.5319     H
H       0.1399   0.7732   0.9681     H
C       0.1736   0.5036   0.1139     C
C       0.1736   0.5036   0.3861     C
C       0.1736     0.67   0.6139     C
C       0.1736     0.67   0.8861     C
C       0.1799   0.4465   0.0945     C
C       0.1799   0.4465   0.4055     C
C       0.1799   0.7334   0.5945     C
C       0.1799   0.7334   0.9055     C
O      0.20389  0.59406  0.18512     O
O      0.20389  0.59406  0.31488     O
O      0.20389  0.60983  0.68512     O
O      0.20389  0.60983  0.81488     O
H       0.2123   0.4358   0.1134     H
H       0.2123   0.4358   0.3866     H
H       0.2123   0.7765   0.6134     H
H       0.2123   0.7765   0.8866     H
C       0.2171   0.5486   0.1662     C
C       0.2171   0.5486   0.3338     C
C       0.2171   0.6685   0.6662     C
C       0.2171   0.6685   0.8338     C
H       0.2235   0.4358   0.6134     H
H       0.2235   0.4358   0.8866     H
H       0.2235   0.7877   0.1134     H
H       0.2235   0.7877   0.3866     H
H       0.2268   0.3667   0.5319     H
H       0.2268   0.3667   0.9681     H
H       0.2268   0.8601   0.0319     H
H       0.2268   0.8601   0.4681     H
Cr     0.24606  0.58089     0.75    Cr
Cr     0.24606  0.66517     0.25    Cr
O       0.2637  0.53641   0.1858     O
O       0.2637  0.53641   0.3142     O
O       0.2637  0.72729   0.6858     O
O       0.2637  0.72729   0.8142     O
C       0.2666   0.4465   0.5945     C
C       0.2666   0.4465   0.9055     C
C       0.2666   0.8201   0.0945     C
C       0.2666   0.8201   0.4055     C
C       0.2687   0.4058   0.5467     C
C       0.2687   0.4058   0.9533     C
C       0.2687   0.8629   0.0467     C
C       0.2687   0.8629   0.4533     C
O      0.27271  0.53641   0.6858     O
O      0.27271  0.53641   0.8142     O
O      0.27271   0.7363   0.1858     O
O      0.27271   0.7363   0.3142     O
C         0.33   0.5036   0.6139     C
C         0.33   0.5036   0.8861     C
C         0.33   0.8264   0.1139     C
C         0.33   0.8264   0.3861     C
C       0.3315   0.5486   0.6662     C
C       0.3315   0.5486   0.8338     C
C       0.3315   0.7829   0.1662     C
C       0.3315   0.7829   0.3338     C
C       0.3322   0.4229   0.5212     C
C       0.3322   0.4229   0.9788     C
C       0.3322   0.9093   0.0212     C
C       0.3322   0.9093   0.4788     C
H       0.3328   0.3939   0.0108     H
H       0.3328   0.3939   0.4892     H
H       0.3328   0.9389   0.5108     H
H       0.3328   0.9389   0.9892     H
O      0.33333  0.66667     0.25     O
O      0.33333  0.66667     0.75     O
Cr     0.33483  0.58089     0.25    Cr
Cr     0.33483  0.75394     0.75    Cr
H       0.3667   0.1399   0.0319     H
H       0.3667   0.1399   0.4681     H
H       0.3667   0.2268   0.5319     H
H       0.3667   0.2268   0.9681     H
O      0.39017  0.59406  0.68512     O
O      0.39017  0.59406  0.81488     O
O      0.39017  0.79611  0.18512     O
O      0.39017  0.79611  0.31488     O
C       0.3912   0.5172   0.5857     C
C       0.3912   0.5172   0.9143     C
C       0.3912    0.874   0.0857     C
C       0.3912    0.874   0.4143     C
N       0.3937   0.4783   0.5387     N
N       0.3937   0.4783   0.9613     N
N       0.3937   0.9154   0.0387     N
N       0.3937   0.9154   0.4613     N
H       0.3939   0.0611   0.5108     H
H       0.3939   0.0611   0.9892     H
H       0.3939   0.3328   0.0108     H
H       0.3939   0.3328   0.4892     H
C       0.4058   0.1371   0.0467     C
C       0.4058   0.1371   0.4533     C
C       0.4058   0.2687   0.5467     C
C       0.4058   0.2687   0.9533     C
O      0.40594  0.60983  0.18512     O
O      0.40594  0.60983  0.31488     O
O      0.40594  0.79611  0.68512     O
O      0.40594  0.79611  0.81488     O
Cr     0.41911  0.66517     0.75    Cr
Cr     0.41911  0.75394     0.25    Cr
C       0.4229   0.0907   0.0212     C
C       0.4229   0.0907   0.4788     C
C       0.4229   0.3322   0.5212     C
C       0.4229   0.3322   0.9788     C
H       0.4338   0.5557   0.5999     H
H       0.4338   0.5557   0.9001     H
H       0.4338   0.8781   0.0999     H
H       0.4338   0.8781   0.4001     H
H       0.4358   0.2123   0.1134     H
H       0.4358   0.2123   0.3866     H
H       0.4358   0.2235   0.6134     H
H       0.4358   0.2235   0.8866     H
Cl     0.44061      0.0  0.59714    Cl
Cl     0.44061      0.0  0.90286    Cl
Cl     0.44061  0.44061  0.09714    Cl
Cl     0.44061  0.44061  0.40286    Cl
H       0.4443   0.5662   0.0999     H
H       0.4443   0.5662   0.4001     H
H       0.4443   0.8781   0.5999     H
H       0.4443   0.8781   0.9001     H
C       0.4465   0.1799   0.0945     C
C       0.4465   0.1799   0.4055     C
C       0.4465   0.2666   0.5945     C
C       0.4465   0.2666   0.9055     C
C       0.4514   0.6685   0.1662     C
C       0.4514   0.6685   0.3338     C
C       0.4514   0.7829   0.6662     C
C       0.4514   0.7829   0.8338     C
O      0.46359  0.72729   0.1858     O
O      0.46359  0.72729   0.3142     O
O      0.46359   0.7363   0.6858     O
O      0.46359   0.7363   0.8142     O
N       0.4783   0.0846   0.0387     N
N       0.4783   0.0846   0.4613     N
N       0.4783   0.3937   0.5387     N
N       0.4783   0.3937   0.9613     N
C       0.4828   0.6088   0.0857     C
C       0.4828   0.6088   0.4143     C
C       0.4828    0.874   0.5857     C
C       0.4828    0.874   0.9143     C
C       0.4964     0.67   0.1139     C
C       0.4964     0.67   0.3861     C
C       0.4964   0.8264   0.6139     C
C       0.4964   0.8264   0.8861     C
Mn         0.5      0.0      0.0    Mn
Mn         0.5      0.0      0.5    Mn
Mn         0.5      0.5      0.0    Mn
Mn         0.5      0.5      0.5    Mn
C       0.5036   0.1736   0.1139     C
C       0.5036   0.1736   0.3861     C
C       0.5036     0.33   0.6139     C
C       0.5036     0.33   0.8861     C
C       0.5172    0.126   0.0857     C
C       0.5172    0.126   0.4143     C
C       0.5172   0.3912   0.5857     C
C       0.5172   0.3912   0.9143     C
N       0.5217   0.6063   0.0387     N
N       0.5217   0.6063   0.4613     N
N       0.5217   0.9154   0.5387     N
N       0.5217   0.9154   0.9613     N
O      0.53641   0.2637   0.1858     O
O      0.53641   0.2637   0.3142     O
O      0.53641  0.27271   0.6858     O
O      0.53641  0.27271   0.8142     O
C       0.5486   0.2171   0.1662     C
C       0.5486   0.2171   0.3338     C
C       0.5486   0.3315   0.6662     C
C       0.5486   0.3315   0.8338     C
C       0.5535   0.7334   0.0945     C
C       0.5535   0.7334   0.4055     C
C       0.5535   0.8201   0.5945     C
C       0.5535   0.8201   0.9055     C
H       0.5557   0.1219   0.0999     H
H       0.5557   0.1219   0.4001     H
H       0.5557   0.4338   0.5999     H
H       0.5557   0.4338   0.9001     H
Cl     0.55939      0.0  0.09714    Cl
Cl     0.55939      0.0  0.40286    Cl
Cl     0.55939  0.55939  0.59714    Cl
Cl     0.55939  0.55939  0.90286    Cl
H       0.5642   0.7765   0.1134     H
H       0.5642   0.7765   0.3866     H
H       0.5642   0.7877   0.6134     H
H       0.5642   0.7877   0.8866     H
H       0.5662   0.1219   0.5999     H
H       0.5662   0.1219   0.9001     H
H       0.5662   0.4443   0.0999     H
H       0.5662   0.4443   0.4001     H
C       0.5771   0.6678   0.0212     C
C       0.5771   0.6678   0.4788     C
C       0.5771   0.9093   0.5212     C
C       0.5771   0.9093   0.9788     C
Cr     0.58089  0.24606     0.75    Cr
Cr     0.58089  0.33483     0.25    Cr
O      0.59406  0.20389  0.18512     O
O      0.59406  0.20389  0.31488     O
O      0.59406  0.39017  0.68512     O
O      0.59406  0.39017  0.81488     O
C       0.5942   0.7313   0.0467     C
C       0.5942   0.7313   0.4533     C
C       0.5942   0.8629   0.5467     C
C       0.5942   0.8629   0.9533     C
H       0.6061   0.6672   0.5108     H
H       0.6061   0.6672   0.9892     H
H       0.6061   0.9389   0.0108     H
H       0.6061   0.9389   0.4892     H
N       0.6063   0.0846   0.5387     N
N       0.6063   0.0846   0.9613     N
N       0.6063   0.5217   0.0387     N
N       0.6063   0.5217   0.4613     N
C       0.6088    0.126   0.5857     C
C       0.6088    0.126   0.9143     C
C       0.6088   0.4828   0.0857     C
C       0.6088   0.4828   0.4143     C
O      0.60983  0.20389  0.68512     O
O      0.60983  0.20389  0.81488     O
O      0.60983  0.40594  0.18512     O
O      0.60983  0.40594  0.31488     O
H       0.6333   0.7732   0.0319     H
H       0.6333   0.7732   0.4681     H
H       0.6333   0.8601   0.5319     H
H       0.6333   0.8601   0.9681     H
Cr     0.66517  0.24606     0.25    Cr
Cr     0.66517  0.41911     0.75    Cr
O      0.66667  0.33333     0.25     O
O      0.66667  0.33333     0.75     O
H       0.6672   0.0611   0.0108     H
H       0.6672   0.0611   0.4892     H
H       0.6672   0.6061   0.5108     H
H       0.6672   0.6061   0.9892     H
C       0.6678   0.0907   0.5212     C
C       0.6678   0.0907   0.9788     C
C       0.6678   0.5771   0.0212     C
C       0.6678   0.5771   0.4788     C
C       0.6685   0.2171   0.6662     C
C       0.6685   0.2171   0.8338     C
C       0.6685   0.4514   0.1662     C
C       0.6685   0.4514   0.3338     C
C         0.67   0.1736   0.6139     C
C         0.67   0.1736   0.8861     C
C         0.67   0.4964   0.1139     C
C         0.67   0.4964   0.3861     C
O      0.72729   0.2637   0.6858     O
O      0.72729   0.2637   0.8142     O
O      0.72729  0.46359   0.1858     O
O      0.72729  0.46359   0.3142     O
C       0.7313   0.1371   0.5467     C
C       0.7313   0.1371   0.9533     C
C       0.7313   0.5942   0.0467     C
C       0.7313   0.5942   0.4533     C
C       0.7334   0.1799   0.5945     C
C       0.7334   0.1799   0.9055     C
C       0.7334   0.5535   0.0945     C
C       0.7334   0.5535   0.4055     C
O       0.7363  0.27271   0.1858     O
O       0.7363  0.27271   0.3142     O
O       0.7363  0.46359   0.6858     O
O       0.7363  0.46359   0.8142     O
Cr     0.75394  0.33483     0.75    Cr
Cr     0.75394  0.41911     0.25    Cr
H       0.7732   0.1399   0.5319     H
H       0.7732   0.1399   0.9681     H
H       0.7732   0.6333   0.0319     H
H       0.7732   0.6333   0.4681     H
H       0.7765   0.2123   0.6134     H
H       0.7765   0.2123   0.8866     H
H       0.7765   0.5642   0.1134     H
H       0.7765   0.5642   0.3866     H
C       0.7829   0.3315   0.1662     C
C       0.7829   0.3315   0.3338     C
C       0.7829   0.4514   0.6662     C
C       0.7829   0.4514   0.8338     C
H       0.7877   0.2235   0.1134     H
H       0.7877   0.2235   0.3866     H
H       0.7877   0.5642   0.6134     H
H       0.7877   0.5642   0.8866     H
O      0.79611  0.39017  0.18512     O
O      0.79611  0.39017  0.31488     O
O      0.79611  0.40594  0.68512     O
O      0.79611  0.40594  0.81488     O
C       0.8201   0.2666   0.0945     C
C       0.8201   0.2666   0.4055     C
C       0.8201   0.5535   0.5945     C
C       0.8201   0.5535   0.9055     C
C       0.8264     0.33   0.1139     C
C       0.8264     0.33   0.3861     C
C       0.8264   0.4964   0.6139     C
C       0.8264   0.4964   0.8861     C
H       0.8601   0.2268   0.0319     H
H       0.8601   0.2268   0.4681     H
H       0.8601   0.6333   0.5319     H
H       0.8601   0.6333   0.9681     H
C       0.8629   0.2687   0.0467     C
C       0.8629   0.2687   0.4533     C
C       0.8629   0.5942   0.5467     C
C       0.8629   0.5942   0.9533     C
C        0.874   0.3912   0.0857     C
C        0.874   0.3912   0.4143     C
C        0.874   0.4828   0.5857     C
C        0.874   0.4828   0.9143     C
H       0.8781   0.4338   0.0999     H
H       0.8781   0.4338   0.4001     H
H       0.8781   0.4443   0.5999     H
H       0.8781   0.4443   0.9001     H
C       0.9093   0.3322   0.0212     C
C       0.9093   0.3322   0.4788     C
C       0.9093   0.5771   0.5212     C
C       0.9093   0.5771   0.9788     C
N       0.9154   0.3937   0.0387     N
N       0.9154   0.3937   0.4613     N
N       0.9154   0.5217   0.5387     N
N       0.9154   0.5217   0.9613     N
H       0.9389   0.3328   0.5108     H
H       0.9389   0.3328   0.9892     H
H       0.9389   0.6061   0.0108     H
H       0.9389   0.6061   0.4892     H
