data_I
_chemical_name_common  '/home/zhangsd/repos/MofS-CGCNN/ML/data/TSD/clean_cifs/OYERUH_clean'
_cell_length_a 23.75100
_cell_length_b 30.60700
_cell_length_c 23.76400
_cell_angle_alpha 90.00000
_cell_angle_beta  90.00000
_cell_angle_gamma 90.00000
_space_group_name_H-M_alt      'P 1'


loop_
_space_group_symop_operation_xyz
  'x, y, z' 

loop_
_atom_site_label
_atom_site_fract_x
_atom_site_fract_y
_atom_site_fract_z
_atom_site_type_symbol
Cd         0.0      0.0      0.0    Cd
Cd         0.0      0.0      0.5    Cd
Cd         0.0      0.5      0.0    Cd
Cd         0.0      0.5      0.5    Cd
C        0.001   0.0945   0.8433     C
C        0.001   0.4055   0.6567     C
C        0.001   0.5945   0.1567     C
C        0.001   0.9055   0.3433     C
C       0.0114   0.0725   0.8926     C
C       0.0114   0.4275   0.6074     C
C       0.0114   0.5725   0.1074     C
C       0.0114   0.9275   0.3926     C
N       0.0234   0.0426   0.5827     N
N       0.0234   0.4574   0.9173     N
N       0.0234   0.5426   0.4173     N
N       0.0234   0.9574   0.0827     N
H       0.0265   0.1154   0.8282     H
H       0.0265   0.3846   0.6718     H
H       0.0265   0.6154   0.1718     H
H       0.0265   0.8846   0.3282     H
H       0.0312   0.1004   0.4694     H
H       0.0312   0.3996   0.0306     H
H       0.0312   0.6004   0.5306     H
H       0.0312   0.8996   0.9694     H
H       0.0459   0.0786   0.9112     H
H       0.0459   0.4214   0.5888     H
H       0.0459   0.5786   0.0888     H
H       0.0459   0.9214   0.4112     H
C       0.0502   0.0837    0.683     C
C       0.0502   0.4163    0.817     C
C       0.0502   0.5837    0.317     C
C       0.0502   0.9163    0.183     C
Cl      0.0543   0.2174   0.3009    Cl
Cl      0.0543   0.2826   0.1991    Cl
Cl      0.0543   0.7174   0.6991    Cl
Cl      0.0543   0.7826   0.8009    Cl
C       0.0574   0.0875   0.4441     C
C       0.0574   0.4125   0.0559     C
C       0.0574   0.5875   0.5559     C
C       0.0574   0.9125   0.9441     C
N       0.0584    0.043    0.445     N
N       0.0584    0.457    0.055     N
N       0.0584    0.543    0.555     N
N       0.0584    0.957    0.945     N
H       0.0605   0.0974   0.7174     H
H       0.0605   0.4026   0.7826     H
H       0.0605   0.5974   0.2826     H
H       0.0605   0.9026   0.2174     H
H       0.0692   0.2085   0.1365     H
H       0.0692   0.2915   0.3635     H
H       0.0692   0.7085   0.8635     H
H       0.0692   0.7915   0.6365     H
C       0.0713   0.0337   0.6087     C
C       0.0713   0.4663   0.8913     C
C       0.0713   0.5337   0.3913     C
C       0.0713   0.9663   0.1087     C
H       0.0785   0.1471   0.0785     H
H       0.0785   0.3529   0.4215     H
H       0.0785   0.6471   0.9215     H
H       0.0785   0.8529   0.5785     H
H       0.0812   0.1468   0.4145     H
H       0.0812   0.3532   0.0855     H
H       0.0812   0.6468   0.5855     H
H       0.0812   0.8532   0.9145     H
Cl     0.08392   0.0506  0.01642    Cl
Cl     0.08392   0.4494  0.48358    Cl
Cl     0.08392   0.5506  0.98358    Cl
Cl     0.08392   0.9494  0.51642    Cl
C        0.085   0.0534    0.659     C
C        0.085   0.4466    0.841     C
C        0.085   0.5534    0.341     C
C        0.085   0.9466    0.159     C
C       0.0877   0.1162   0.4131     C
C       0.0877   0.3838   0.0869     C
C       0.0877   0.6162   0.5869     C
C       0.0877   0.8838   0.9131     C
C       0.0959   0.1865   0.1455     C
C       0.0959   0.3135   0.3545     C
C       0.0959   0.6865   0.8545     C
C       0.0959   0.8135   0.6455     C
H       0.0967   0.0134   0.5924     H
H       0.0967   0.4866   0.9076     H
H       0.0967   0.5134   0.4076     H
H       0.0967   0.9866   0.0924     H
C       0.0989   0.0229   0.4124     C
C       0.0989   0.4771   0.0876     C
C       0.0989   0.5229   0.5876     C
C       0.0989   0.9771   0.9124     C
C       0.1015     0.15   0.1111     C
C       0.1015     0.35   0.3889     C
C       0.1015     0.65   0.8889     C
C       0.1015     0.85   0.6111     C
H       0.1035   0.0079   0.9127     H
H       0.1035   0.4921   0.5873     H
H       0.1035   0.5079   0.0873     H
H       0.1035   0.9921   0.4127     H
Cl      0.1246    0.206   0.3326    Cl
Cl      0.1246    0.294   0.1674    Cl
Cl      0.1246    0.706   0.6674    Cl
Cl      0.1246    0.794   0.8326    Cl
C       0.1284   0.0981   0.3795     C
C       0.1284   0.4019   0.1205     C
C       0.1284   0.5981   0.6205     C
C       0.1284   0.9019   0.8795     C
N       0.1295   0.1907   0.1931     N
N       0.1295   0.3093   0.3069     N
N       0.1295   0.6907   0.8069     N
N       0.1295   0.8093   0.6931     N
Cd      0.1305     0.25     0.25    Cd
Cd      0.1305     0.75     0.75    Cd
C       0.1335   0.0499   0.3787     C
C       0.1335   0.4501   0.1213     C
C       0.1335   0.5499   0.6213     C
C       0.1335   0.9501   0.8787     C
C       0.1392   0.0423   0.6841     C
C       0.1392   0.4577   0.8159     C
C       0.1392   0.5423   0.3159     C
C       0.1392   0.9577   0.1841     C
C       0.1406   0.1178   0.1243     C
C       0.1406   0.3822   0.3757     C
C       0.1406   0.6178   0.8757     C
C       0.1406   0.8822   0.6243     C
H       0.1443   0.0929   0.1007     H
H       0.1443   0.4071   0.3993     H
H       0.1443   0.5929   0.8993     H
H       0.1443   0.9071   0.6007     H
O       0.1495   0.0539   0.7335     O
O       0.1495   0.4461   0.7665     O
O       0.1495   0.5539   0.2665     O
O       0.1495   0.9461   0.2335     O
H       0.1526   0.1159   0.3575     H
H       0.1526   0.3841   0.1425     H
H       0.1526   0.6159   0.6425     H
H       0.1526   0.8841   0.8575     H
C       0.1686   0.1585   0.2063     C
C       0.1686   0.3415   0.2937     C
C       0.1686   0.6585   0.7937     C
C       0.1686   0.8415   0.7063     C
O       0.1719   0.0111   0.8314     O
O       0.1719   0.4889   0.6686     O
O       0.1719   0.5111   0.1686     O
O       0.1719   0.9889   0.3314     O
C       0.1741    0.122   0.1719     C
C       0.1741    0.378   0.3281     C
C       0.1741    0.622   0.8281     C
C       0.1741    0.878   0.6719     C
O        0.175   0.0235   0.6531     O
O        0.175   0.4765   0.8469     O
O        0.175   0.5235   0.3469     O
O        0.175   0.9765   0.1531     O
C       0.1785   0.0272   0.3431     C
C       0.1785   0.4728   0.1569     C
C       0.1785   0.5272   0.6569     C
C       0.1785   0.9728   0.8431     C
H       0.1915   0.1614   0.2388     H
H       0.1915   0.3386   0.2612     H
H       0.1915   0.6614   0.7612     H
H       0.1915   0.8386   0.7388     H
C       0.2144   0.0894   0.1884     C
C       0.2144   0.4106   0.3116     C
C       0.2144   0.5894   0.8116     C
C       0.2144   0.9106   0.6884     C
Cr     0.21754  0.04779  0.78013    Cr
Cr     0.21754  0.45221  0.71987    Cr
Cr     0.21754  0.54779  0.21987    Cr
Cr     0.21754  0.95221  0.28013    Cr
O       0.2178   0.0567   0.1559     O
O       0.2178   0.4433   0.3441     O
O       0.2178   0.5567   0.8441     O
O       0.2178   0.9433   0.6559     O
O       0.2191   0.0526   0.3338     O
O       0.2191   0.4474   0.1662     O
O       0.2191   0.5526   0.6662     O
O       0.2191   0.9474   0.8338     O
Cl      0.2314   0.2345   0.2863    Cl
Cl      0.2314   0.2655   0.2137    Cl
Cl      0.2314   0.7345   0.7137    Cl
Cl      0.2314   0.7655   0.7863    Cl
O        0.241   0.0919    0.235     O
O        0.241   0.4081    0.265     O
O        0.241   0.5919    0.765     O
O        0.241   0.9081    0.735     O
Cr        0.25      0.0  0.16102    Cr
O         0.25      0.0   0.2426     O
Cr        0.25      0.0  0.66102    Cr
O         0.25      0.0   0.7426     O
O         0.25      0.5   0.2574     O
Cr        0.25      0.5  0.33898    Cr
O         0.25      0.5   0.7574     O
Cr        0.25      0.5  0.83898    Cr
O        0.259   0.0919    0.735     O
O        0.259   0.4081    0.765     O
O        0.259   0.5919    0.265     O
O        0.259   0.9081    0.235     O
Cl      0.2686   0.2345   0.7863    Cl
Cl      0.2686   0.2655   0.7137    Cl
Cl      0.2686   0.7345   0.2137    Cl
Cl      0.2686   0.7655   0.2863    Cl
O       0.2809   0.0526   0.8338     O
O       0.2809   0.4474   0.6662     O
O       0.2809   0.5526   0.1662     O
O       0.2809   0.9474   0.3338     O
O       0.2822   0.0567   0.6559     O
O       0.2822   0.4433   0.8441     O
O       0.2822   0.5567   0.3441     O
O       0.2822   0.9433   0.1559     O
Cr     0.28246  0.04779  0.28013    Cr
Cr     0.28246  0.45221  0.21987    Cr
Cr     0.28246  0.54779  0.71987    Cr
Cr     0.28246  0.95221  0.78013    Cr
C       0.2856   0.0894   0.6884     C
C       0.2856   0.4106   0.8116     C
C       0.2856   0.5894   0.3116     C
C       0.2856   0.9106   0.1884     C
H       0.3085   0.1614   0.7388     H
H       0.3085   0.3386   0.7612     H
H       0.3085   0.6614   0.2612     H
H       0.3085   0.8386   0.2388     H
C       0.3215   0.0272   0.8431     C
C       0.3215   0.4728   0.6569     C
C       0.3215   0.5272   0.1569     C
C       0.3215   0.9728   0.3431     C
O        0.325   0.0235   0.1531     O
O        0.325   0.4765   0.3469     O
O        0.325   0.5235   0.8469     O
O        0.325   0.9765   0.6531     O
C       0.3259    0.122   0.6719     C
C       0.3259    0.378   0.8281     C
C       0.3259    0.622   0.3281     C
C       0.3259    0.878   0.1719     C
O       0.3281   0.0111   0.3314     O
O       0.3281   0.4889   0.1686     O
O       0.3281   0.5111   0.6686     O
O       0.3281   0.9889   0.8314     O
C       0.3314   0.1585   0.7063     C
C       0.3314   0.3415   0.7937     C
C       0.3314   0.6585   0.2937     C
C       0.3314   0.8415   0.2063     C
H       0.3474   0.1159   0.8575     H
H       0.3474   0.3841   0.6425     H
H       0.3474   0.6159   0.1425     H
H       0.3474   0.8841   0.3575     H
O       0.3505   0.0539   0.2335     O
O       0.3505   0.4461   0.2665     O
O       0.3505   0.5539   0.7665     O
O       0.3505   0.9461   0.7335     O
H       0.3557   0.0929   0.6007     H
H       0.3557   0.4071   0.8993     H
H       0.3557   0.5929   0.3993     H
H       0.3557   0.9071   0.1007     H
C       0.3594   0.1178   0.6243     C
C       0.3594   0.3822   0.8757     C
C       0.3594   0.6178   0.3757     C
C       0.3594   0.8822   0.1243     C
C       0.3608   0.0423   0.1841     C
C       0.3608   0.4577   0.3159     C
C       0.3608   0.5423   0.8159     C
C       0.3608   0.9577   0.6841     C
C       0.3665   0.0499   0.8787     C
C       0.3665   0.4501   0.6213     C
C       0.3665   0.5499   0.1213     C
C       0.3665   0.9501   0.3787     C
Cd      0.3695     0.25     0.75    Cd
Cd      0.3695     0.75     0.25    Cd
N       0.3705   0.1907   0.6931     N
N       0.3705   0.3093   0.8069     N
N       0.3705   0.6907   0.3069     N
N       0.3705   0.8093   0.1931     N
C       0.3716   0.0981   0.8795     C
C       0.3716   0.4019   0.6205     C
C       0.3716   0.5981   0.1205     C
C       0.3716   0.9019   0.3795     C
Cl      0.3754    0.206   0.8326    Cl
Cl      0.3754    0.294   0.6674    Cl
Cl      0.3754    0.706   0.1674    Cl
Cl      0.3754    0.794   0.3326    Cl
H       0.3965   0.0079   0.4127     H
H       0.3965   0.4921   0.0873     H
H       0.3965   0.5079   0.5873     H
H       0.3965   0.9921   0.9127     H
C       0.3985     0.15   0.6111     C
C       0.3985     0.35   0.8889     C
C       0.3985     0.65   0.3889     C
C       0.3985     0.85   0.1111     C
C       0.4011   0.0229   0.9124     C
C       0.4011   0.4771   0.5876     C
C       0.4011   0.5229   0.0876     C
C       0.4011   0.9771   0.4124     C
H       0.4033   0.0134   0.0924     H
H       0.4033   0.4866   0.4076     H
H       0.4033   0.5134   0.9076     H
H       0.4033   0.9866   0.5924     H
C       0.4041   0.1865   0.6455     C
C       0.4041   0.3135   0.8545     C
C       0.4041   0.6865   0.3545     C
C       0.4041   0.8135   0.1455     C
C       0.4123   0.1162   0.9131     C
C       0.4123   0.3838   0.5869     C
C       0.4123   0.6162   0.0869     C
C       0.4123   0.8838   0.4131     C
C        0.415   0.0534    0.159     C
C        0.415   0.4466    0.341     C
C        0.415   0.5534    0.841     C
C        0.415   0.9466    0.659     C
Cl     0.41608   0.0506  0.51642    Cl
Cl     0.41608   0.4494  0.98358    Cl
Cl     0.41608   0.5506  0.48358    Cl
Cl     0.41608   0.9494  0.01642    Cl
H       0.4188   0.1468   0.9145     H
H       0.4188   0.3532   0.5855     H
H       0.4188   0.6468   0.0855     H
H       0.4188   0.8532   0.4145     H
H       0.4215   0.1471   0.5785     H
H       0.4215   0.3529   0.9215     H
H       0.4215   0.6471   0.4215     H
H       0.4215   0.8529   0.0785     H
C       0.4287   0.0337   0.1087     C
C       0.4287   0.4663   0.3913     C
C       0.4287   0.5337   0.8913     C
C       0.4287   0.9663   0.6087     C
H       0.4308   0.2085   0.6365     H
H       0.4308   0.2915   0.8635     H
H       0.4308   0.7085   0.3635     H
H       0.4308   0.7915   0.1365     H
H       0.4395   0.0974   0.2174     H
H       0.4395   0.4026   0.2826     H
H       0.4395   0.5974   0.7826     H
H       0.4395   0.9026   0.7174     H
N       0.4416    0.043    0.945     N
N       0.4416    0.457    0.555     N
N       0.4416    0.543    0.055     N
N       0.4416    0.957    0.445     N
C       0.4426   0.0875   0.9441     C
C       0.4426   0.4125   0.5559     C
C       0.4426   0.5875   0.0559     C
C       0.4426   0.9125   0.4441     C
Cl      0.4457   0.2174   0.8009    Cl
Cl      0.4457   0.2826   0.6991    Cl
Cl      0.4457   0.7174   0.1991    Cl
Cl      0.4457   0.7826   0.3009    Cl
C       0.4498   0.0837    0.183     C
C       0.4498   0.4163    0.317     C
C       0.4498   0.5837    0.817     C
C       0.4498   0.9163    0.683     C
H       0.4541   0.0786   0.4112     H
H       0.4541   0.4214   0.0888     H
H       0.4541   0.5786   0.5888     H
H       0.4541   0.9214   0.9112     H
H       0.4688   0.1004   0.9694     H
H       0.4688   0.3996   0.5306     H
H       0.4688   0.6004   0.0306     H
H       0.4688   0.8996   0.4694     H
H       0.4735   0.1154   0.3282     H
H       0.4735   0.3846   0.1718     H
H       0.4735   0.6154   0.6718     H
H       0.4735   0.8846   0.8282     H
N       0.4766   0.0426   0.0827     N
N       0.4766   0.4574   0.4173     N
N       0.4766   0.5426   0.9173     N
N       0.4766   0.9574   0.5827     N
C       0.4886   0.0725   0.3926     C
C       0.4886   0.4275   0.1074     C
C       0.4886   0.5725   0.6074     C
C       0.4886   0.9275   0.8926     C
C        0.499   0.0945   0.3433     C
C        0.499   0.4055   0.1567     C
C        0.499   0.5945   0.6567     C
C        0.499   0.9055   0.8433     C
Cd         0.5      0.0      0.0    Cd
Cd         0.5      0.0      0.5    Cd
Cd         0.5      0.5      0.0    Cd
Cd         0.5      0.5      0.5    Cd
C        0.501   0.0945   0.1567     C
C        0.501   0.4055   0.3433     C
C        0.501   0.5945   0.8433     C
C        0.501   0.9055   0.6567     C
C       0.5114   0.0725   0.1074     C
C       0.5114   0.4275   0.3926     C
C       0.5114   0.5725   0.8926     C
C       0.5114   0.9275   0.6074     C
N       0.5234   0.0426   0.4173     N
N       0.5234   0.4574   0.0827     N
N       0.5234   0.5426   0.5827     N
N       0.5234   0.9574   0.9173     N
H       0.5265   0.1154   0.1718     H
H       0.5265   0.3846   0.3282     H
H       0.5265   0.6154   0.8282     H
H       0.5265   0.8846   0.6718     H
H       0.5312   0.1004   0.5306     H
H       0.5312   0.3996   0.9694     H
H       0.5312   0.6004   0.4694     H
H       0.5312   0.8996   0.0306     H
H       0.5459   0.0786   0.0888     H
H       0.5459   0.4214   0.4112     H
H       0.5459   0.5786   0.9112     H
H       0.5459   0.9214   0.5888     H
C       0.5502   0.0837    0.317     C
C       0.5502   0.4163    0.183     C
C       0.5502   0.5837    0.683     C
C       0.5502   0.9163    0.817     C
Cl      0.5543   0.2174   0.6991    Cl
Cl      0.5543   0.2826   0.8009    Cl
Cl      0.5543   0.7174   0.3009    Cl
Cl      0.5543   0.7826   0.1991    Cl
C       0.5574   0.0875   0.5559     C
C       0.5574   0.4125   0.9441     C
C       0.5574   0.5875   0.4441     C
C       0.5574   0.9125   0.0559     C
N       0.5584    0.043    0.555     N
N       0.5584    0.457    0.945     N
N       0.5584    0.543    0.445     N
N       0.5584    0.957    0.055     N
H       0.5605   0.0974   0.2826     H
H       0.5605   0.4026   0.2174     H
H       0.5605   0.5974   0.7174     H
H       0.5605   0.9026   0.7826     H
H       0.5692   0.2085   0.8635     H
H       0.5692   0.2915   0.6365     H
H       0.5692   0.7085   0.1365     H
H       0.5692   0.7915   0.3635     H
C       0.5713   0.0337   0.3913     C
C       0.5713   0.4663   0.1087     C
C       0.5713   0.5337   0.6087     C
C       0.5713   0.9663   0.8913     C
H       0.5785   0.1471   0.9215     H
H       0.5785   0.3529   0.5785     H
H       0.5785   0.6471   0.0785     H
H       0.5785   0.8529   0.4215     H
H       0.5812   0.1468   0.5855     H
H       0.5812   0.3532   0.9145     H
H       0.5812   0.6468   0.4145     H
H       0.5812   0.8532   0.0855     H
Cl     0.58392   0.0506  0.98358    Cl
Cl     0.58392   0.4494  0.51642    Cl
Cl     0.58392   0.5506  0.01642    Cl
Cl     0.58392   0.9494  0.48358    Cl
C        0.585   0.0534    0.341     C
C        0.585   0.4466    0.159     C
C        0.585   0.5534    0.659     C
C        0.585   0.9466    0.841     C
C       0.5877   0.1162   0.5869     C
C       0.5877   0.3838   0.9131     C
C       0.5877   0.6162   0.4131     C
C       0.5877   0.8838   0.0869     C
C       0.5959   0.1865   0.8545     C
C       0.5959   0.3135   0.6455     C
C       0.5959   0.6865   0.1455     C
C       0.5959   0.8135   0.3545     C
H       0.5967   0.0134   0.4076     H
H       0.5967   0.4866   0.0924     H
H       0.5967   0.5134   0.5924     H
H       0.5967   0.9866   0.9076     H
C       0.5989   0.0229   0.5876     C
C       0.5989   0.4771   0.9124     C
C       0.5989   0.5229   0.4124     C
C       0.5989   0.9771   0.0876     C
C       0.6015     0.15   0.8889     C
C       0.6015     0.35   0.6111     C
C       0.6015     0.65   0.1111     C
C       0.6015     0.85   0.3889     C
H       0.6035   0.0079   0.0873     H
H       0.6035   0.4921   0.4127     H
H       0.6035   0.5079   0.9127     H
H       0.6035   0.9921   0.5873     H
Cl      0.6246    0.206   0.6674    Cl
Cl      0.6246    0.294   0.8326    Cl
Cl      0.6246    0.706   0.3326    Cl
Cl      0.6246    0.794   0.1674    Cl
C       0.6284   0.0981   0.6205     C
C       0.6284   0.4019   0.8795     C
C       0.6284   0.5981   0.3795     C
C       0.6284   0.9019   0.1205     C
N       0.6295   0.1907   0.8069     N
N       0.6295   0.3093   0.6931     N
N       0.6295   0.6907   0.1931     N
N       0.6295   0.8093   0.3069     N
Cd      0.6305     0.25     0.75    Cd
Cd      0.6305     0.75     0.25    Cd
C       0.6335   0.0499   0.6213     C
C       0.6335   0.4501   0.8787     C
C       0.6335   0.5499   0.3787     C
C       0.6335   0.9501   0.1213     C
C       0.6392   0.0423   0.3159     C
C       0.6392   0.4577   0.1841     C
C       0.6392   0.5423   0.6841     C
C       0.6392   0.9577   0.8159     C
C       0.6406   0.1178   0.8757     C
C       0.6406   0.3822   0.6243     C
C       0.6406   0.6178   0.1243     C
C       0.6406   0.8822   0.3757     C
H       0.6443   0.0929   0.8993     H
H       0.6443   0.4071   0.6007     H
H       0.6443   0.5929   0.1007     H
H       0.6443   0.9071   0.3993     H
O       0.6495   0.0539   0.2665     O
O       0.6495   0.4461   0.2335     O
O       0.6495   0.5539   0.7335     O
O       0.6495   0.9461   0.7665     O
H       0.6526   0.1159   0.6425     H
H       0.6526   0.3841   0.8575     H
H       0.6526   0.6159   0.3575     H
H       0.6526   0.8841   0.1425     H
C       0.6686   0.1585   0.7937     C
C       0.6686   0.3415   0.7063     C
C       0.6686   0.6585   0.2063     C
C       0.6686   0.8415   0.2937     C
O       0.6719   0.0111   0.1686     O
O       0.6719   0.4889   0.3314     O
O       0.6719   0.5111   0.8314     O
O       0.6719   0.9889   0.6686     O
C       0.6741    0.122   0.8281     C
C       0.6741    0.378   0.6719     C
C       0.6741    0.622   0.1719     C
C       0.6741    0.878   0.3281     C
O        0.675   0.0235   0.3469     O
O        0.675   0.4765   0.1531     O
O        0.675   0.5235   0.6531     O
O        0.675   0.9765   0.8469     O
C       0.6785   0.0272   0.6569     C
C       0.6785   0.4728   0.8431     C
C       0.6785   0.5272   0.3431     C
C       0.6785   0.9728   0.1569     C
H       0.6915   0.1614   0.7612     H
H       0.6915   0.3386   0.7388     H
H       0.6915   0.6614   0.2388     H
H       0.6915   0.8386   0.2612     H
C       0.7144   0.0894   0.8116     C
C       0.7144   0.4106   0.6884     C
C       0.7144   0.5894   0.1884     C
C       0.7144   0.9106   0.3116     C
Cr     0.71754  0.04779  0.21987    Cr
Cr     0.71754  0.45221  0.28013    Cr
Cr     0.71754  0.54779  0.78013    Cr
Cr     0.71754  0.95221  0.71987    Cr
O       0.7178   0.0567   0.8441     O
O       0.7178   0.4433   0.6559     O
O       0.7178   0.5567   0.1559     O
O       0.7178   0.9433   0.3441     O
O       0.7191   0.0526   0.6662     O
O       0.7191   0.4474   0.8338     O
O       0.7191   0.5526   0.3338     O
O       0.7191   0.9474   0.1662     O
Cl      0.7314   0.2345   0.7137    Cl
Cl      0.7314   0.2655   0.7863    Cl
Cl      0.7314   0.7345   0.2863    Cl
Cl      0.7314   0.7655   0.2137    Cl
O        0.741   0.0919    0.765     O
O        0.741   0.4081    0.735     O
O        0.741   0.5919    0.235     O
O        0.741   0.9081    0.265     O
O         0.75      0.0   0.2574     O
Cr        0.75      0.0  0.33898    Cr
O         0.75      0.0   0.7574     O
Cr        0.75      0.0  0.83898    Cr
Cr        0.75      0.5  0.16102    Cr
O         0.75      0.5   0.2426     O
Cr        0.75      0.5  0.66102    Cr
O         0.75      0.5   0.7426     O
O        0.759   0.0919    0.265     O
O        0.759   0.4081    0.235     O
O        0.759   0.5919    0.735     O
O        0.759   0.9081    0.765     O
Cl      0.7686   0.2345   0.2137    Cl
Cl      0.7686   0.2655   0.2863    Cl
Cl      0.7686   0.7345   0.7863    Cl
Cl      0.7686   0.7655   0.7137    Cl
O       0.7809   0.0526   0.1662     O
O       0.7809   0.4474   0.3338     O
O       0.7809   0.5526   0.8338     O
O       0.7809   0.9474   0.6662     O
O       0.7822   0.0567   0.3441     O
O       0.7822   0.4433   0.1559     O
O       0.7822   0.5567   0.6559     O
O       0.7822   0.9433   0.8441     O
Cr     0.78246  0.04779  0.71987    Cr
Cr     0.78246  0.45221  0.78013    Cr
Cr     0.78246  0.54779  0.28013    Cr
Cr     0.78246  0.95221  0.21987    Cr
C       0.7856   0.0894   0.3116     C
C       0.7856   0.4106   0.1884     C
C       0.7856   0.5894   0.6884     C
C       0.7856   0.9106   0.8116     C
H       0.8085   0.1614   0.2612     H
H       0.8085   0.3386   0.2388     H
H       0.8085   0.6614   0.7388     H
H       0.8085   0.8386   0.7612     H
C       0.8215   0.0272   0.1569     C
C       0.8215   0.4728   0.3431     C
C       0.8215   0.5272   0.8431     C
C       0.8215   0.9728   0.6569     C
O        0.825   0.0235   0.8469     O
O        0.825   0.4765   0.6531     O
O        0.825   0.5235   0.1531     O
O        0.825   0.9765   0.3469     O
C       0.8259    0.122   0.3281     C
C       0.8259    0.378   0.1719     C
C       0.8259    0.622   0.6719     C
C       0.8259    0.878   0.8281     C
O       0.8281   0.0111   0.6686     O
O       0.8281   0.4889   0.8314     O
O       0.8281   0.5111   0.3314     O
O       0.8281   0.9889   0.1686     O
C       0.8314   0.1585   0.2937     C
C       0.8314   0.3415   0.2063     C
C       0.8314   0.6585   0.7063     C
C       0.8314   0.8415   0.7937     C
H       0.8474   0.1159   0.1425     H
H       0.8474   0.3841   0.3575     H
H       0.8474   0.6159   0.8575     H
H       0.8474   0.8841   0.6425     H
O       0.8505   0.0539   0.7665     O
O       0.8505   0.4461   0.7335     O
O       0.8505   0.5539   0.2335     O
O       0.8505   0.9461   0.2665     O
H       0.8557   0.0929   0.3993     H
H       0.8557   0.4071   0.1007     H
H       0.8557   0.5929   0.6007     H
H       0.8557   0.9071   0.8993     H
C       0.8594   0.1178   0.3757     C
C       0.8594   0.3822   0.1243     C
C       0.8594   0.6178   0.6243     C
C       0.8594   0.8822   0.8757     C
C       0.8608   0.0423   0.8159     C
C       0.8608   0.4577   0.6841     C
C       0.8608   0.5423   0.1841     C
C       0.8608   0.9577   0.3159     C
C       0.8665   0.0499   0.1213     C
C       0.8665   0.4501   0.3787     C
C       0.8665   0.5499   0.8787     C
C       0.8665   0.9501   0.6213     C
Cd      0.8695     0.25     0.25    Cd
Cd      0.8695     0.75     0.75    Cd
N       0.8705   0.1907   0.3069     N
N       0.8705   0.3093   0.1931     N
N       0.8705   0.6907   0.6931     N
N       0.8705   0.8093   0.8069     N
C       0.8716   0.0981   0.1205     C
C       0.8716   0.4019   0.3795     C
C       0.8716   0.5981   0.8795     C
C       0.8716   0.9019   0.6205     C
Cl      0.8754    0.206   0.1674    Cl
Cl      0.8754    0.294   0.3326    Cl
Cl      0.8754    0.706   0.8326    Cl
Cl      0.8754    0.794   0.6674    Cl
H       0.8965   0.0079   0.5873     H
H       0.8965   0.4921   0.9127     H
H       0.8965   0.5079   0.4127     H
H       0.8965   0.9921   0.0873     H
C       0.8985     0.15   0.3889     C
C       0.8985     0.35   0.1111     C
C       0.8985     0.65   0.6111     C
C       0.8985     0.85   0.8889     C
C       0.9011   0.0229   0.0876     C
C       0.9011   0.4771   0.4124     C
C       0.9011   0.5229   0.9124     C
C       0.9011   0.9771   0.5876     C
H       0.9033   0.0134   0.9076     H
H       0.9033   0.4866   0.5924     H
H       0.9033   0.5134   0.0924     H
H       0.9033   0.9866   0.4076     H
C       0.9041   0.1865   0.3545     C
C       0.9041   0.3135   0.1455     C
C       0.9041   0.6865   0.6455     C
C       0.9041   0.8135   0.8545     C
C       0.9123   0.1162   0.0869     C
C       0.9123   0.3838   0.4131     C
C       0.9123   0.6162   0.9131     C
C       0.9123   0.8838   0.5869     C
C        0.915   0.0534    0.841     C
C        0.915   0.4466    0.659     C
C        0.915   0.5534    0.159     C
C        0.915   0.9466    0.341     C
Cl     0.91608   0.0506  0.48358    Cl
Cl     0.91608   0.4494  0.01642    Cl
Cl     0.91608   0.5506  0.51642    Cl
Cl     0.91608   0.9494  0.98358    Cl
H       0.9188   0.1468   0.0855     H
H       0.9188   0.3532   0.4145     H
H       0.9188   0.6468   0.9145     H
H       0.9188   0.8532   0.5855     H
H       0.9215   0.1471   0.4215     H
H       0.9215   0.3529   0.0785     H
H       0.9215   0.6471   0.5785     H
H       0.9215   0.8529   0.9215     H
C       0.9287   0.0337   0.8913     C
C       0.9287   0.4663   0.6087     C
C       0.9287   0.5337   0.1087     C
C       0.9287   0.9663   0.3913     C
H       0.9308   0.2085   0.3635     H
H       0.9308   0.2915   0.1365     H
H       0.9308   0.7085   0.6365     H
H       0.9308   0.7915   0.8635     H
H       0.9395   0.0974   0.7826     H
H       0.9395   0.4026   0.7174     H
H       0.9395   0.5974   0.2174     H
H       0.9395   0.9026   0.2826     H
N       0.9416    0.043    0.055     N
N       0.9416    0.457    0.445     N
N       0.9416    0.543    0.945     N
N       0.9416    0.957    0.555     N
C       0.9426   0.0875   0.0559     C
C       0.9426   0.4125   0.4441     C
C       0.9426   0.5875   0.9441     C
C       0.9426   0.9125   0.5559     C
Cl      0.9457   0.2174   0.1991    Cl
Cl      0.9457   0.2826   0.3009    Cl
Cl      0.9457   0.7174   0.8009    Cl
Cl      0.9457   0.7826   0.6991    Cl
C       0.9498   0.0837    0.817     C
C       0.9498   0.4163    0.683     C
C       0.9498   0.5837    0.183     C
C       0.9498   0.9163    0.317     C
H       0.9541   0.0786   0.5888     H
H       0.9541   0.4214   0.9112     H
H       0.9541   0.5786   0.4112     H
H       0.9541   0.9214   0.0888     H
H       0.9688   0.1004   0.0306     H
H       0.9688   0.3996   0.4694     H
H       0.9688   0.6004   0.9694     H
H       0.9688   0.8996   0.5306     H
H       0.9735   0.1154   0.6718     H
H       0.9735   0.3846   0.8282     H
H       0.9735   0.6154   0.3282     H
H       0.9735   0.8846   0.1718     H
N       0.9766   0.0426   0.9173     N
N       0.9766   0.4574   0.5827     N
N       0.9766   0.5426   0.0827     N
N       0.9766   0.9574   0.4173     N
C       0.9886   0.0725   0.6074     C
C       0.9886   0.4275   0.8926     C
C       0.9886   0.5725   0.3926     C
C       0.9886   0.9275   0.1074     C
C        0.999   0.0945   0.6567     C
C        0.999   0.4055   0.8433     C
C        0.999   0.5945   0.3433     C
C        0.999   0.9055   0.1567     C
