data_I
_chemical_name_common  '/home/zhangsd/repos/MofS-CGCNN/ML/data/TSD/clean_cifs/OYIVIC_clean'
_cell_length_a  7.11900
_cell_length_b 21.58000
_cell_length_c  9.10000
_cell_angle_alpha 90.00000
_cell_angle_beta  90.00000
_cell_angle_gamma 90.00000
_space_group_name_H-M_alt      'P 1'


loop_
_space_group_symop_operation_xyz
  'x, y, z' 

loop_
_atom_site_label
_atom_site_fract_x
_atom_site_fract_y
_atom_site_fract_z
_atom_site_type_symbol
C          0.0   0.0929   0.1692     C
C          0.0   0.1567   0.2125     C
C          0.0   0.2844   0.3038     C
C          0.0   0.3462   0.3535     C
C          0.0   0.6538   0.3535     C
C          0.0   0.7156   0.3038     C
C          0.0   0.8433   0.2125     C
C          0.0   0.9071   0.1692     C
N       0.1035   0.4348   0.4322     N
N       0.1035   0.5652   0.4322     N
O       0.1458   0.0682   0.1523     O
O       0.1458   0.9318   0.1523     O
N       0.1568   0.3818   0.3845     N
N       0.1568   0.6182   0.3845     N
C        0.167   0.2508    0.279     C
C        0.167   0.7492    0.279     C
C       0.1678   0.1926   0.2361     C
C       0.1678   0.8074   0.2361     C
H       0.2168   0.3265   0.7204     H
H       0.2168   0.6735   0.7204     H
H       0.2186   0.2293   0.7927     H
H       0.2186   0.7707   0.7927     H
Cu     0.24826      0.5    0.533    Cu
Cu     0.25174      0.0    0.033    Cu
H       0.2814   0.2707   0.2927     H
H       0.2814   0.7293   0.2927     H
H       0.2832   0.1735   0.2204     H
H       0.2832   0.8265   0.2204     H
C       0.3322   0.3074   0.7361     C
C       0.3322   0.6926   0.7361     C
C        0.333   0.2492    0.779     C
C        0.333   0.7508    0.779     C
N       0.3432   0.1182   0.8845     N
N       0.3432   0.8818   0.8845     N
O       0.3542   0.4318   0.6523     O
O       0.3542   0.5682   0.6523     O
N       0.3965   0.0652   0.9322     N
N       0.3965   0.9348   0.9322     N
C          0.5   0.1538   0.8535     C
C          0.5   0.2156   0.8038     C
C          0.5   0.3433   0.7125     C
C          0.5   0.4071   0.6692     C
C          0.5   0.5929   0.6692     C
C          0.5   0.6567   0.7125     C
C          0.5   0.7844   0.8038     C
C          0.5   0.8462   0.8535     C
N       0.6035   0.0652   0.9322     N
N       0.6035   0.9348   0.9322     N
O       0.6458   0.4318   0.6523     O
O       0.6458   0.5682   0.6523     O
N       0.6568   0.1182   0.8845     N
N       0.6568   0.8818   0.8845     N
C        0.667   0.2492    0.779     C
C        0.667   0.7508    0.779     C
C       0.6678   0.3074   0.7361     C
C       0.6678   0.6926   0.7361     C
H       0.7168   0.1735   0.2204     H
H       0.7168   0.8265   0.2204     H
H       0.7186   0.2707   0.2927     H
H       0.7186   0.7293   0.2927     H
Cu     0.74826      0.0    0.033    Cu
Cu     0.75174      0.5    0.533    Cu
H       0.7814   0.2293   0.7927     H
H       0.7814   0.7707   0.7927     H
H       0.7832   0.3265   0.7204     H
H       0.7832   0.6735   0.7204     H
C       0.8322   0.1926   0.2361     C
C       0.8322   0.8074   0.2361     C
C        0.833   0.2508    0.279     C
C        0.833   0.7492    0.279     C
N       0.8432   0.3818   0.3845     N
N       0.8432   0.6182   0.3845     N
O       0.8542   0.0682   0.1523     O
O       0.8542   0.9318   0.1523     O
N       0.8965   0.4348   0.4322     N
N       0.8965   0.5652   0.4322     N
