data_I
_chemical_name_common  '/home/zhangsd/repos/MofS-CGCNN/ML/data/TSD/clean_cifs/OYIVOI_clean'
_cell_length_a  7.18500
_cell_length_b  9.18540
_cell_length_c 21.54400
_cell_angle_alpha 90.00000
_cell_angle_beta  90.00000
_cell_angle_gamma 90.00000
_space_group_name_H-M_alt      'P 1'


loop_
_space_group_symop_operation_xyz
  'x, y, z' 

loop_
_atom_site_label
_atom_site_fract_x
_atom_site_fract_y
_atom_site_fract_z
_atom_site_type_symbol
Cu         0.0      0.0   0.9036    Cu
Cu         0.0      0.5   0.4036    Cu
H       0.0275   0.2203   0.6712     H
H       0.0275   0.2797   0.1712     H
C       0.0864    0.743   0.1532     C
C       0.0864    0.757   0.6532     C
C       0.0894   0.7104   0.5951     C
C       0.0894   0.7896   0.0951     C
N       0.0929   0.6485   0.2855     N
N       0.0929   0.8515   0.7855     N
F        0.095     0.21   0.0705     F
F        0.095     0.29   0.5705     F
O       0.1059   0.6179    0.471     O
O       0.1059   0.8821    0.971     O
N       0.1494   0.5992    0.338     N
N       0.1494   0.9008    0.838     N
C         0.25   0.6388   0.4956     C
C         0.25   0.6824   0.5604     C
C         0.25    0.686   0.2516     C
C         0.25   0.7267   0.1887     C
C         0.25   0.7733   0.6887     C
C         0.25    0.814   0.7516     C
C         0.25   0.8176   0.0604     C
C         0.25   0.8612   0.9956     C
N       0.3506   0.5992    0.338     N
N       0.3506   0.9008    0.838     N
O       0.3941   0.6179    0.471     O
O       0.3941   0.8821    0.971     O
F        0.405     0.21   0.0705     F
F        0.405     0.29   0.5705     F
N       0.4071   0.6485   0.2855     N
N       0.4071   0.8515   0.7855     N
C       0.4106   0.7104   0.5951     C
C       0.4106   0.7896   0.0951     C
C       0.4136    0.743   0.1532     C
C       0.4136    0.757   0.6532     C
H       0.4725   0.2203   0.6712     H
H       0.4725   0.2797   0.1712     H
Cu         0.5      0.0   0.9036    Cu
Cu         0.5      0.5   0.4036    Cu
H       0.5275   0.7203   0.1712     H
H       0.5275   0.7797   0.6712     H
C       0.5864    0.243   0.6532     C
C       0.5864    0.257   0.1532     C
C       0.5894   0.2104   0.0951     C
C       0.5894   0.2896   0.5951     C
N       0.5929   0.1485   0.7855     N
N       0.5929   0.3515   0.2855     N
F        0.595     0.71   0.5705     F
F        0.595     0.79   0.0705     F
O       0.6059   0.1179    0.971     O
O       0.6059   0.3821    0.471     O
N       0.6494   0.0992    0.838     N
N       0.6494   0.4008    0.338     N
C         0.75   0.1388   0.9956     C
C         0.75   0.1824   0.0604     C
C         0.75    0.186   0.7516     C
C         0.75   0.2267   0.6887     C
C         0.75   0.2733   0.1887     C
C         0.75    0.314   0.2516     C
C         0.75   0.3176   0.5604     C
C         0.75   0.3612   0.4956     C
N       0.8506   0.0992    0.838     N
N       0.8506   0.4008    0.338     N
O       0.8941   0.1179    0.971     O
O       0.8941   0.3821    0.471     O
F        0.905     0.71   0.5705     F
F        0.905     0.79   0.0705     F
N       0.9071   0.1485   0.7855     N
N       0.9071   0.3515   0.2855     N
C       0.9106   0.2104   0.0951     C
C       0.9106   0.2896   0.5951     C
C       0.9136    0.243   0.6532     C
C       0.9136    0.257   0.1532     C
H       0.9725   0.7203   0.1712     H
H       0.9725   0.7797   0.6712     H
