data_I
_chemical_name_common  '/home/zhangsd/repos/MofS-CGCNN/ML/data/TSD/clean_cifs/PACZUQ_clean'
_cell_length_a 12.51400
_cell_length_b 15.76700
_cell_length_c 16.17100
_cell_angle_alpha 114.13000
_cell_angle_beta  104.06000
_cell_angle_gamma 103.72000
_space_group_name_H-M_alt      'P 1'


loop_
_space_group_symop_operation_xyz
  'x, y, z' 

loop_
_atom_site_label
_atom_site_fract_x
_atom_site_fract_y
_atom_site_fract_z
_atom_site_type_symbol
Pr     0.00281  0.02366  0.63432    Pr
H        0.003   0.0664    0.906     H
C       0.0147    0.834   0.1396     C
O        0.015   0.1514   0.4737     O
N       0.0179   0.2261   0.0731     N
H       0.0266   0.2909   0.2097     H
C       0.0326   0.4407   0.1442     C
O       0.0356    0.182   0.6258     O
O       0.0382   0.8766    0.229     O
H       0.0472   0.8627   0.8741     H
O       0.0476   0.7644   0.0979     O
C       0.0489   0.2084   0.5649     C
C       0.0548   0.1316   0.9206     C
O       0.0563   0.6221   0.9323     O
H       0.0638   0.9243    0.984     H
C       0.0687   0.8644   0.9368     C
O       0.0712   0.5334   0.1764     O
C        0.075   0.3076   0.1757     C
O       0.0862   0.4541   0.9804     O
H       0.0903   0.4323   0.2644     H
H       0.0917   0.3599   0.6522     H
C        0.096    0.402   0.2008     C
H          0.1   0.3485    0.818     H
C       0.1082   0.2004   0.0322     C
O       0.1082    0.959   0.7327     O
H       0.1106   0.3351   0.5537     H
H       0.1193    0.122   0.8995     H
C       0.1208   0.3195   0.6065     C
O       0.1295   0.0327   0.5395     O
Pr     0.13137  0.63678  0.09788    Pr
H       0.1453   0.1675   0.0628     H
O       0.1484   0.7473    0.267     O
H       0.1509   0.3041   0.2031     H
H       0.1606   0.0868   0.3096     H
H       0.1655   0.7221   0.3013     H
O       0.1659    0.104   0.3662     O
H       0.1699   0.2619   0.0487     H
H       0.1729   0.0031   0.7735     H
C       0.1731   0.4727   0.9535     C
C       0.1777   0.3859   0.8712     C
H       0.1795   0.4315   0.2124     H
C       0.1922   0.8699   0.9687     C
H       0.1962   0.8093   0.9216     H
H       0.1978   0.3412   0.8937     H
O       0.2027    0.159    0.758     O
C       0.2047   0.9942   0.5181     C
O       0.2048   0.9598   0.4357     O
H        0.213   0.8715   0.0313     H
H       0.2433   0.9572   0.6246     H
O       0.2479   0.5596   0.9931     O
H       0.2503   0.4668   0.8119     H
C       0.2504    0.345   0.6581     C
O       0.2527   0.0108   0.9456     O
C       0.2697   0.4215   0.8338     C
N        0.272   0.3332     0.75     N
H       0.2723   0.9217   0.2527     H
H        0.278   0.3012   0.6137     H
C       0.2825    0.959   0.9791     C
C       0.2894   0.9926   0.6001     C
O       0.2953   0.7729   0.1227     O
H       0.2956   0.4137    0.677     H
C        0.301    0.184   0.8204     C
H        0.313   0.8021   0.5888     H
O        0.314   0.6292   0.2003     O
O       0.3228   0.1336   0.8613     O
H       0.3293   0.8807   0.5179     H
H       0.3305   0.7344   0.6666     H
H       0.3343   0.0613    0.653     H
H       0.3468   0.6807   0.2538     H
H       0.3477    0.458   0.8866     H
H       0.3485    0.726   0.0049     H
C        0.355   0.9286    0.271     C
H        0.369   0.9016   0.3149     H
C       0.3698   0.8608   0.1771     C
H       0.3707   0.2574    0.058     H
C       0.3731   0.9465   0.5758     C
O       0.3787   0.9382   0.8145     O
O       0.3825   0.7238   0.9671     O
C       0.3864   0.3159    0.777     C
H       0.3885   0.2658   0.7181     H
H       0.3931   0.0654    0.292     H
O       0.3933   0.9781   0.0228     O
C       0.3951   0.8584   0.7973     C
O       0.3956   0.2263   0.0828     O
C       0.3959   0.8291    0.632     C
C       0.3977   0.7978   0.6992     C
C       0.4007   0.2823   0.8505     C
H       0.4048    0.335    0.911     H
O        0.409   0.8238   0.8547     O
H       0.4193   0.0605    0.389     H
C       0.4267   0.0336   0.3258     C
H       0.4267    0.987   0.5597     H
H       0.4355   0.7947   0.5927     H
N        0.445   0.9353    0.656     N
H       0.4533   0.3778   0.8024     H
O       0.4568   0.8946   0.1618     O
Pr     0.46559  0.10626  0.96813    Pr
H       0.4687   0.7827   0.7116     H
H        0.476   0.2736   0.8638     H
H        0.524   0.7264   0.1362     H
H       0.5313   0.2173   0.2884     H
Pr     0.53441  0.89374  0.03187    Pr
O       0.5432   0.1054   0.8382     O
H       0.5467   0.6222   0.1976     H
N        0.555   0.0647    0.344     N
H       0.5645   0.2053   0.4073     H
H       0.5733    0.013   0.4403     H
C       0.5733   0.9664   0.6742     C
H       0.5807   0.9395    0.611     H
O        0.591   0.1762   0.1453     O
H       0.5952    0.665    0.089     H
C       0.5993   0.7177   0.1495     C
C       0.6023   0.2022   0.3008     C
C       0.6041   0.1709    0.368     C
O       0.6044   0.7737   0.9172     O
C       0.6049   0.1416   0.2027     C
O       0.6067   0.0219   0.9772     O
H       0.6069   0.9346    0.708     H
H       0.6115   0.7342   0.2819     H
C       0.6136   0.6841    0.223     C
O       0.6175   0.2762   0.0329     O
O       0.6213   0.0618   0.1855     O
C       0.6269   0.0535   0.4242     C
H       0.6293   0.7426    0.942     H
C       0.6302   0.1392   0.8229     C
H        0.631   0.0984   0.6851     H
C        0.645   0.0714    0.729     C
H       0.6515    0.274   0.9951     H
H       0.6523    0.542   0.1134     H
H       0.6532   0.3193   0.7462     H
H       0.6657   0.9387    0.347     H
H       0.6695   0.2656   0.3334     H
H       0.6707   0.1193   0.4821     H
O       0.6772   0.8664   0.1387     O
O        0.686   0.3708   0.7997     O
H        0.687   0.1979   0.4112     H
C        0.699    0.816   0.1796     C
H       0.7044   0.5863    0.323     H
O       0.7047   0.2271   0.8773     O
C       0.7106   0.0074   0.3999     C
C       0.7175    0.041   0.0209     C
H        0.722   0.6988   0.3863     H
H       0.7277   0.0783   0.7473     H
N        0.728   0.6668     0.25     N
C       0.7303   0.5785   0.1662     C
O       0.7473   0.9892   0.0544     O
C       0.7496    0.655   0.3419     C
H       0.7497   0.5332   0.1881     H
O       0.7521   0.4404   0.0069     O
H       0.7567   0.0428   0.3754     H
H        0.787   0.1285   0.9687     H
O       0.7952   0.0402   0.5643     O
C       0.7953   0.0058   0.4819     C
O       0.7973    0.841    0.242     O
H       0.8022   0.6588   0.1063     H
H       0.8038   0.1907   0.0784     H
C       0.8078   0.1301   0.0313     C
H       0.8205   0.5685   0.7876     H
C       0.8223   0.6141   0.1288     C
C       0.8269   0.5273   0.0465     C
H       0.8271   0.9969   0.2265     H
H       0.8301   0.7381   0.9513     H
O       0.8341    0.896   0.6338     O
H       0.8345   0.2779   0.6987     H
H       0.8394   0.9132   0.6904     H
H       0.8491   0.6959   0.7969     H
O       0.8516   0.2527    0.733     O
H       0.8547   0.8325   0.9372     H
Pr     0.86863  0.36322  0.90212    Pr
O       0.8705   0.9673   0.4605     O
C       0.8792   0.6805   0.3935     C
H       0.8807    0.878   0.1005     H
H       0.8894   0.6649   0.4463     H
O       0.8918    0.041   0.2673     O
C       0.8918   0.7996   0.9678     C
H          0.9   0.6515    0.182     H
C        0.904    0.598   0.7992     C
H       0.9083   0.6401   0.3478     H
H       0.9097   0.5677   0.7356     H
O       0.9138   0.5459   0.0196     O
C        0.925   0.6924   0.8243     C
O       0.9288   0.4666   0.8236     O
C       0.9313   0.1356   0.0632     C
H       0.9362   0.0757    0.016     H
O       0.9437   0.3779   0.0677     O
C       0.9452   0.8684   0.0794     C
C       0.9511   0.7916   0.4351     C
O       0.9524   0.2356   0.9021     O
H       0.9528   0.1373   0.1259     H
O       0.9618   0.1234    0.771     O
O       0.9644    0.818   0.3742     O
C       0.9674   0.5593   0.8558     C
H       0.9734   0.7091   0.7903     H
N       0.9821   0.7739   0.9269     N
O        0.985   0.8486   0.5263     O
C       0.9853    0.166   0.8604     C
H        0.997   0.9336    0.094     H
Pr     0.99719  0.97634  0.36568    Pr
