data_I
_chemical_name_common  '/home/zhangsd/repos/MofS-CGCNN/ML/data/TSD/clean_cifs/PAMTOO_clean'
_cell_length_a 18.95840
_cell_length_b 18.95840
_cell_length_c 18.95840
_cell_angle_alpha 62.93120
_cell_angle_beta  62.93120
_cell_angle_gamma 62.93120
_space_group_name_H-M_alt      'P 1'


loop_
_space_group_symop_operation_xyz
  'x, y, z' 

loop_
_atom_site_label
_atom_site_fract_x
_atom_site_fract_y
_atom_site_fract_z
_atom_site_type_symbol
Dy     0.00432  0.43362  0.44054    Dy
O      0.01993  0.56103  0.67463     O
H       0.0537   0.5827   0.7769     H
O      0.07142  0.54602  0.43282     O
O      0.08015  0.43075  0.59405     O
C       0.0896   0.5714   0.6311     C
O      0.10483  0.36813  0.50623     O
O       0.1076   0.4926   0.3354     O
C       0.1077   0.5848   0.7451     C
C      0.11736  0.53506  0.36346     C
O      0.11825  0.57825  0.55495     O
C       0.1208   0.3758   0.5599     C
H       0.1305    0.607   0.8282     H
C       0.1412   0.5763   0.6697     C
C       0.1554    0.597    0.777     C
H       0.1605   0.6303   0.3938     H
H       0.1718   0.8695    0.393     H
H       0.1781   0.7784   0.3572     H
H       0.1862   0.6987   0.4372     H
C      0.18828  0.57048  0.31538     C
H       0.1971   0.3671   0.6516     H
C       0.1976   0.6195   0.3441     C
C       0.1984   0.3112   0.5826     C
C       0.2163   0.7336   0.3869     C
H       0.2216   0.6428   0.8219     H
C       0.2222   0.5704     0.63     C
C        0.223   0.8446    0.403     C
H       0.2231   0.9463   0.4173     H
C        0.226   0.3214   0.6321     C
H       0.2274   0.2374   0.5161     H
C       0.2342   0.5942   0.7352     C
H       0.2374   0.5161   0.2274     H
C      0.24401  0.55071  0.24471     C
C      0.24471  0.24401  0.55071     C
H       0.2487    0.559   0.5795     H
C       0.2549   0.8923   0.4152     C
C       0.2628   0.6527   0.2976     C
C       0.2648   0.7658   0.4058     C
C       0.2659   0.5812   0.6634     C
C       0.2664   0.6131   0.7837     C
O       0.2925   0.6826   0.3313     O
C       0.2976   0.2628   0.6527     C
H       0.3013   0.5628   0.8138     H
C       0.3112   0.5826   0.1984     C
C      0.31538  0.18828  0.57048     C
O       0.3174   0.6687   0.7075     O
H       0.3212   0.5792   0.6332     H
C       0.3214   0.6321    0.226     C
O      0.32537  0.98007  0.43897     O
C       0.3303   0.8588   0.4237     C
O       0.3313   0.2925   0.6826     O
O       0.3354   0.1076   0.4926     O
C       0.3366   0.7341   0.4188     C
C       0.3441   0.1976   0.6195     C
C       0.3473   0.7024   0.7372     C
H       0.3484   0.8029   0.6329     H
H       0.3572   0.1781   0.7784     H
C      0.36346  0.11736  0.53506     C
H       0.3668   0.6788   0.4208     H
H       0.3671   0.6516   0.1971     H
C       0.3679    0.774   0.6786     C
O      0.36813  0.50623  0.10483     O
C       0.3689   0.9104   0.4286     C
H       0.3697   0.6062   0.8395     H
C         0.37   0.7778   0.4296     C
C       0.3758   0.5599   0.1208     C
C       0.3805   0.6559   0.8024     C
C       0.3869   0.2163   0.7336     C
H        0.393   0.1718   0.8695     H
H       0.3938   0.1605   0.6303     H
C        0.403    0.223   0.8446     C
C       0.4058   0.2648   0.7658     C
O      0.40595  0.91985  0.56925     O
C       0.4152   0.2549   0.8923     C
H       0.4173   0.2231   0.9463     H
C       0.4174   0.8016   0.6888     C
C       0.4188   0.3366   0.7341     C
H       0.4205   0.7513    0.441     H
H       0.4208   0.3668   0.6788     H
O      0.42175  0.44505  0.88175     O
C       0.4237   0.3303   0.8588     C
C       0.4286   0.3689   0.9104     C
C      0.42952  0.68462  0.81172     C
C       0.4296     0.37   0.7778     C
O      0.43075  0.59405  0.08015     O
O      0.43282  0.07142  0.54602     O
Dy     0.43362  0.44054  0.00432    Dy
H       0.4372   0.1862   0.6987     H
O      0.43897  0.32537  0.98007     O
C       0.4401   0.8792   0.6242     C
Dy     0.44054  0.00432  0.43362    Dy
H        0.441   0.4205   0.7513     H
O      0.44505  0.88175  0.42175     O
C      0.44929  0.75529  0.75599     C
O      0.45398  0.56718  0.92858     O
C      0.46494  0.63654  0.88264     C
H       0.4839   0.7726   0.7626     H
O       0.4926   0.3354   0.1076     O
O      0.49377  0.89517  0.63187     O
O      0.50623  0.10483  0.36813     O
O       0.5074   0.6646   0.8924     O
H       0.5161   0.2274   0.2374     H
C      0.53506  0.36346  0.11736     C
O      0.54602  0.43282  0.07142     O
C      0.55071  0.24471  0.24401     C
O      0.55495  0.11825  0.57825     O
H        0.559   0.5795   0.2487     H
Dy     0.55946  0.99568  0.56638    Dy
C       0.5599   0.1208   0.3758     C
O      0.56103  0.67463  0.01993     O
H       0.5628   0.8138   0.3013     H
Dy     0.56638  0.55946  0.99568    Dy
O      0.56718  0.92858  0.45398     O
O      0.56925  0.40595  0.91985     O
C       0.5704     0.63   0.2222     C
C      0.57048  0.31538  0.18828     C
C       0.5714   0.6311   0.0896     C
C       0.5763   0.6697   0.1412     C
O      0.57825  0.55495  0.11825     O
H       0.5792   0.6332   0.3212     H
H       0.5795   0.2487    0.559     H
C       0.5812   0.6634   0.2659     C
C       0.5826   0.1984   0.3112     C
H       0.5827   0.7769   0.0537     H
C       0.5848   0.7451   0.1077     C
O      0.59405  0.08015  0.43075     O
C       0.5942   0.7352   0.2342     C
C        0.597    0.777   0.1554     C
H       0.6062   0.8395   0.3697     H
H        0.607   0.8282   0.1305     H
C       0.6131   0.7837   0.2664     C
C       0.6195   0.3441   0.1976     C
C       0.6242   0.4401   0.8792     C
C         0.63   0.2222   0.5704     C
H       0.6303   0.3938   0.1605     H
C       0.6311   0.0896   0.5714     C
O      0.63187  0.49377  0.89517     O
C       0.6321    0.226   0.3214     C
H       0.6329   0.3484   0.8029     H
H       0.6332   0.3212   0.5792     H
C      0.63654  0.88264  0.46494     C
H       0.6428   0.8219   0.2216     H
H       0.6516   0.1971   0.3671     H
C       0.6527   0.2976   0.2628     C
C       0.6559   0.8024   0.3805     C
C       0.6634   0.2659   0.5812     C
O       0.6646   0.8924   0.5074     O
O       0.6687   0.7075   0.3174     O
C       0.6697   0.1412   0.5763     C
O      0.67463  0.01993  0.56103     O
C       0.6786   0.3679    0.774     C
H       0.6788   0.4208   0.3668     H
O       0.6826   0.3313   0.2925     O
C      0.68462  0.81172  0.42952     C
C       0.6888   0.4174   0.8016     C
H       0.6987   0.4372   0.1862     H
C       0.7024   0.7372   0.3473     C
O       0.7075   0.3174   0.6687     O
C       0.7336   0.3869   0.2163     C
C       0.7341   0.4188   0.3366     C
C       0.7352   0.2342   0.5942     C
C       0.7372   0.3473   0.7024     C
C       0.7451   0.1077   0.5848     C
H       0.7513    0.441   0.4205     H
C      0.75529  0.75599  0.44929     C
C      0.75599  0.44929  0.75529     C
H       0.7626   0.4839   0.7726     H
C       0.7658   0.4058   0.2648     C
H       0.7726   0.7626   0.4839     H
C        0.774   0.6786   0.3679     C
H       0.7769   0.0537   0.5827     H
C        0.777   0.1554    0.597     C
C       0.7778   0.4296     0.37     C
H       0.7784   0.3572   0.1781     H
C       0.7837   0.2664   0.6131     C
C       0.8016   0.6888   0.4174     C
C       0.8024   0.3805   0.6559     C
H       0.8029   0.6329   0.3484     H
C      0.81172  0.42952  0.68462     C
H       0.8138   0.3013   0.5628     H
H       0.8219   0.2216   0.6428     H
H       0.8282   0.1305    0.607     H
H       0.8395   0.3697   0.6062     H
C       0.8446    0.403    0.223     C
C       0.8588   0.4237   0.3303     C
H       0.8695    0.393   0.1718     H
C       0.8792   0.6242   0.4401     C
O      0.88175  0.42175  0.44505     O
C      0.88264  0.46494  0.63654     C
C       0.8923   0.4152   0.2549     C
O       0.8924   0.5074   0.6646     O
O      0.89517  0.63187  0.49377     O
C       0.9104   0.4286   0.3689     C
O      0.91985  0.56925  0.40595     O
O      0.92858  0.45398  0.56718     O
H       0.9463   0.4173   0.2231     H
O      0.98007  0.43897  0.32537     O
Dy     0.99568  0.56638  0.55946    Dy
