data_I
_chemical_name_common  '/home/zhangsd/repos/MofS-CGCNN/ML/data/TSD/clean_cifs/PAMVEG_clean'
_cell_length_a  6.55680
_cell_length_b 15.07800
_cell_length_c 20.54300
_cell_angle_alpha 90.00000
_cell_angle_beta  90.00000
_cell_angle_gamma 90.00000
_space_group_name_H-M_alt      'P 1'


loop_
_space_group_symop_operation_xyz
  'x, y, z' 

loop_
_atom_site_label
_atom_site_fract_x
_atom_site_fract_y
_atom_site_fract_z
_atom_site_type_symbol
C       0.0076   0.9151  0.48227     C
C       0.0145    0.795  0.67232     C
H       0.0188   0.4761    0.002     H
N        0.022  0.37686  0.80272     N
H       0.0378   0.6699   0.4884     H
H       0.0414   0.4636   0.1439     H
H       0.0499   0.1597   0.6001     H
C       0.0502   0.6543  0.86674     C
H       0.0523   0.5097   0.4841     H
H       0.0547   0.2871   0.2106     H
N        0.055  0.58783   0.8214     N
C       0.0655   0.0523  0.10303     C
C       0.0673   0.2603   0.2528     C
H       0.0722   0.8818   0.5183     H
H       0.0731   0.0423   0.3932     H
O       0.0736  0.00628   0.8254     O
O       0.0906  0.11795  0.13658     O
C       0.0924   0.9831  0.37332     C
C          0.1   0.5477   0.4479     C
H       0.1088   0.1998    0.247     H
C       0.1191   0.2363  0.80446     C
H       0.1206   0.7814   0.6424     H
H       0.1289   0.7334   0.1719     H
H       0.1318   0.1727   0.8177     H
C       0.1379   0.7657    0.212     C
Zn     0.14868  0.98638  0.68783    Zn
C       0.1519   0.3599   0.7539     C
C       0.1572   0.9197  0.42532     C
O       0.1604  0.99521  0.26055     O
C       0.1617    0.637  0.47513     C
H       0.1686   0.3118    0.052     H
H       0.1713   0.8598   0.4061     H
H        0.172   0.8261    0.202     H
O       0.1773  0.98367  0.11029     O
C       0.1806   0.6164   0.7719     C
C       0.1949   0.3717  0.03403     C
H        0.196   0.5879   0.7304     H
H       0.2017   0.4032   0.7235     H
N       0.2038   0.2736   0.7536     N
C       0.2048   0.7103  0.85801     C
H       0.2073   0.0622   0.9419     H
H       0.2216   0.5191   0.4286     H
N       0.2228     0.31   0.2911     N
H       0.2304   0.7661   0.8829     H
H       0.2307   0.6717   0.4407     H
H       0.2361    0.593   0.5682     H
C       0.2405  0.99211  0.31648     C
C       0.2595  0.00789  0.81648     C
H       0.2639    0.407   0.0682     H
H       0.2693   0.3283   0.9407     H
H       0.2696   0.2339   0.3829     H
N       0.2772     0.69   0.7911     N
H       0.2784   0.4809   0.9286     H
H       0.2927   0.9378   0.4419     H
C       0.2952   0.2897  0.35801     C
N       0.2962   0.7264   0.2536     N
H       0.2983   0.5968   0.2235     H
H        0.304   0.4121   0.2304     H
C       0.3051   0.6283  0.53403     C
C       0.3194   0.3836   0.2719     C
O       0.3227  0.01633  0.61029     O
H        0.328   0.1739    0.702     H
H       0.3287   0.1402   0.9061     H
H       0.3314   0.6882    0.552     H
C       0.3383    0.363  0.97513     C
O       0.3396  0.00479  0.76055     O
C       0.3428   0.0803  0.92532     C
C       0.3481   0.6401   0.2539     C
Zn     0.35132  0.01362  0.18783    Zn
C       0.3621   0.2343    0.712     C
H       0.3682   0.8273   0.3177     H
H       0.3711   0.2666   0.6719     H
H       0.3794   0.2186   0.1424     H
C       0.3809   0.7637  0.30446     C
H       0.3912   0.8002    0.747     H
C          0.4   0.4523   0.9479     C
C       0.4076   0.0169  0.87332     C
O       0.4094  0.88205  0.63658     O
O       0.4264  0.99372   0.3254     O
H       0.4269   0.9577   0.8932     H
H       0.4278   0.1182   0.0183     H
C       0.4327   0.7397   0.7528     C
C       0.4345   0.9477  0.60303     C
N        0.445  0.41217   0.3214     N
H       0.4453   0.7129   0.7106     H
H       0.4477   0.4903   0.9841     H
C       0.4498   0.3457  0.36674     C
H       0.4501   0.8403   0.1001     H
H       0.4586   0.5364   0.6439     H
H       0.4622   0.3301   0.9884     H
N        0.478  0.62314  0.30272     N
H       0.4812   0.5239    0.502     H
C       0.4855    0.205  0.17232     C
C       0.4924   0.0849  0.98227     C
C       0.5076   0.5849  0.51773     C
C       0.5145    0.705  0.32768     C
H       0.5188   0.0239    0.998     H
N        0.522  0.12314  0.19728     N
H       0.5378   0.8301   0.5116     H
H       0.5414   0.0364   0.8561     H
H       0.5499   0.3403   0.3999     H
C       0.5502   0.8457  0.13326     C
H       0.5523   0.9903   0.5159     H
H       0.5547   0.2129   0.7894     H
N        0.555  0.91217   0.1786     N
C       0.5655   0.4477  0.89697     C
C       0.5673   0.2397   0.7472     C
H       0.5722   0.6182   0.4817     H
H       0.5731   0.4577   0.6068     H
O       0.5736  0.49372   0.1746     O
O       0.5906  0.38205  0.86342     O
C       0.5924   0.5169  0.62668     C
C          0.6   0.9523   0.5521     C
H       0.6088   0.3002    0.753     H
C       0.6191   0.2637  0.19554     C
H       0.6206   0.7186   0.3576     H
H       0.6289   0.7666   0.8281     H
H       0.6318   0.3273   0.1823     H
C       0.6379   0.7343    0.788     C
Zn     0.64868  0.51362  0.31217    Zn
C       0.6519   0.1401   0.2461     C
C       0.6572   0.5803  0.57468     C
O       0.6604  0.50479  0.73945     O
C       0.6617    0.863  0.52487     C
H       0.6686   0.1882    0.948     H
H       0.6713   0.6402   0.5939     H
H        0.672   0.6739    0.798     H
O       0.6773  0.51633  0.88971     O
C       0.6806   0.8836   0.2281     C
C       0.6949   0.1283  0.96597     C
H        0.696   0.9121   0.2696     H
H       0.7017   0.0968   0.2765     H
N       0.7038   0.2264   0.2464     N
C       0.7048   0.7897  0.14199     C
H       0.7073   0.4378   0.0581     H
H       0.7216   0.9809   0.5714     H
N       0.7228     0.19   0.7089     N
H       0.7304   0.7339   0.1171     H
H       0.7307   0.8283   0.5593     H
H       0.7361    0.907   0.4318     H
C       0.7405  0.50789  0.68352     C
C       0.7595  0.49211  0.18352     C
H       0.7639    0.093   0.9318     H
H       0.7693   0.1717   0.0593     H
H       0.7696   0.2661   0.6171     H
N       0.7772     0.81   0.2089     N
H       0.7784   0.0191   0.0714     H
H       0.7927   0.5622   0.5581     H
C       0.7952   0.2103  0.64199     C
N       0.7962   0.7736   0.7464     N
H       0.7983   0.9032   0.7765     H
H        0.804   0.0879   0.7696     H
C       0.8051   0.8717  0.46597     C
C       0.8194   0.1164   0.7281     C
O       0.8227  0.48367  0.38971     O
H        0.828   0.3261    0.298     H
H       0.8287   0.3598   0.0939     H
H       0.8314   0.8118    0.448     H
C       0.8383    0.137  0.02487     C
O       0.8396  0.49521  0.23945     O
C       0.8428   0.4197  0.07468     C
C       0.8481   0.8599   0.7461     C
Zn     0.85132  0.48638  0.81217    Zn
C       0.8621   0.2657    0.288     C
H       0.8682   0.6727   0.6823     H
H       0.8711   0.2334   0.3281     H
H       0.8794   0.2814   0.8576     H
C       0.8809   0.7363  0.69554     C
H       0.8912   0.6998    0.253     H
C          0.9   0.0477   0.0521     C
C       0.9076   0.4831  0.12668     C
O       0.9094  0.61795  0.36342     O
O       0.9264  0.50628   0.6746     O
H       0.9269   0.5423   0.1068     H
H       0.9278   0.3818   0.9817     H
C       0.9327   0.7603   0.2472     C
C       0.9345   0.5523  0.39697     C
N        0.945  0.08783   0.6786     N
H       0.9453   0.7871   0.2894     H
H       0.9477   0.0097   0.0159     H
C       0.9498   0.1543  0.63326     C
H       0.9501   0.6597   0.8999     H
H       0.9586   0.9636   0.3561     H
H       0.9622   0.1699   0.0116     H
N        0.978  0.87686  0.69728     N
H       0.9812   0.9761    0.498     H
C       0.9855    0.295  0.82768     C
C       0.9924   0.4151  0.01773     C
