data_I
_chemical_name_common  '/home/zhangsd/repos/MofS-CGCNN/ML/data/TSD/clean_cifs/PAPPIH_clean'
_cell_length_a 13.07850
_cell_length_b 13.07850
_cell_length_c 20.08300
_cell_angle_alpha 90.00000
_cell_angle_beta  90.00000
_cell_angle_gamma 120.00000
_space_group_name_H-M_alt      'P 1'


loop_
_space_group_symop_operation_xyz
  'x, y, z' 

loop_
_atom_site_label
_atom_site_fract_x
_atom_site_fract_y
_atom_site_fract_z
_atom_site_type_symbol
Cu         0.0  0.38463  0.66667    Cu
H        0.006   0.4112  0.99373     H
C       0.0117   0.4079  0.29195     C
C       0.0185   0.5187  0.26332     C
N      0.02004   0.5066   0.7373     N
H       0.0225    0.639  0.95693     H
C       0.0231   0.5775  0.48873     C
N       0.0313  0.29407  0.73904     N
O       0.0324  0.77706  0.29332     O
C       0.0327   0.1574  0.52634     C
C       0.0401   0.5145  0.53845     C
C        0.042   0.2212  0.58349     C
N       0.0421   0.6152  0.37141     N
H       0.0446   0.9159    0.853     H
C       0.0526   0.1888  0.85391     C
H       0.0526   0.5319   0.2191     H
H       0.0568   0.1534  0.89317     H
C       0.0574    0.672  0.83408     C
H        0.061   0.5665  0.07453     H
H       0.0705   0.7276  0.86673     H
H       0.0726   0.3722  0.12023     H
H       0.0841   0.1287  0.51967     H
C       0.0867   0.3846  0.07323     C
H       0.0893   0.3188  0.05393     H
C         0.09   0.7355  0.27229     C
C       0.0909     0.63  0.30481     C
C       0.0927   0.5997  0.42528     C
H       0.0953   0.4905   0.5318     H
H       0.0966   0.9432   0.2265     H
C       0.0982   0.6212  0.72795     C
H       0.1002   0.2352  0.61467     H
C       0.1181   0.3554  0.78264     C
C       0.1183   0.7062  0.77484     C
H       0.1235   0.3432   0.3067     H
C       0.1247   0.9673  0.85967     C
C       0.1286   0.4112   0.2852     C
H       0.1287   0.0841    0.147     H
C       0.1316   0.3064  0.84174     C
H        0.135   0.8998    0.948     H
C       0.1362   0.9474  0.18724     C
H       0.1405   0.6442  0.68833     H
H       0.1466   0.4108   0.2389     H
H       0.1534   0.0568   0.7735     H
C       0.1574   0.0327  0.14033     C
N       0.1586   0.7757  0.21659     N
H       0.1606   0.4556  0.06573     H
H       0.1719   0.4341  0.77337     H
H        0.172   0.7853  0.76653     H
H       0.1725   0.6462   0.3079     H
C       0.1748   0.8684  0.17507     C
C       0.1792    0.958  0.91682     C
O      0.18678  0.60098  0.42422     O
C       0.1888   0.0526  0.81276     C
H       0.1897   0.4815   0.3058     H
H       0.1963     0.74   0.2058     H
H       0.2147   0.3867   0.4332     H
H       0.2197   0.8765  0.64003     H
C       0.2212    0.042  0.08318     C
O      0.22294  0.25534  0.95999     O
N       0.2243   0.3829  0.88326     N
H       0.2295   0.9107  0.38727     H
H       0.2352   0.1002    0.052     H
C       0.2373   0.8819  0.11597     C
O      0.25534  0.22294  0.70668     O
H         0.26   0.4563  0.87247     H
H       0.2622   0.8281   0.1067     H
N      0.26277   0.9687  0.07237     N
H       0.2642   0.8534  0.57223     H
C       0.2645   0.3545  0.93896     C
H       0.2724   0.3429   0.5334     H
C       0.2826   0.8714  0.61853     C
H       0.2918   0.8103  0.63913     H
C       0.2938   0.4121  0.44151     C
N      0.29407   0.0313  0.92763     N
H        0.295   0.8394  0.39907     H
C       0.2979   0.9133  0.40657     C
H       0.2996   0.9274  0.45357     H
C       0.3064   0.1316  0.82493     C
H       0.3188   0.0893  0.61273     H
C        0.328   0.3854  0.50075     C
H       0.3429   0.2724  0.13327     H
H       0.3432   0.1235  0.35997     H
H       0.3538   0.5263  0.97457     H
C       0.3545   0.2645  0.72771     C
C       0.3554   0.1181  0.88403     C
H       0.3558   0.4963    0.355     H
H        0.361   0.3835   0.6236     H
C         0.37   0.4609  0.97148     C
H       0.3722   0.0726  0.54643     H
C       0.3788    0.477  0.39462     C
N       0.3829   0.2243  0.78341     N
H       0.3835    0.361  0.04307     H
C       0.3846   0.0867  0.59343     C
Cu     0.38463     -0.0      0.0    Cu
N       0.3848   0.4269  0.03808     N
C       0.3854    0.328  0.16592     C
H       0.3867   0.2147  0.23347     H
H       0.3952   0.9047  0.86513     H
C       0.3962   0.9883  0.62528     C
O      0.39902   0.5858  0.09089     O
C       0.4003    0.493  0.09195     C
H       0.4052    0.994  0.32707     H
C       0.4079   0.0117  0.37472     C
H       0.4108   0.1466  0.42777     H
H       0.4112    0.006  0.67293     H
C       0.4112   0.1286  0.38147     C
C       0.4121   0.2938  0.22516     C
O       0.4142  0.81322  0.75755     O
C       0.4225   0.4456   0.1554     C
N       0.4269   0.3848  0.62859     N
H       0.4335   0.4945   0.7412     H
H       0.4341   0.1719   0.8933     H
C       0.4456   0.4225  0.51127     C
H       0.4556   0.1606  0.60093     H
H       0.4563     0.26   0.7942     H
C       0.4609     0.37  0.69519     C
H       0.4681   0.5207  0.88577     H
H       0.4737   0.8275  0.64123     H
C       0.4744   0.9599  0.87178     C
C        0.477   0.3788  0.27205     C
H       0.4793   0.9474  0.55243     H
C       0.4813   0.4998  0.92999     C
H       0.4815   0.1897  0.36087     H
C       0.4855   0.5256  0.20512     C
N      0.48656  0.97996  0.07064     N
H       0.4905   0.0953  0.13487     H
C        0.493   0.4003  0.57472     C
N       0.4934  0.51344  0.40397     N
H       0.4945   0.4335  0.92547     H
H       0.4963   0.3558  0.31167     H
C       0.4998   0.4813  0.73668     C
C       0.5002   0.9815  0.59665     C
H       0.5037   0.8595  0.02167     H
H       0.5055    0.939  0.40787     H
N       0.5066  0.02004  0.92936     N
C        0.507   0.9073  0.75861     C
H       0.5095   0.6048  0.19847     H
N      0.51344   0.4934   0.2627     N
C       0.5145   0.0401  0.12822     C
H       0.5185   0.7082  0.97247     H
C       0.5187   0.0185  0.40335     C
H       0.5207   0.4681   0.7809     H
C        0.523   0.9018  0.06129     C
C       0.5256   0.4855  0.46155     C
H       0.5263   0.3538   0.6921     H
H       0.5319   0.0526  0.44757     H
C       0.5391   0.9091  0.63814     C
H       0.5437   0.8037  0.53913     H
H       0.5444    0.705   0.7324     H
C       0.5544   0.9769  0.82206     C
H       0.5659   0.7378  0.44003     H
H       0.5665    0.061  0.59213     H
N       0.5731   0.9579  0.70474     N
C       0.5775   0.0231  0.17794     C
O       0.5858  0.39902  0.57578     O
C       0.5879   0.8817  0.10818     C
H       0.5888   0.5948   0.6604     H
C       0.5888   0.7174  0.95187     C
H       0.5892   0.7358  0.90557     H
C       0.5921   0.6038  0.95862     C
H       0.5948   0.5888  0.00627     H
C       0.5997   0.0927  0.24139     C
O      0.60098  0.18678  0.24245     O
C       0.6038   0.5921  0.70805     C
H       0.6048   0.5095   0.4682     H
H       0.6133    0.828  0.09987     H
C       0.6146   0.9426  0.16742     C
N       0.6152   0.0421  0.29526     N
Cu     0.61537  0.61537  0.33333    Cu
C       0.6154   0.7021   0.7399     C
H       0.6165   0.9775  0.29027     H
N       0.6171   0.8414  0.54992     N
C       0.6212   0.0982  0.93871     C
H       0.6278   0.7004   0.7869     H
C         0.63   0.0909  0.36186     C
H        0.639   0.0225  0.70973     H
H       0.6442   0.1405  0.97833     H
C       0.6446   0.7627   0.4493     C
C       0.6455     0.91  0.60562     C
H       0.6462   0.1725  0.35877     H
H       0.6568   0.7803  0.97337     H
H       0.6571   0.9295  0.20007     H
C        0.672   0.0574  0.83258     C
H       0.6812   0.7705   0.7206     H
C       0.6936   0.8252   0.5084     C
H       0.7004   0.6278  0.87977     H
C       0.7021   0.6154  0.92677     C
H        0.705   0.5444  0.93427     H
N      0.70593  0.73723   0.4057     N
C       0.7062   0.1183  0.89182     C
H       0.7082   0.5185   0.6942     H
C       0.7174   0.5888   0.7148     C
H       0.7276   0.0705  0.79993     H
C       0.7355     0.09  0.39438     C
H       0.7358   0.5892   0.7611     H
N      0.73723  0.70593  0.26096     N
H       0.7378   0.5659  0.22663     H
H         0.74   0.1963  0.46087     H
O      0.74466   0.9676  0.62665     O
C       0.7627   0.6446  0.21736     C
H       0.7648    0.865  0.28133     H
H       0.7705   0.6812  0.94607     H
N       0.7757   0.1586  0.45008     N
O      0.77706   0.0324  0.37335     O
C       0.7788   0.8208  0.25015     C
H       0.7803   0.6568   0.6933     H
H       0.7853    0.172  0.90013     H
H       0.8037   0.5437  0.12753     H
H       0.8103   0.2918  0.02753     H
C       0.8112   0.8638  0.52057     C
O      0.81322   0.4142  0.90911     O
C       0.8208   0.7788  0.41651     C
C       0.8252   0.6936  0.15826     C
H       0.8275   0.4737  0.02543     H
H        0.828   0.6133   0.5668     H
H       0.8281   0.2622  0.55997     H
H       0.8394    0.295   0.2676     H
N       0.8414   0.6171  0.11674     N
C       0.8426   0.8753    0.193     C
H       0.8466   0.9034  0.55983     H
H       0.8534   0.2642  0.09443     H
H       0.8595   0.5037    0.645     H
C       0.8638   0.8112  0.14609     C
H        0.865   0.7648  0.38533     H
C       0.8684   0.1748   0.4916     C
H       0.8713   0.9554  0.18633     H
C       0.8714   0.2826  0.04813     C
C       0.8753   0.8426  0.47366     C
H       0.8765   0.2197  0.02663     H
C       0.8817   0.5879  0.55849     C
C       0.8819   0.2373   0.5507     C
H       0.8998    0.135  0.71867     H
C       0.9018    0.523  0.60538     C
H       0.9034   0.8466  0.10683     H
H       0.9047   0.3952  0.80153     H
C       0.9073    0.507  0.90805     C
C       0.9091   0.5391  0.02852     C
C         0.91   0.6455  0.06104     C
H       0.9107   0.2295   0.2794     H
C       0.9133   0.2979   0.2601     C
H       0.9159   0.0446  0.81367     H
H       0.9274   0.2996   0.2131     H
H       0.9295   0.6571   0.4666     H
H        0.939   0.5055   0.2588     H
C       0.9426   0.6146  0.49925     C
H       0.9432   0.0966  0.44017     H
C       0.9474   0.1362  0.47943     C
H       0.9474   0.4793  0.11423     H
H       0.9554   0.8713  0.48033     H
N       0.9579   0.5731  0.96192     N
C        0.958   0.1792  0.74985     C
C       0.9599   0.4744  0.79488     C
C       0.9673   0.1247    0.807     C
O       0.9676  0.74466  0.04001     O
N       0.9687  0.26277   0.5943     N
C       0.9769   0.5544   0.8446     C
H       0.9775   0.6165   0.3764     H
N      0.97996  0.48656  0.59603     N
C       0.9815   0.5002  0.07001     C
C       0.9883   0.3962  0.04138     C
H        0.994   0.4052   0.3396     H
