data_I
_chemical_name_common  '/home/zhangsd/repos/MofS-CGCNN/ML/data/TSD/clean_cifs/PAPXUB_clean'
_cell_length_a 10.88800
_cell_length_b 12.82200
_cell_length_c 13.47830
_cell_angle_alpha 118.40200
_cell_angle_beta  109.35300
_cell_angle_gamma 90.00000
_space_group_name_H-M_alt      'P 1'


loop_
_space_group_symop_operation_xyz
  'x, y, z' 

loop_
_atom_site_label
_atom_site_fract_x
_atom_site_fract_y
_atom_site_fract_z
_atom_site_type_symbol
O       0.0038    0.443   0.6558     O
H       0.0041   0.6072    0.677     H
C       0.0076  0.56817  0.72574     C
N       0.0219  0.03912  0.90204     N
H       0.0353    0.763   0.5174     H
C       0.0392   0.2854   0.4932     C
N       0.0541  0.97403  0.51706     N
H       0.0586   0.2347   0.1356     H
C       0.0783  0.40512  0.58464     C
H       0.0807   0.1545   0.3548     H
H       0.0908   0.6062   0.7988     H
C       0.0912  0.98306  0.12452     C
H       0.1008   0.9766    0.392     H
H       0.1071   0.2156     0.86     H
C       0.1082  0.23666  0.41792     C
C       0.1096  0.41616  0.23692     C
H       0.1204   0.2898   0.7372     H
C       0.1247   0.3008   0.1624     C
C       0.1248  0.95514  0.45348     C
C       0.1807  0.20644  0.83548     C
C       0.1868  0.47722  0.60244     C
C       0.1877   0.2505   0.7622     C
H       0.1994   0.5928   0.3258     H
C        0.206   0.5121    0.275     C
H       0.2127   0.5596   0.6654     H
C       0.2175   0.3066   0.4336     C
N       0.2266  0.27702  0.12604     N
H       0.2352   0.8912   0.6188     H
C        0.242  0.90102  0.47364     C
S      0.24787  0.85033  0.83304     S
Cd        0.25  0.07914      0.0    Cd
S      0.25213  0.01729  0.16696     S
C        0.258  0.42738  0.52636     C
H       0.2648   0.2724   0.3812     H
N       0.2734  0.15098  0.87396     N
C       0.2825    0.873   0.5664     C
H       0.2873   0.8942   0.3346     H
C        0.294   0.2371    0.725     C
H       0.3006    0.267   0.6742     H
C       0.3123   0.4883   0.2378     C
C       0.3132  0.87478  0.39756     C
C       0.3193  0.37096  0.16452     C
C       0.3752  0.50166  0.54652     C
C       0.3753   0.1384   0.8376     C
H       0.3796   0.5526   0.2628     H
C       0.3904  0.17924  0.76308     C
C       0.3918  0.81874  0.58208     C
H       0.3929   0.3556     0.14     H
H       0.3992   0.5846    0.608     H
C       0.4088  0.85854  0.87548     C
H       0.4092   0.8074   0.2012     H
H       0.4193   0.7997   0.6452     H
C       0.4217  0.82048  0.41536     C
H       0.4414   0.0991   0.8644     H
N       0.4459  0.45697  0.48294     N
C       0.4608   0.7922   0.5068     C
H       0.4647   0.2456   0.4826     H
N       0.4781  0.13708  0.09796     N
C       0.4924  0.84243  0.27426     C
H       0.4959   0.9302    0.323     H
O       0.4962   0.7872   0.3442     O
O       0.5038   0.2128   0.6558     O
H       0.5041   0.0698    0.677     H
C       0.5076  0.15757  0.72574     C
N       0.5219  0.86292  0.90204     N
H       0.5353   0.7544   0.5174     H
C       0.5392   0.2078   0.4932     C
N       0.5541  0.54303  0.51706     N
H       0.5586   0.9009   0.1356     H
C       0.5783  0.17952  0.58464     C
H       0.5807   0.2003   0.3548     H
H       0.5908   0.1926   0.7988     H
C       0.5912  0.14146  0.12452     C
H       0.6008   0.4154    0.392     H
H       0.6071   0.6444     0.86     H
C       0.6082  0.18126  0.41792     C
C       0.6096  0.82076  0.23692     C
H       0.6204   0.4474   0.7372     H
C       0.6247   0.8616   0.1624     C
C       0.6248  0.49834  0.45348     C
C       0.6807  0.62904  0.83548     C
C       0.6868  0.12522  0.60244     C
C       0.6877   0.5117   0.7622     C
H       0.6994    0.733   0.3258     H
C        0.706   0.7629    0.275     C
H       0.7127   0.1058   0.6654     H
C       0.7175    0.127   0.4336     C
N       0.7266  0.84902  0.12604     N
H       0.7352   0.7276   0.6188     H
C        0.742  0.57262  0.47364     C
S      0.74787  0.98271  0.83304     S
Cd        0.75  0.92086      0.0    Cd
S      0.75213  0.14967  0.16696     S
C        0.758  0.09898  0.52636     C
H       0.7648   0.1088   0.3812     H
N       0.7734  0.72298  0.87396     N
C       0.7825   0.6934   0.5664     C
H       0.7873   0.4404   0.3346     H
C        0.794   0.4879    0.725     C
H       0.8006   0.4072   0.6742     H
C       0.8123   0.7495   0.2378     C
C       0.8132  0.52278  0.39756     C
C       0.8193  0.79356  0.16452     C
C       0.8752  0.04486  0.54652     C
C       0.8753   0.6992   0.8376     C
H       0.8796   0.7102   0.2628     H
C       0.8904  0.58384  0.76308     C
C       0.8918  0.76334  0.58208     C
H       0.8929   0.7844     0.14     H
H       0.8992   0.0234    0.608     H
C       0.9088  0.01694  0.87548     C
H       0.9092   0.3938   0.2012     H
H       0.9193   0.8455   0.6452     H
C       0.9217  0.59488  0.41536     C
H       0.9414   0.7653   0.8644     H
N       0.9459  0.02597  0.48294     N
C       0.9608   0.7146   0.5068     C
H       0.9647    0.237   0.4826     H
N       0.9781  0.96088  0.09796     N
C       0.9924  0.43183  0.27426     C
H       0.9959   0.3928    0.323     H
O       0.9962    0.557   0.3442     O
