data_I
_chemical_name_common  '/home/zhangsd/repos/MofS-CGCNN/ML/data/TSD/clean_cifs/PAQVEK_clean'
_cell_length_a  7.22800
_cell_length_b 24.99700
_cell_length_c 30.90200
_cell_angle_alpha 90.00000
_cell_angle_beta  93.16700
_cell_angle_gamma 90.00000
_space_group_name_H-M_alt      'P 1'


loop_
_space_group_symop_operation_xyz
  'x, y, z' 

loop_
_atom_site_label
_atom_site_fract_x
_atom_site_fract_y
_atom_site_fract_z
_atom_site_type_symbol
Ni         0.0      0.0      0.0    Ni
Ni         0.0      0.0      0.5    Ni
Fe         0.0  0.16382     0.25    Fe
K          0.0  0.26489     0.75     K
K          0.0  0.73511     0.25     K
Fe         0.0  0.83618     0.75    Fe
H       0.0034   0.3984   0.1141     H
H       0.0034   0.6016   0.6141     H
C       0.0056   0.4036   0.6747     C
C       0.0056   0.5964   0.1747     C
C       0.0077     0.33   0.1497     C
C       0.0077     0.67   0.6497     C
C        0.008   0.2434    0.307     C
C        0.008   0.7566    0.807     C
H       0.0105   0.3568   0.4673     H
H       0.0105   0.6432   0.9673     H
H       0.0132   0.0963   0.8547     H
H       0.0132   0.9037   0.3547     H
O       0.0183  0.10308  0.20055     O
O       0.0183  0.89692  0.70055     O
C       0.0319   0.0672  0.58141     C
C       0.0319   0.9328  0.08141     C
C       0.0367   0.4018  0.52226     C
C       0.0367   0.5982  0.02226     C
H       0.0462     0.19   0.5947     H
H       0.0462     0.81   0.0947     H
C       0.0496   0.0724  0.87663     C
C       0.0496   0.9276  0.37663     C
C       0.0502   0.4514  0.60803     C
C       0.0502   0.5486  0.10803     C
H        0.055   0.3843   0.6983     H
H        0.055   0.6157   0.1983     H
H       0.0579     0.39   0.9609     H
H       0.0579     0.61   0.4609     H
N       0.0582  0.02654   0.9424     N
N       0.0582  0.97346   0.4424     N
C       0.0658   0.3682   0.3799     C
C       0.0658   0.6318   0.8799     C
C       0.0745   0.3835   0.4829     C
C       0.0745   0.6165   0.9829     C
C       0.0858    0.286    0.341     C
C       0.0858    0.714    0.841     C
H       0.1171   0.0482   0.1339     H
H       0.1171   0.9518   0.6339     H
O       0.1177   0.2097  0.29397     O
O       0.1177   0.7903  0.79397     O
C       0.1224   0.4217  0.64339     C
C       0.1224   0.5783  0.14339     C
H       0.1245   0.3357   0.1631     H
H       0.1245   0.6643   0.6631     H
C       0.1404   0.4616  0.89524     C
C       0.1404   0.5384  0.39524     C
C        0.162   0.1844   0.6086     C
C        0.162   0.8156   0.1086     C
O       0.1667   0.2512   0.2041     O
O       0.1667   0.7488   0.7041     O
C       0.1684   0.4428  0.53352     C
C       0.1684   0.5572  0.03352     C
H       0.1685   0.2527   0.6441     H
H       0.1685   0.7473   0.1441     H
C       0.1801   0.4683  0.57346     C
C       0.1801   0.5317  0.07346     C
C       0.1814  0.41382  0.82889     C
C       0.1814  0.58618  0.32889     C
C       0.1819   0.0964  0.56909     C
C       0.1819   0.9036  0.06909     C
C        0.186   0.0366  0.87556     C
C        0.186   0.9634  0.37556     C
C       0.1903  0.10946  0.20304     C
C       0.1903  0.89054  0.70304     C
H       0.1904   0.4808   0.9189     H
H       0.1904   0.5192   0.4189     H
C       0.1946   0.0077  0.91613     C
C       0.1946   0.9923  0.41613     C
N       0.2105  0.04999  0.49928     N
N       0.2105  0.95001  0.99928     N
C       0.2333   0.4129  0.46923     C
C       0.2333   0.5871  0.96923     C
C        0.236   0.2222   0.6381     C
C        0.236   0.7778   0.1381     C
H       0.2378   0.4689   0.1473     H
H       0.2378   0.5311   0.6473     H
C       0.2383   0.3615  0.39999     C
C       0.2383   0.6385  0.89999     C
O       0.2401  0.35978  0.76653     O
O       0.2401  0.64022  0.26653     O
C        0.243   0.0561  0.13614     C
C        0.243   0.9439  0.63614     C
H       0.2484    0.414    0.646     H
H       0.2484    0.586    0.146     H
H       0.2516    0.086    0.354     H
H       0.2516    0.914    0.854     H
C        0.257   0.4439  0.86386     C
C        0.257   0.5561  0.36386     C
O       0.2599  0.14022  0.23347     O
O       0.2599  0.85978  0.73347     O
C       0.2617   0.1385  0.60001     C
C       0.2617   0.8615  0.10001     C
H       0.2622   0.0311   0.8527     H
H       0.2622   0.9689   0.3527     H
C        0.264   0.2778   0.3619     C
C        0.264   0.7222   0.8619     C
C       0.2667   0.0871  0.53077     C
C       0.2667   0.9129  0.03077     C
N       0.2895  0.45001  0.50072     N
N       0.2895  0.54999  0.00072     N
C       0.3054   0.4923  0.08387     C
C       0.3054   0.5077  0.58387     C
H       0.3096   0.0192   0.0811     H
H       0.3096   0.9808   0.5811     H
C       0.3097  0.39054  0.79696     C
C       0.3097  0.60946  0.29696     C
C        0.314   0.4634  0.12444     C
C        0.314   0.5366  0.62444     C
C       0.3181   0.4036  0.43091     C
C       0.3181   0.5964  0.93091     C
C       0.3186  0.08618  0.17111     C
C       0.3186  0.91382  0.67111     C
C       0.3199   0.0317  0.42654     C
C       0.3199   0.9683  0.92654     C
H       0.3315   0.2473   0.3559     H
H       0.3315   0.7527   0.8559     H
C       0.3316   0.0572  0.46648     C
C       0.3316   0.9428  0.96648     C
O       0.3333   0.2488   0.7959     O
O       0.3333   0.7512   0.2959     O
C        0.338   0.3156   0.3914     C
C        0.338   0.6844   0.8914     C
C       0.3596   0.0384  0.10476     C
C       0.3596   0.9616  0.60476     C
H       0.3755   0.1643   0.8369     H
H       0.3755   0.8357   0.3369     H
C       0.3776   0.0783  0.35661     C
C       0.3776   0.9217  0.85661     C
O       0.3823   0.2903  0.70603     O
O       0.3823   0.7097  0.20603     O
H       0.3829   0.4518   0.8661     H
H       0.3829   0.5482   0.3661     H
C       0.4142    0.214    0.659     C
C       0.4142    0.786    0.159     C
C       0.4255   0.1165   0.5171     C
C       0.4255   0.8835   0.0171     C
C       0.4342   0.1318   0.6201     C
C       0.4342   0.8682   0.1201     C
N       0.4418  0.47346   0.0576     N
N       0.4418  0.52654   0.5576     N
H       0.4421     0.11   0.0391     H
H       0.4421     0.89   0.5391     H
H        0.445   0.1157   0.3017     H
H        0.445   0.8843   0.8017     H
C       0.4498   0.0486  0.39197     C
C       0.4498   0.9514  0.89197     C
C       0.4504   0.4276  0.12337     C
C       0.4504   0.5724  0.62337     C
H       0.4538     0.31   0.4053     H
H       0.4538     0.69   0.9053     H
C       0.4633   0.0982  0.47774     C
C       0.4633   0.9018  0.97774     C
C       0.4681   0.4328  0.41859     C
C       0.4681   0.5672  0.91859     C
O       0.4817  0.39692  0.79945     O
O       0.4817  0.60308  0.29945     O
H       0.4868   0.4037   0.1453     H
H       0.4868   0.5963   0.6453     H
H       0.4895   0.1432   0.5327     H
H       0.4895   0.8568   0.0327     H
C        0.492   0.2566    0.693     C
C        0.492   0.7434    0.193     C
C       0.4923     0.17   0.8503     C
C       0.4923     0.83   0.3503     C
C       0.4944   0.0964   0.3253     C
C       0.4944   0.9036   0.8253     C
H       0.4966   0.1016   0.8859     H
H       0.4966   0.8984   0.3859     H
K          0.5  0.23511     0.25     K
Fe         0.5  0.33618     0.75    Fe
Ni         0.5      0.5      0.0    Ni
Ni         0.5      0.5      0.5    Ni
Fe         0.5  0.66382     0.25    Fe
K          0.5  0.76489     0.75     K
H       0.5034   0.1016   0.6141     H
H       0.5034   0.8984   0.1141     H
C       0.5056   0.0964   0.1747     C
C       0.5056   0.9036   0.6747     C
C       0.5077     0.17   0.6497     C
C       0.5077     0.83   0.1497     C
C        0.508   0.2566    0.807     C
C        0.508   0.7434    0.307     C
H       0.5105   0.1432   0.9673     H
H       0.5105   0.8568   0.4673     H
H       0.5132   0.4037   0.3547     H
H       0.5132   0.5963   0.8547     H
O       0.5183  0.39692  0.70055     O
O       0.5183  0.60308  0.20055     O
C       0.5319   0.4328  0.08141     C
C       0.5319   0.5672  0.58141     C
C       0.5367   0.0982  0.02226     C
C       0.5367   0.9018  0.52226     C
H       0.5462     0.31   0.0947     H
H       0.5462     0.69   0.5947     H
C       0.5496   0.4276  0.37663     C
C       0.5496   0.5724  0.87663     C
C       0.5502   0.0486  0.10803     C
C       0.5502   0.9514  0.60803     C
H        0.555   0.1157   0.1983     H
H        0.555   0.8843   0.6983     H
H       0.5579     0.11   0.4609     H
H       0.5579     0.89   0.9609     H
N       0.5582  0.47346   0.4424     N
N       0.5582  0.52654   0.9424     N
C       0.5658   0.1318   0.8799     C
C       0.5658   0.8682   0.3799     C
C       0.5745   0.1165   0.9829     C
C       0.5745   0.8835   0.4829     C
C       0.5858    0.214    0.841     C
C       0.5858    0.786    0.341     C
H       0.6171   0.4518   0.6339     H
H       0.6171   0.5482   0.1339     H
O       0.6177   0.2903  0.79397     O
O       0.6177   0.7097  0.29397     O
C       0.6224   0.0783  0.14339     C
C       0.6224   0.9217  0.64339     C
H       0.6245   0.1643   0.6631     H
H       0.6245   0.8357   0.1631     H
C       0.6404   0.0384  0.39524     C
C       0.6404   0.9616  0.89524     C
C        0.662   0.3156   0.1086     C
C        0.662   0.6844   0.6086     C
O       0.6667   0.2488   0.7041     O
O       0.6667   0.7512   0.2041     O
C       0.6684   0.0572  0.03352     C
C       0.6684   0.9428  0.53352     C
H       0.6685   0.2473   0.1441     H
H       0.6685   0.7527   0.6441     H
C       0.6801   0.0317  0.07346     C
C       0.6801   0.9683  0.57346     C
C       0.6814  0.08618  0.32889     C
C       0.6814  0.91382  0.82889     C
C       0.6819   0.4036  0.06909     C
C       0.6819   0.5964  0.56909     C
C        0.686   0.4634  0.37556     C
C        0.686   0.5366  0.87556     C
C       0.6903  0.39054  0.70304     C
C       0.6903  0.60946  0.20304     C
H       0.6904   0.0192   0.4189     H
H       0.6904   0.9808   0.9189     H
C       0.6946   0.4923  0.41613     C
C       0.6946   0.5077  0.91613     C
N       0.7105  0.45001  0.99928     N
N       0.7105  0.54999  0.49928     N
C       0.7333   0.0871  0.96923     C
C       0.7333   0.9129  0.46923     C
C        0.736   0.2778   0.1381     C
C        0.736   0.7222   0.6381     C
H       0.7378   0.0311   0.6473     H
H       0.7378   0.9689   0.1473     H
C       0.7383   0.1385  0.89999     C
C       0.7383   0.8615  0.39999     C
O       0.7401  0.14022  0.26653     O
O       0.7401  0.85978  0.76653     O
C        0.743   0.4439  0.63614     C
C        0.743   0.5561  0.13614     C
H       0.7484    0.086    0.146     H
H       0.7484    0.914    0.646     H
H       0.7516    0.414    0.854     H
H       0.7516    0.586    0.354     H
C        0.757   0.0561  0.36386     C
C        0.757   0.9439  0.86386     C
O       0.7599  0.35978  0.73347     O
O       0.7599  0.64022  0.23347     O
C       0.7617   0.3615  0.10001     C
C       0.7617   0.6385  0.60001     C
H       0.7622   0.4689   0.3527     H
H       0.7622   0.5311   0.8527     H
C        0.764   0.2222   0.8619     C
C        0.764   0.7778   0.3619     C
C       0.7667   0.4129  0.03077     C
C       0.7667   0.5871  0.53077     C
N       0.7895  0.04999  0.00072     N
N       0.7895  0.95001  0.50072     N
C       0.8054   0.0077  0.58387     C
C       0.8054   0.9923  0.08387     C
H       0.8096   0.4808   0.5811     H
H       0.8096   0.5192   0.0811     H
C       0.8097  0.10946  0.29696     C
C       0.8097  0.89054  0.79696     C
C        0.814   0.0366  0.62444     C
C        0.814   0.9634  0.12444     C
C       0.8181   0.0964  0.93091     C
C       0.8181   0.9036  0.43091     C
C       0.8186  0.41382  0.67111     C
C       0.8186  0.58618  0.17111     C
C       0.8199   0.4683  0.92654     C
C       0.8199   0.5317  0.42654     C
H       0.8315   0.2527   0.8559     H
H       0.8315   0.7473   0.3559     H
C       0.8316   0.4428  0.96648     C
C       0.8316   0.5572  0.46648     C
O       0.8333   0.2512   0.2959     O
O       0.8333   0.7488   0.7959     O
C        0.838   0.1844   0.8914     C
C        0.838   0.8156   0.3914     C
C       0.8596   0.4616  0.60476     C
C       0.8596   0.5384  0.10476     C
H       0.8755   0.3357   0.3369     H
H       0.8755   0.6643   0.8369     H
C       0.8776   0.4217  0.85661     C
C       0.8776   0.5783  0.35661     C
O       0.8823   0.2097  0.20603     O
O       0.8823   0.7903  0.70603     O
H       0.8829   0.0482   0.3661     H
H       0.8829   0.9518   0.8661     H
C       0.9142    0.286    0.159     C
C       0.9142    0.714    0.659     C
C       0.9255   0.3835   0.0171     C
C       0.9255   0.6165   0.5171     C
C       0.9342   0.3682   0.1201     C
C       0.9342   0.6318   0.6201     C
N       0.9418  0.02654   0.5576     N
N       0.9418  0.97346   0.0576     N
H       0.9421     0.39   0.5391     H
H       0.9421     0.61   0.0391     H
H        0.945   0.3843   0.8017     H
H        0.945   0.6157   0.3017     H
C       0.9498   0.4514  0.89197     C
C       0.9498   0.5486  0.39197     C
C       0.9504   0.0724  0.62337     C
C       0.9504   0.9276  0.12337     C
H       0.9538     0.19   0.9053     H
H       0.9538     0.81   0.4053     H
C       0.9633   0.4018  0.97774     C
C       0.9633   0.5982  0.47774     C
C       0.9681   0.0672  0.91859     C
C       0.9681   0.9328  0.41859     C
O       0.9817  0.10308  0.29945     O
O       0.9817  0.89692  0.79945     O
H       0.9868   0.0963   0.6453     H
H       0.9868   0.9037   0.1453     H
H       0.9895   0.3568   0.0327     H
H       0.9895   0.6432   0.5327     H
C        0.992   0.2434    0.193     C
C        0.992   0.7566    0.693     C
C       0.9923     0.33   0.3503     C
C       0.9923     0.67   0.8503     C
C       0.9944   0.4036   0.8253     C
C       0.9944   0.5964   0.3253     C
H       0.9966   0.3984   0.3859     H
H       0.9966   0.6016   0.8859     H
