data_I
_chemical_name_common  '/home/zhangsd/repos/MofS-CGCNN/ML/data/TSD/clean_cifs/PARFOF_clean_h'
_cell_length_a  6.77970
_cell_length_b  7.50770
_cell_length_c 12.83250
_cell_angle_alpha 107.00900
_cell_angle_beta  103.45400
_cell_angle_gamma 90.00000
_space_group_name_H-M_alt      'P 1'


loop_
_space_group_symop_operation_xyz
  'x, y, z' 

loop_
_atom_site_label
_atom_site_fract_x
_atom_site_fract_y
_atom_site_fract_z
_atom_site_type_symbol
V          0.0      0.0      0.0     V
C       0.0828   0.0879   0.7078     C
O       0.0938   0.1519   0.9138     O
C       0.0944    0.967    0.514     C
H      0.12012   0.3906  0.52866     H
C       0.1278   0.8679   0.3218     C
H      0.13583  0.30882  0.34317     H
C       0.1528   0.0934   0.8228     C
O       0.1644   0.2117   0.1434     O
C       0.2012   0.0001   0.6262     C
H      0.21342  0.81428  0.25341     H
C       0.2174   0.8952   0.4384     C
O         0.25    0.879      0.0     O
H      0.27892  0.55669  0.74283     H
C       0.2826   0.4568   0.5616     C
C       0.2988   0.3739   0.3738     C
O       0.3356   0.0683   0.8566     O
C       0.3472   0.2706   0.1772     C
H      0.36417  0.96564  0.65683     H
C       0.3722   0.5461   0.6782     C
H      0.37988  0.86193  0.47134     H
C       0.4056    0.453    0.486     C
O       0.4062   0.2381   0.0862     O
C       0.4172   0.3801   0.2922     C
V          0.5     -0.0     -0.0     V
C       0.5828   0.6199   0.7078     C
O       0.5938   0.7619   0.9138     O
C       0.5944    0.547    0.514     C
H      0.61923  0.14061  0.53357     H
C       0.6278   0.4539   0.3218     C
H      0.63583  0.03436  0.34317     H
C       0.6528   0.7294   0.8228     C
O       0.6644   0.9317   0.1434     O
C       0.7012   0.6261   0.6262     C
H      0.71342  0.43913  0.25341     H
C       0.7174   0.5432   0.4384     C
O         0.75    0.121     -0.0     O
C       0.7826   0.1048   0.5616     C
H      0.78658  0.18572  0.74659     H
C       0.7988   0.9999   0.3738     C
O       0.8356   0.7883   0.8566     O
C       0.8472   0.9066   0.1772     C
H      0.86417  0.69118  0.65683     H
C       0.8722   0.1321   0.6782     C
H      0.88077  0.60704  0.46643     H
C       0.9056    0.033    0.486     C
O       0.9062   0.8481   0.0862     O
C       0.9172   0.9121   0.2922     C
