data_I
_chemical_name_common  '/home/zhangsd/repos/MofS-CGCNN/ML/data/TSD/clean_cifs/PARVUB_clean'
_cell_length_a 10.52350
_cell_length_b 19.09000
_cell_length_c 23.34910
_cell_angle_alpha 99.71010
_cell_angle_beta  103.02400
_cell_angle_gamma 90.00000
_space_group_name_H-M_alt      'P 1'


loop_
_space_group_symop_operation_xyz
  'x, y, z' 

loop_
_atom_site_label
_atom_site_fract_x
_atom_site_fract_y
_atom_site_fract_z
_atom_site_type_symbol
C      0.00124  0.43808  0.88108     C
C      0.00523  0.61835  0.09006     C
H       0.0053   0.3628    0.564     H
C       0.0101   0.8096   0.1106     C
C      0.01112  0.63037  0.57504     C
O       0.0153   0.6956   0.8866     O
C      0.01613  0.90283  0.26606     C
Co     0.01766     0.75      1.0    Co
H       0.0198   0.1203    0.309     H
H       0.0246   0.3505    0.393     H
C      0.02481   0.6224  0.47242     C
H       0.0264    0.556   0.3386     H
C      0.02848  0.34902  0.47956     C
N      0.03144  0.35807  0.69868     N
C      0.03538  0.42608  0.68996     C
C      0.03604  0.13242  0.27248     C
C      0.03665  0.88627   0.9489     C
C      0.03753  0.15409  0.83686     C
C      0.03794   0.0019  0.10928     C
H       0.0383   0.7409   0.3386     H
H       0.0439   0.3418   0.9036     H
O      0.05277  0.41921  0.31254     O
C      0.05353  0.86745  0.21646     C
H       0.0554   0.4362   0.8544     H
H       0.0567   0.0392   0.5572     H
C      0.06407  0.01919  0.51714     C
H       0.0645   0.4648   0.1296     H
H       0.0651   0.9648   0.1296     H
C      0.07134   0.5019  0.10928     C
C      0.07466  0.69488  0.32892     C
O       0.0764  0.21489   0.9366     O
H       0.0765   0.2382   0.3068     H
H       0.0774   0.8578   0.8086     H
H       0.0777   0.3578   0.2186     H
H       0.0814   0.0581   0.4978     H
C      0.08166  0.00377  0.92932     C
H       0.0825   0.0939   0.2548     H
C      0.08483  0.11835  0.09006     C
C      0.08775  0.61373   0.0511     C
H       0.0921   0.3154   0.4846     H
C      0.09238  0.86157  0.76976     C
N      0.09738  0.83879  0.98496     N
C       0.1005   0.3096   0.1106     C
C      0.10544  0.58038  0.58108     C
H       0.1071   0.7242   0.7898     H
N      0.11242  0.66121  0.01504     N
C      0.11427  0.08322  0.73654     C
H       0.1157   0.7131   0.2512     H
O      0.11644  0.99802  0.35788     O
C      0.11843  0.94713  0.95826     C
C      0.11945   0.5736   0.4771     C
C      0.12016  0.06192  0.11892     C
O      0.12156  0.87459  0.36932     O
C       0.1223  0.20014    0.288     C
H       0.1235    0.682   0.3658     H
O       0.1287   0.8044   0.1134     O
N      0.13479  0.46475  0.72558     N
H       0.1355   0.2131   0.2512     H
H        0.136   0.0441   0.9358     H
C       0.1373  0.35128   0.7444     C
H       0.1377   0.2494   0.7596     H
S      0.13791  0.92588   0.3328     S
H       0.1396   0.0594    0.703     H
O       0.1398  0.28511   0.0634     O
H       0.1403   0.1582   0.0964     H
H       0.1409   0.8578   0.2186     H
H       0.1461   0.9043   0.7742     H
C      0.14899  0.73359  0.76078     C
C      0.15234  0.49623  0.07068     C
H       0.1554   0.5551    0.445     H
C      0.15905  0.55311   0.5327     C
H       0.1595   0.9308     0.54     H
C      0.16017  0.55287  0.04174     C
N      0.16175   0.7994   0.7485     N
C      0.16293  0.36745  0.21646     C
Co     0.16342  0.57267  0.72174    Co
C       0.1657  0.70014    0.288     C
N      0.16688  0.55024  0.63036     N
C      0.16733  0.13961  0.83966     C
H       0.1723   0.5939   0.2548     H
H       0.1756   0.2313   0.5916     H
C      0.17668  0.96957  0.52036     C
C      0.18166  0.29355  0.77112     C
H       0.1837   0.9494   0.4802     H
S      0.19489  0.42588   0.3328     S
C      0.19564  0.62907  0.98568     C
H       0.2002   0.4559   0.0642     H
C      0.20067  0.34591  0.16314     C
N       0.2008  0.68412   0.7282     N
H        0.201   0.0638   0.1456     H
C      0.20208   0.4182  0.76116     C
C      0.20773  0.10509  0.78986     C
C      0.20996  0.87093  0.01432     C
N      0.22757  0.56499  0.99954     N
C      0.22759  0.79236  0.70298     C
N      0.22803  0.93501  0.00046     N
H       0.2285   0.1532   0.8754     H
H       0.2289   0.6489    0.958     H
H       0.2303   0.7382   0.3068     H
C      0.23644  0.63242  0.27248     C
O      0.24144  0.49802  0.35788     O
H       0.2423    0.182   0.3658     H
H       0.2447   0.8893   0.6792     H
O      0.24776  0.37459  0.36932     O
H       0.2497   0.3476    0.607     H
C      0.24993  0.40283  0.26606     C
C      0.25219  0.50838  0.61098     C
N       0.2527  0.50662   0.5532     N
C      0.25277  0.24586  0.61954     C
C      0.25426  0.19488  0.32892     C
C      0.25512   0.7204  0.69164     C
O      0.25977  0.91921  0.31254     O
C      0.26493  0.84171  0.67186     C
H       0.2688   0.6422   0.1914     H
H       0.2709   0.8511    0.042     H
H       0.2843   0.4691    0.967     H
H       0.2892   0.6203    0.309     H
H       0.2896   0.0551    0.445     H
H       0.2916   0.1495   0.6434     H
C      0.29311  0.30483  0.81522     C
H       0.2965   0.4494   0.4802     H
C      0.29673   0.3165  0.62966     C
H       0.3003   0.2409   0.3386     H
N       0.3005  0.00662   0.5532     N
H        0.308    0.482   0.6352     H
H       0.3122    0.056   0.3386     H
C      0.31396  0.42873  0.80692     C
H       0.3173   0.0309    0.033     H
H       0.3173   0.7758   0.2102     H
C        0.318   0.5178    0.974     C
C      0.32143  0.19674  0.65026     C
C      0.32262  0.63843  0.23024     C
H       0.3234   0.5298   0.9358     H
H       0.3267   0.2672   0.8338     H
H       0.3272    0.982   0.6352     H
C      0.32767  0.36039  0.16034     C
C      0.32883  0.69674  0.65026     C
N      0.33276  0.14193  0.30132     N
C      0.33293   0.8165  0.62966     C
C      0.34368  0.46957  0.52036     C
C        0.344   0.9822    0.026     C
C      0.34542  0.07392  0.31004     C
C      0.35028  0.09286  0.79256     C
H       0.3518   0.6495   0.6434     H
H       0.3531   0.3468   0.1246     H
H       0.3573   0.8476    0.607     H
H       0.3576    0.473   0.8194     H
C      0.35765   0.0736   0.4771     C
C      0.35802  0.37122  0.83324     C
C      0.35879  0.00838  0.61098     C
O      0.36576  0.56288   0.7453     O
C      0.36677  0.74586  0.61954     C
H       0.3684   0.8505    0.393     H
H       0.3719   0.5957   0.2258     H
C      0.37365  0.05311   0.5327     C
C      0.37773  0.41678  0.26346     C
H       0.3781   0.2506   0.2404     H
O      0.37954  0.06288   0.7453     O
H       0.3805   0.4308     0.54     H
H       0.3876   0.9702   0.0642     H
C      0.38821  0.76641  0.23922     C
H       0.3925   0.8154   0.4846     H
C       0.3929  0.14872   0.2556     C
H       0.3961   0.9905   0.9482     H
C      0.40693  0.34171  0.67186     C
N      0.40921  0.03525  0.27442     N
C      0.41054  0.20645  0.22888     C
O      0.41165  0.61354  0.84096     O
N      0.41325   0.7006   0.2515     N
H        0.416   0.7313   0.5916     H
H       0.4164   0.5581   0.4978     H
C      0.41787  0.39491  0.21014     C
O      0.42931  0.11354  0.84096     O
H       0.4308   0.8769   0.8638     H
H        0.433   0.3769   0.8638     H
H       0.4345   0.3893   0.6792     H
C      0.43608  0.86963  0.42496     C
C      0.43652   0.2204  0.69164     C
H       0.4366   0.4406    0.297     H
C      0.43824   0.9764  0.98568     C
C      0.44092   0.0818  0.23884     C
H       0.4413   0.1372    0.436     H
Co     0.44168  0.92733  0.27826    Co
C      0.44228  0.59286  0.79256     C
C      0.44761   0.1224  0.47242     C
H       0.4479   0.5095   0.0518     H
C      0.45108  0.84902  0.47956     C
C      0.45256   0.5236  0.01432     C
C      0.45307  0.51919  0.51714     C
H       0.4618    0.973   0.8194     H
H       0.4622   0.9273   0.9772     H
N      0.46348  0.05024  0.63036     N
N       0.4726  0.81588   0.2718     N
C      0.47522  0.87122  0.83324     C
C      0.47539  0.29236  0.70298     C
C      0.47564  0.08038  0.58108     C
C      0.47789  0.19517  0.18478     C
H        0.485   0.5727   0.0228     H
H       0.4929   0.2328   0.1662     H
C      0.49296  0.92873  0.80692     C
H       0.4995   0.4608   0.4428     H
H       0.5005   0.5392   0.5572     H
C      0.50704  0.07127  0.19308     C
H       0.5071   0.7672   0.8338     H
H        0.515   0.4273   0.9772     H
C      0.52211  0.80483  0.81522     C
C      0.52436  0.91962  0.41892     C
C      0.52461  0.70764  0.29702     C
C      0.52478  0.12878  0.16676     C
N       0.5274  0.18412   0.7282     N
N      0.53652  0.94976  0.36964     N
H       0.5378   0.0727   0.0228     H
H       0.5382    0.027   0.1806     H
C      0.54693  0.48081  0.48286     C
C      0.54744   0.4764  0.98568     C
C      0.54892  0.15098  0.52044     C
H       0.5521   0.4905   0.9482     H
C      0.55239   0.8776  0.52758     C
C      0.55772  0.40714  0.20744     C
Co     0.55832  0.07267  0.72174    Co
H       0.5587   0.8628    0.564     H
C      0.55908   0.9182  0.76116     C
C      0.56176   0.0236  0.01432     C
H       0.5634   0.5594    0.703     H
C      0.56348   0.7796  0.30836     C
C      0.56392  0.13037  0.57504     C
H       0.5655   0.6107   0.3208     H
H        0.567   0.6231   0.1362     H
H       0.5692   0.1231   0.1362     H
O      0.57069  0.88646  0.15904     O
C      0.58213  0.60509  0.78986     C
H       0.5836   0.4419   0.5022     H
H        0.584   0.2687   0.4084     H
N      0.58675   0.2994   0.7485     N
O      0.58835  0.38646  0.15904     O
C      0.58946  0.79355  0.77112     C
N      0.59079  0.96475  0.72558     N
C      0.59307  0.65829  0.32814     C
H       0.6039   0.0095   0.0518     H
C       0.6071  0.85128   0.7444     C
H       0.6075   0.1846   0.5154     H
C      0.61179  0.23359  0.76078     C
H       0.6124   0.0298   0.9358     H
H       0.6195   0.5692     0.46     H
O      0.62046  0.93712   0.2547     O
H       0.6219   0.7494   0.7596     H
C      0.62227  0.58322  0.73654     C
C      0.62635  0.94689   0.4673     C
H       0.6281   0.4043   0.7742     H
H       0.6316   0.1495    0.607     H
C      0.63323  0.25414  0.38046     C
O      0.63424  0.43712   0.2547     O
C      0.64121  0.99162  0.38902     C
C      0.64198  0.62878  0.16676     C
C      0.64235   0.9264   0.5229     C
H       0.6424    0.527   0.1806     H
H       0.6427   0.1524    0.393     H
H       0.6469   0.6532   0.8754     H
H       0.6482   0.3505   0.3566     H
C      0.64972  0.90714  0.20744     C
C      0.65458  0.92608  0.68996     C
C        0.656   0.0178    0.974     C
C      0.65632  0.53043  0.47964     C
C      0.66707   0.1835  0.37034     C
N      0.66724  0.85807  0.69868     N
C      0.67117  0.30326  0.34974     C
C      0.67233  0.63961  0.83966     C
H       0.6728    0.018   0.3648     H
H       0.6733   0.7328   0.1662     H
H       0.6766   0.4702   0.0642     H
C      0.67738  0.36157  0.76976     C
C      0.67857  0.80326  0.34974     C
C        0.682   0.4822    0.026     C
H       0.6827   0.2242   0.7898     H
H       0.6827   0.9691    0.967     H
C      0.68604  0.57127  0.19308     C
H       0.6878    0.944   0.6614     H
H        0.692    0.518   0.3648     H
N       0.6995  0.99338   0.4468     N
H       0.6997   0.7591   0.6614     H
C      0.70327   0.6835  0.37034     C
H       0.7035   0.5506   0.5198     H
C      0.70689  0.69517  0.18478     C
H       0.7084   0.8505   0.3566     H
H       0.7104   0.9449    0.555     H
H       0.7108   0.3797    0.691     H
H       0.7157   0.5309    0.033     H
H       0.7291   0.1489    0.958     H
H       0.7312   0.3578   0.8086     H
C      0.73507  0.15829  0.32814     C
O      0.74023  0.08079  0.68746     O
C      0.74488   0.2796  0.30836     C
C      0.74574  0.80512  0.67108     C
C      0.74723  0.75414  0.38046     C
N       0.7473  0.49338   0.4468     N
C      0.74781  0.49162  0.38902     C
C      0.75007  0.59717  0.73394     C
H       0.7503   0.6524    0.393     H
O      0.75224  0.62541  0.63068     O
H       0.7553   0.1107   0.3208     H
H       0.7577    0.818   0.6342     H
O      0.75856  0.50198  0.64212     O
C      0.76356  0.36758  0.72752     C
H       0.7697   0.2618   0.6932     H
H       0.7711   0.3511    0.042     H
H       0.7715   0.8468   0.1246     H
N      0.77197  0.06499  0.99954     N
C      0.77241  0.20764  0.29702     C
N      0.77243  0.43501  0.00046     N
C      0.79004  0.12907  0.98568     C
C      0.79227  0.89491  0.21014     C
C      0.79792   0.5818  0.23884     C
H        0.799   0.9362   0.8544     H
N       0.7992  0.31588   0.2718     N
C      0.79933  0.65409  0.83686     C
H       0.7998   0.5441   0.9358     H
C      0.80436  0.37093  0.01432     C
S      0.80511  0.57412   0.6672     S
H       0.8163   0.0506   0.5198     H
C      0.81834  0.70645  0.22888     C
C      0.82332  0.03043  0.47964     C
H       0.8244   0.7687   0.4084     H
H       0.8277   0.4061   0.7452     H
C      0.83267  0.86039  0.16034     C
N      0.83312  0.44976  0.36964     N
C       0.8343  0.29986    0.712     C
Co     0.83658  0.42733  0.27826    Co
C      0.83707  0.63255  0.78354     C
N      0.83825   0.2006   0.2515     N
C      0.83983  0.44713  0.95826     C
H       0.8405   0.0692     0.46     H
C      0.84095  0.44689   0.4673     C
H       0.8446   0.4449    0.555     H
C      0.84766  0.50377  0.92932     C
C      0.85101  0.26641  0.23922     C
H       0.8539   0.0957   0.2258     H
H       0.8591   0.1422   0.7814     H
H       0.8597   0.8418   0.9036     H
O       0.8602  0.71489   0.9366     O
H       0.8604   0.9406    0.297     H
S      0.86209  0.07412   0.6672     S
H       0.8623   0.7506   0.2404     H
C       0.8627  0.64872   0.2556     C
H        0.864   0.9559   0.0642     H
H       0.8645   0.7869   0.7488     H
N      0.86521  0.53525  0.27442     N
O       0.8713   0.1956   0.8866     O
H       0.8765    0.318   0.6342     H
C       0.8777  0.79986    0.712     C
O      0.87844  0.12541  0.63068     O
C      0.87984  0.93808  0.88108     C
C      0.88055   0.4264   0.5229     C
C      0.88157  0.05287  0.04174     C
O      0.88356  0.00198  0.64212     O
H       0.8843   0.2869   0.7488     H
C      0.88573  0.91678  0.26346     C
N      0.88758  0.33879  0.98496     N
H       0.8929   0.2758   0.2102     H
C      0.89456  0.41962  0.41892     C
C       0.8995   0.6904   0.8894     C
N      0.90262  0.16121  0.01504     N
C      0.90762  0.13843  0.23024     C
H       0.9079   0.6846   0.5154     H
C      0.91225  0.38627   0.9489     C
C      0.91517  0.88165  0.90994     C
H       0.9175   0.9061   0.7452     H
C      0.91834  0.99623  0.07068     C
H       0.9186   0.9419   0.5022     H
H       0.9223   0.6422   0.7814     H
H       0.9226   0.1422   0.1914     H
H       0.9235   0.7618   0.6932     H
O       0.9236  0.78511   0.0634     O
C      0.92534  0.30512  0.67108     C
C      0.92866   0.4981  0.89072     C
H       0.9349   0.0352   0.8704     H
H       0.9355   0.5352   0.8704     H
C      0.93593  0.98081  0.48286     C
H       0.9433   0.9608   0.4428     H
H       0.9446   0.5638   0.1456     H
C      0.94647  0.13255  0.78354     C
O      0.94723  0.58079  0.68746     O
H       0.9561   0.6582   0.0964     H
H       0.9617   0.2591   0.6614     H
C      0.96206   0.9981  0.89072     C
C      0.96247  0.84591  0.16314     C
C      0.96335  0.11373   0.0511     C
C      0.96396  0.86758  0.72752     C
C      0.96462  0.57392  0.31004     C
N      0.96856  0.64193  0.30132     N
C      0.97152  0.65098  0.52044     C
H       0.9736    0.444   0.6614     H
C      0.97519   0.3776  0.52758     C
H       0.9754   0.6495    0.607     H
H       0.9802   0.8797    0.691     H
Co     0.98234     0.25     -0.0    Co
C      0.98387  0.09717  0.73394     C
O       0.9847   0.3044   0.1134     O
C      0.98888  0.36963  0.42496     C
C       0.9899   0.1904   0.8894     C
H       0.9947   0.6372    0.436     H
C      0.99477  0.38165  0.90994     C
C      0.99876  0.56192  0.11892     C
