data_I
_chemical_name_common  '/home/zhangsd/repos/MofS-CGCNN/ML/data/TSD/clean_cifs/PEFRID_clean'
_cell_length_a 15.51170
_cell_length_b 25.52730
_cell_length_c 17.10050
_cell_angle_alpha 98.29800
_cell_angle_beta  90.00000
_cell_angle_gamma 90.00000
_space_group_name_H-M_alt      'P 1'


loop_
_space_group_symop_operation_xyz
  'x, y, z' 

loop_
_atom_site_label
_atom_site_fract_x
_atom_site_fract_y
_atom_site_fract_z
_atom_site_type_symbol
H       0.0006   0.1136   0.3807     H
N       0.0062   0.5623   0.0915     N
C       0.0083   0.0541   0.2237     C
N        0.014   0.9518   0.5663     N
C       0.0141    0.461   0.8423     C
C       0.0168   0.0226   0.4945     C
C       0.0199    0.013   0.1619     C
C       0.0212   0.0964   0.4214     C
H       0.0231   0.3765   0.9669     H
C       0.0242   0.4756   0.5031     C
N       0.0251    0.438   0.4358     N
H       0.0257   0.9509   0.7332     H
C        0.027   0.0346   0.8375     C
C        0.028   0.4922   0.1658     C
H       0.0304   0.5049   0.2853     H
N       0.0314   0.0713   0.9058     N
C       0.0367   0.3921   0.9226     C
H       0.0398   0.1303   0.2626     H
C       0.0433   0.4802   0.2413     C
N       0.0472   0.4554   0.1001     N
C       0.0476   0.1028   0.2212     C
H       0.0661   0.4909   0.6161     H
C       0.0667   0.4657    0.571     C
C       0.0687   0.3904   0.4363     C
H       0.0693   0.3653   0.3912     H
N       0.0708   0.0206   0.0975     N
H       0.0712    0.018   0.7254     H
C       0.0741   0.0426   0.7711     C
C       0.0773   0.4389   0.7901     C
C       0.0778   0.4313   0.2511     C
C       0.0817   0.4065   0.1099     C
C       0.0828   0.0452    0.543     C
C       0.0829   0.1161   0.9077     C
H       0.0858   0.1406   0.9534     H
C       0.0872   0.1191   0.4699     C
H        0.088   0.4233   0.3016     H
H       0.0909   0.4545   0.7458     H
H       0.0946   0.3818   0.0659     H
C        0.097   0.3945   0.1854     C
C       0.0985   0.1104   0.1569     C
C       0.0998   0.3699   0.8703     C
H       0.1034   0.0281   0.5837     H
C       0.1101   0.0693    0.095     C
C       0.1102   0.4182   0.5715     C
C       0.1112   0.3805   0.5041     C
O       0.1163   0.1853   0.3884     O
C        0.118   0.0935   0.5307     C
O        0.118   0.1981   0.2029     O
C       0.1201   0.3933   0.8041     C
C       0.1256   0.0873   0.7729     C
C       0.1281   0.1726   0.4579     C
C         0.13   0.1241   0.8412     C
C       0.1303   0.3417   0.1953     C
C       0.1369   0.1621   0.1472     C
H       0.1387   0.4116    0.617     H
O       0.1395    0.309   0.1355     O
H       0.1441   0.0743    0.052     H
O       0.1447   0.3105   0.9542     O
O       0.1481   0.3321   0.2615     O
C       0.1528   0.3206   0.8847     C
H       0.1571   0.0927   0.7285     H
C       0.1609    0.334   0.5046     C
H       0.1622   0.1086   0.5632     H
H       0.1624   0.3785   0.7692     H
O       0.1643   0.3016   0.4424     O
O       0.1655   0.1996   0.5131     O
Sm     0.17486  0.25065  0.31457    Sm
O       0.1777    0.168   0.0876     O
C       0.1866    0.171   0.8409     C
O        0.195   0.2991   0.8291     O
O       0.1955   0.2008   0.9069     O
O       0.1993   0.3254    0.564     O
Sm     0.20547  0.24954  0.03682    Sm
O       0.2247   0.1782   0.7803     O
O       0.2753   0.1782   0.2803     O
Sm     0.29453  0.24954  0.53682    Sm
O       0.3007   0.3254    0.064     O
O       0.3045   0.2008   0.4069     O
O        0.305   0.2991   0.3291     O
C       0.3134    0.171   0.3409     C
O       0.3223    0.168   0.5876     O
Sm     0.32514  0.25065  0.81457    Sm
O       0.3345   0.1996   0.0131     O
O       0.3357   0.3016   0.9424     O
H       0.3376   0.3785   0.2692     H
H       0.3378   0.1086   0.0632     H
C       0.3391    0.334   0.0046     C
H       0.3429   0.0927   0.2285     H
C       0.3472   0.3206   0.3847     C
O       0.3519   0.3321   0.7615     O
O       0.3553   0.3105   0.4542     O
H       0.3559   0.0743    0.552     H
O       0.3605    0.309   0.6355     O
H       0.3613   0.4116    0.117     H
C       0.3631   0.1621   0.6472     C
C       0.3697   0.3417   0.6953     C
C         0.37   0.1241   0.3412     C
C       0.3719   0.1726   0.9579     C
C       0.3744   0.0873   0.2729     C
C       0.3799   0.3933   0.3041     C
C        0.382   0.0935   0.0307     C
O        0.382   0.1981   0.7029     O
O       0.3837   0.1853   0.8884     O
C       0.3888   0.3805   0.0041     C
C       0.3898   0.4182   0.0715     C
C       0.3899   0.0693    0.595     C
H       0.3966   0.0281   0.0837     H
C       0.4002   0.3699   0.3703     C
C       0.4015   0.1104   0.6569     C
C        0.403   0.3945   0.6854     C
H       0.4054   0.3818   0.5659     H
H       0.4091   0.4545   0.2458     H
H        0.412   0.4233   0.8016     H
C       0.4128   0.1191   0.9699     C
H       0.4142   0.1406   0.4534     H
C       0.4171   0.1161   0.4077     C
C       0.4172   0.0452    0.043     C
C       0.4183   0.4065   0.6099     C
C       0.4222   0.4313   0.7511     C
C       0.4227   0.4389   0.2901     C
C       0.4259   0.0426   0.2711     C
H       0.4288    0.018   0.2254     H
N       0.4292   0.0206   0.5975     N
H       0.4307   0.3653   0.8912     H
C       0.4313   0.3904   0.9363     C
C       0.4333   0.4657    0.071     C
H       0.4339   0.4909   0.1161     H
C       0.4524   0.1028   0.7212     C
N       0.4528   0.4554   0.6001     N
C       0.4567   0.4802   0.7413     C
H       0.4602   0.1303   0.7626     H
C       0.4633   0.3921   0.4226     C
N       0.4686   0.0713   0.4058     N
H       0.4696   0.5049   0.7853     H
C        0.472   0.4922   0.6658     C
C        0.473   0.0346   0.3375     C
H       0.4743   0.9509   0.2332     H
N       0.4749    0.438   0.9358     N
C       0.4758   0.4756   0.0031     C
H       0.4769   0.3765   0.4669     H
C       0.4788   0.0964   0.9214     C
C       0.4801    0.013   0.6619     C
C       0.4832   0.0226   0.9945     C
C       0.4859    0.461   0.3423     C
N        0.486   0.9518   0.0663     N
C       0.4917   0.0541   0.7237     C
N       0.4938   0.5623   0.5915     N
H       0.4994   0.1136   0.8807     H
H       0.5006   0.8864   0.1193     H
N       0.5062   0.4377   0.4085     N
C       0.5083   0.9459   0.2763     C
N        0.514   0.0482   0.9337     N
C       0.5141    0.539   0.6577     C
C       0.5168   0.9774   0.0055     C
C       0.5199    0.987   0.3381     C
C       0.5212   0.9036   0.0786     C
H       0.5231   0.6235   0.5331     H
C       0.5242   0.5244   0.9969     C
N       0.5251    0.562   0.0642     N
H       0.5257   0.0491   0.7668     H
C        0.527   0.9654   0.6625     C
C        0.528   0.5078   0.3342     C
H       0.5304   0.4951   0.2147     H
N       0.5314   0.9287   0.5942     N
C       0.5367   0.6079   0.5774     C
H       0.5398   0.8697   0.2374     H
C       0.5433   0.5198   0.2587     C
N       0.5472   0.5446   0.3999     N
C       0.5476   0.8972   0.2788     C
H       0.5661   0.5091   0.8839     H
C       0.5667   0.5343    0.929     C
C       0.5687   0.6096   0.0637     C
H       0.5693   0.6347   0.1088     H
N       0.5708   0.9794   0.4025     N
H       0.5712    0.982   0.7746     H
C       0.5741   0.9574   0.7289     C
C       0.5773   0.5611   0.7099     C
C       0.5778   0.5687   0.2489     C
C       0.5817   0.5935   0.3901     C
C       0.5828   0.9548    0.957     C
C       0.5829   0.8839   0.5923     C
H       0.5858   0.8594   0.5466     H
C       0.5872   0.8809   0.0301     C
H        0.588   0.5767   0.1984     H
H       0.5909   0.5455   0.7542     H
H       0.5946   0.6182   0.4341     H
C        0.597   0.6055   0.3146     C
C       0.5985   0.8896   0.3431     C
C       0.5998   0.6301   0.6297     C
H       0.6034   0.9719   0.9163     H
C       0.6101   0.9307    0.405     C
C       0.6102   0.5818   0.9285     C
C       0.6112   0.6195   0.9959     C
O       0.6163   0.8147   0.1116     O
O        0.618   0.8019   0.2971     O
C        0.618   0.9065   0.9693     C
C       0.6201   0.6067   0.6959     C
C       0.6256   0.9127   0.7271     C
C       0.6281   0.8274   0.0421     C
C         0.63   0.8759   0.6588     C
C       0.6303   0.6583   0.3047     C
C       0.6369   0.8379   0.3528     C
H       0.6387   0.5884    0.883     H
O       0.6395    0.691   0.3645     O
H       0.6441   0.9257    0.448     H
O       0.6447   0.6895   0.5458     O
O       0.6481   0.6679   0.2385     O
C       0.6528   0.6794   0.6153     C
H       0.6571   0.9073   0.7715     H
C       0.6609    0.666   0.9954     C
H       0.6622   0.8914   0.9368     H
H       0.6624   0.6215   0.7308     H
O       0.6643   0.6984   0.0576     O
O       0.6655   0.8004   0.9869     O
Sm     0.67486  0.74935  0.18543    Sm
O       0.6777    0.832   0.4124     O
C       0.6866    0.829   0.6591     C
O        0.695   0.7009   0.6709     O
O       0.6955   0.7992   0.5931     O
O       0.6993   0.6746    0.936     O
Sm     0.70547  0.75046  0.46318    Sm
O       0.7247   0.8218   0.7197     O
O       0.7753   0.8218   0.2197     O
Sm     0.79453  0.75046  0.96318    Sm
O       0.8007   0.6746    0.436     O
O       0.8045   0.7992   0.0931     O
O        0.805   0.7009   0.1709     O
C       0.8134    0.829   0.1591     C
O       0.8223    0.832   0.9124     O
Sm     0.82514  0.74935  0.68543    Sm
O       0.8345   0.8004   0.4869     O
O       0.8357   0.6984   0.5576     O
H       0.8376   0.6215   0.2308     H
H       0.8378   0.8914   0.4368     H
C       0.8391    0.666   0.4954     C
H       0.8429   0.9073   0.2715     H
C       0.8472   0.6794   0.1153     C
O       0.8519   0.6679   0.7385     O
O       0.8553   0.6895   0.0458     O
H       0.8559   0.9257    0.948     H
O       0.8605    0.691   0.8645     O
H       0.8613   0.5884    0.383     H
C       0.8631   0.8379   0.8528     C
C       0.8697   0.6583   0.8047     C
C         0.87   0.8759   0.1588     C
C       0.8719   0.8274   0.5421     C
C       0.8744   0.9127   0.2271     C
C       0.8799   0.6067   0.1959     C
O        0.882   0.8019   0.7971     O
C        0.882   0.9065   0.4693     C
O       0.8837   0.8147   0.6116     O
C       0.8888   0.6195   0.4959     C
C       0.8898   0.5818   0.4285     C
C       0.8899   0.9307    0.905     C
H       0.8966   0.9719   0.4163     H
C       0.9002   0.6301   0.1297     C
C       0.9015   0.8896   0.8431     C
C        0.903   0.6055   0.8146     C
H       0.9054   0.6182   0.9341     H
H       0.9091   0.5455   0.2542     H
H        0.912   0.5767   0.6984     H
C       0.9128   0.8809   0.5301     C
H       0.9142   0.8594   0.0466     H
C       0.9171   0.8839   0.0923     C
C       0.9172   0.9548    0.457     C
C       0.9183   0.5935   0.8901     C
C       0.9222   0.5687   0.7489     C
C       0.9227   0.5611   0.2099     C
C       0.9259   0.9574   0.2289     C
H       0.9288    0.982   0.2746     H
N       0.9292   0.9794   0.9025     N
H       0.9307   0.6347   0.6088     H
C       0.9313   0.6096   0.5637     C
C       0.9333   0.5343    0.429     C
H       0.9339   0.5091   0.3839     H
C       0.9524   0.8972   0.7788     C
N       0.9528   0.5446   0.8999     N
C       0.9567   0.5198   0.7587     C
H       0.9602   0.8697   0.7374     H
C       0.9633   0.6079   0.0774     C
N       0.9686   0.9287   0.0942     N
H       0.9696   0.4951   0.7147     H
C        0.972   0.5078   0.8342     C
C        0.973   0.9654   0.1625     C
H       0.9743   0.0491   0.2668     H
N       0.9749    0.562   0.5642     N
C       0.9758   0.5244   0.4969     C
H       0.9769   0.6235   0.0331     H
C       0.9788   0.9036   0.5786     C
C       0.9801    0.987   0.8381     C
C       0.9832   0.9774   0.5055     C
C       0.9859    0.539   0.1577     C
N        0.986   0.0482   0.4337     N
C       0.9917   0.9459   0.7763     C
N       0.9938   0.4377   0.9085     N
H       0.9994   0.8864   0.6193     H
