data_I
_chemical_name_common  '/home/zhangsd/repos/MofS-CGCNN/ML/data/TSD/clean_cifs/PEJPIF_charged'
_cell_length_a 14.41890
_cell_length_b 14.59320
_cell_length_c 18.05710
_cell_angle_alpha 66.23010
_cell_angle_beta  66.46820
_cell_angle_gamma 60.39440
_space_group_name_H-M_alt      'P 1'


loop_
_space_group_symop_operation_xyz
  'x, y, z' 

loop_
_atom_site_label
_atom_site_fract_x
_atom_site_fract_y
_atom_site_fract_z
_atom_site_type_symbol
C       0.0039   0.7334   0.8982     C
O       0.0165   0.7263   0.2027     O
C         0.02   0.2578    0.177     C
Zn     0.03332  0.74883  0.02083    Zn
O       0.0355   0.9045   0.9499     O
C       0.0452   0.7578    0.677     C
C       0.0488   0.2442   0.3226     C
H        0.057   0.2416    0.372     H
C       0.0603     0.75     0.75     C
O       0.0739   0.2462   0.0392     O
O       0.0849   0.5798    0.091     O
O      0.08576  0.19344  0.88664     O
C        0.094     0.24   0.8106     C
O       0.0961   0.7096    0.901     O
C       0.1156   0.2558   0.1774     C
H       0.1218    0.937   0.9866     H
H       0.1248     0.75     0.75     H
H       0.1293   0.2798   0.6498     H
C       0.1321   0.9081   0.9427     C
C       0.1325     0.25     0.25     C
H       0.1345   0.8389   0.0781     H
C       0.1355   0.7666   0.6018     C
O       0.1407   0.7462   0.5392     O
H       0.1456   0.7247   0.1415     H
H       0.1516   0.9567   0.8893     H
H       0.1706   0.2584    0.128     H
C       0.1789    0.762    0.088     C
C       0.1838   0.1727   0.7501     C
C        0.184   0.2131   0.6677     C
N       0.1868   0.7221   0.0229     N
C       0.1934   0.5368   0.0944     C
H        0.195   0.5304   0.1496     H
O       0.1986   0.2892   0.4948     O
O       0.2067   0.7904    0.599     O
C       0.2233   0.7975   0.9489     C
H       0.2313   0.4643   0.0853     H
C       0.2337     0.25     0.25     C
O       0.2363   0.2517   0.3175     O
H       0.2433   0.7739   0.8995     H
H       0.2513   0.7486   0.0876     H
C        0.252   0.6079   0.0295     C
O       0.2557   0.9202    0.409     O
C       0.2651   0.0761   0.7775     C
H       0.2652   0.0503   0.8337     H
C       0.2661   0.1546     0.61     C
C       0.2705   0.2027   0.5183     C
H       0.2726   0.5942   0.9758     H
H       0.2809   0.0357   0.4147     H
H       0.2876   0.7996   0.9524     H
Zn     0.30298  0.75117  0.47917    Zn
O       0.3055   0.2483   0.1825     O
H       0.3191    0.588   0.0434     H
C       0.3246   0.9632   0.4056     C
O      0.33416  0.69344  0.38664     O
H       0.3426   0.9058   0.5242     H
C       0.3456   0.0182    0.722     C
C       0.3468    0.058   0.6368     C
Zn     0.35061  0.23808  0.35586    Zn
H       0.3508   0.5503   0.3337     H
O       0.3538  0.15155  0.46945     O
C       0.3554     0.74   0.3106     C
O      0.36783   0.3735  0.32484     O
H        0.375   0.9696   0.3504     H
C       0.3813   0.5761   0.2775     C
C       0.3894   0.8921   0.4705     C
O       0.3899   0.5955   0.5501     O
C       0.3934   0.6727   0.2501     C
H       0.4023   0.0187   0.5989     H
C       0.4031   0.4118   0.2484     C
H       0.4125   0.2486   0.5876     H
C       0.4142   0.5182    0.222     C
H       0.4167   0.7261   0.6005     H
O      0.42546  0.37004  0.19164     O
N       0.4318   0.7779   0.4771     N
O      0.43383   0.8735  0.82484     O
C       0.4352   0.7131   0.1677     C
C       0.4367   0.9118   0.7484     C
H       0.4411   0.7798   0.1498     H
Zn     0.44455  0.26192  0.14414    Zn
O       0.4455   0.7737   0.2973     O
H       0.4485   0.3389   0.5781     H
H       0.4505    0.912   0.4566     H
H       0.4546    0.437   0.4866     H
C       0.4584    0.558   0.1368     C
H       0.4604   0.2996   0.4524     H
C       0.4693   0.6546     0.11     C
C       0.4697   0.7025   0.5511     C
C       0.4711    0.262    0.588     C
O       0.4748  0.34845  0.03055     O
H       0.4801   0.5187   0.0989     H
O       0.4826   0.2108   0.0052     O
C       0.4829   0.5919   0.5573     C
O      0.48714  0.12996  0.30836     O
H       0.4882   0.2247   0.6415     H
C       0.4915   0.2973   0.9817     C
H       0.4976   0.5433   0.6107     H
H       0.5024   0.4567   0.3893     H
C       0.5085   0.7027   0.0183     C
H       0.5118   0.7753   0.3585     H
O      0.51286  0.87004  0.69164     O
C       0.5171   0.4081   0.4427     C
O       0.5174   0.7892   0.9948     O
H       0.5199   0.4813   0.9011     H
O       0.5252  0.65155  0.96945     O
C       0.5289    0.738    0.412     C
C       0.5303   0.2975   0.4489     C
C       0.5307   0.3454     0.89     C
H       0.5396   0.7004   0.5476     H
C       0.5416    0.442   0.8632     C
H       0.5454    0.563   0.5134     H
H       0.5495    0.088   0.5434     H
H       0.5515   0.6611   0.4219     H
O       0.5545   0.2263   0.7027     O
Zn     0.55545  0.73808  0.85586    Zn
H       0.5589   0.2202   0.8502     H
C       0.5633   0.0882   0.2516     C
C       0.5648   0.2869   0.8323     C
O      0.56617   0.1265  0.17516     O
N       0.5682   0.2221   0.5229     N
O      0.57454  0.62996  0.80836     O
H       0.5833   0.2739   0.3995     H
C       0.5858   0.4818    0.778     C
H       0.5875   0.7514   0.4124     H
C       0.5969   0.5882   0.7516     C
H       0.5977   0.9813   0.4011     H
C       0.6066   0.3273   0.7499     C
O       0.6101   0.4045   0.4499     O
C       0.6106   0.1079   0.5295     C
C       0.6187   0.4239   0.7225     C
H        0.625   0.0304   0.6496     H
O      0.63217   0.6265  0.67516     O
C       0.6446     0.26   0.6894     C
O       0.6462  0.84845  0.53055     O
H       0.6492   0.4497   0.6663     H
Zn     0.64939  0.76192  0.64414    Zn
C       0.6532    0.942   0.3632     C
C       0.6544   0.9818    0.278     C
H       0.6574   0.0942   0.4758     H
O      0.66584  0.30656  0.61336     O
C       0.6754   0.0368   0.5944     C
H       0.6809    0.412   0.9566     H
O       0.6945   0.7517   0.8175     O
Zn     0.69702  0.24883  0.52083    Zn
H       0.7124   0.2004   0.0476     H
H       0.7191   0.9643   0.5853     H
H       0.7274   0.4058   0.0242     H
C       0.7295   0.7973   0.4817     C
C       0.7339   0.8454     0.39     C
H       0.7348   0.9497   0.1663     H
C       0.7349   0.9239   0.2225     C
O       0.7443   0.0798    0.591     O
C        0.748   0.3921   0.9705     C
H       0.7487   0.2514   0.9124     H
H       0.7567   0.2261   0.1005     H
O       0.7637   0.7483   0.6825     O
C       0.7663     0.75     0.75     C
H       0.7687   0.5357   0.9147     H
C       0.7767   0.2025   0.0511     C
O       0.7933   0.2096    0.401     O
O       0.8014   0.7108   0.5052     O
H        0.805   0.4696   0.8504     H
C       0.8066   0.4632   0.9056     C
N       0.8132   0.2779   0.9771     N
C        0.816   0.7869   0.3323     C
C       0.8162   0.8273   0.2499     C
C       0.8211    0.238    0.912     C
H       0.8294   0.7416    0.872     H
H       0.8484   0.0433   0.1107     H
H       0.8544   0.2753   0.8585     H
O       0.8593   0.2538   0.4608     O
C       0.8645   0.2334   0.3982     C
H       0.8655   0.1611   0.9219     H
C       0.8675     0.75     0.75     C
C       0.8679   0.0919   0.0573     C
H       0.8707   0.7202   0.3502     H
H       0.8752     0.25     0.25     H
H       0.8782    0.063   0.0134     H
C       0.8844   0.7442   0.8226     C
O       0.9039   0.2904    0.099     O
C        0.906     0.76   0.1894     C
O      0.91424  0.80656  0.11336     O
O       0.9151   0.4202    0.909     O
O       0.9261   0.7538   0.9608     O
C       0.9397     0.25     0.25     C
H        0.943   0.7584    0.628     H
C       0.9512   0.7558   0.6774     C
C       0.9548   0.2422    0.323     C
O       0.9645   0.0955   0.0501     O
Zn     0.96668  0.25117  0.97917    Zn
C         0.98   0.7422    0.823     C
O       0.9835   0.2737   0.7973     O
C       0.9961   0.2666   0.1018     C
