data_I
_chemical_name_common  '/home/zhangsd/repos/MofS-CGCNN/ML/data/TSD/clean_cifs/PEKCUF_clean'
_cell_length_a 11.30310
_cell_length_b 24.23340
_cell_length_c 36.07900
_cell_angle_alpha 98.21300
_cell_angle_beta  90.00000
_cell_angle_gamma 90.00000
_space_group_name_H-M_alt      'P 1'


loop_
_space_group_symop_operation_xyz
  'x, y, z' 

loop_
_atom_site_label
_atom_site_fract_x
_atom_site_fract_y
_atom_site_fract_z
_atom_site_type_symbol
C       0.0008   0.0579   0.6667     C
H       0.0012    0.051   0.3555     H
C       0.0034   0.8048  0.80273     C
C       0.0038   0.6779  0.47157     C
C       0.0075    0.837  0.77449     C
C       0.0082   0.8442   0.6564     C
C       0.0133   0.3075  0.36888     C
H       0.0138   0.8595    0.541     H
H       0.0139   0.9477   0.6877     H
C       0.0145   0.3175  0.49001     C
O       0.0154  0.26612  0.14151     O
C       0.0162   0.1124  0.66159     C
O       0.0211  0.59457   0.6213     O
C       0.0303   0.4974   0.6109     C
H       0.0313   0.3226   0.7713     H
H       0.0348   0.1856   0.5176     H
O       0.0389  0.22143  0.64681     O
O       0.0405  0.20996  0.35247     O
H       0.0415   0.8481   0.6811     H
C       0.0424   0.3063  0.41064     C
C       0.0425   0.0568  0.33276     C
C       0.0433   0.7471  0.64834     C
O       0.0462  0.68049  0.39442     O
H       0.0487   0.5026   0.3963     H
H       0.0491    0.415    0.603     H
O       0.0498  0.66334  0.29198     O
H        0.058   0.3333   0.5448     H
C       0.0597   0.3401  0.70096     C
C       0.0628   0.1536  0.46399     C
C       0.0639   0.7935   0.3457     C
H       0.0657   0.7449    0.674     H
H       0.0664   0.0348    0.667     H
O       0.0678    0.705  0.57211     O
H       0.0692    0.849   0.6386     H
H       0.0729   0.3457   0.2481     H
H       0.0731   0.7952   0.8139     H
H       0.0744   0.3419   0.4219     H
C       0.0746    0.646  0.63488     C
C       0.0753   0.6992  0.53387     C
H       0.0798   0.8505   0.7674     H
C       0.0799   0.8516  0.33798     C
O       0.0819  0.11819  0.27117     O
C       0.0875   0.5476  0.62244     C
H       0.0881   0.3259   0.4807     H
C       0.0889   0.4484  0.61016     C
H       0.0919   0.1255   0.6578     H
C       0.0923   0.1808  0.49901     C
C       0.0941    0.115  0.33732     C
C       0.0951   0.1503  0.24355     C
H       0.0965   0.6468   0.6609     H
O       0.0989  0.34514  0.66885     O
H       0.0999   0.2774   0.4132     H
O       0.1001  0.32373  0.31209     O
Mn     0.10115   0.3034  0.09711    Mn
C       0.1053   0.2136   0.1852     C
C       0.1088   0.9629  0.32871     C
C       0.1097   0.2476  0.15456     C
C       0.1115   0.3267  0.76663     C
C       0.1122   0.6897  0.45765     C
O       0.1128  0.11826  0.40278     O
H       0.1138   0.7546   0.6346     H
Mn     0.12099  0.28415  0.62105    Mn
O        0.123  0.39339  0.12865     O
C       0.1286   0.3169  0.34981     C
H       0.1335   0.2054   0.9855     H
C       0.1346   0.6848   0.4172     C
O        0.135  0.01713  0.32528     O
H       0.1457    0.651   0.6207     H
C       0.1473   0.3382  0.73153     C
C       0.1485    0.146   0.4365     C
O       0.1515  0.23524  0.56908     O
C       0.1528   0.3405  0.25278     C
O       0.1534  0.76221  0.34324     O
Mn     0.15547  0.67436  0.34142    Mn
H       0.1583   0.4975   0.1396     H
C       0.1628   0.1245  0.30178     C
O        0.166   0.2512  0.05082     O
H       0.1665   0.3133   0.8176     H
H       0.1676     0.35   0.3623     H
C       0.1806   0.1234   0.3697     C
H        0.181   0.2853   0.3502     H
H       0.1822    0.163   0.9242     H
C       0.1836   0.7124  0.52019     C
C       0.1885   0.3283  0.28757     C
C       0.1893   0.8725   0.3323     C
C       0.1918   0.3214  0.79446     C
H       0.1965   0.1617   0.3051     H
C       0.2018   0.7074   0.4829     C
C       0.2024    0.169  0.23247     C
C       0.2031   0.5481  0.63317     C
C       0.2059   0.2012  0.50721     C
C       0.2061   0.4477  0.61985     C
O       0.2062   0.2573  0.14018     O
C       0.2067   0.9274   0.3279     C
C        0.207   0.2001  0.20261     C
H       0.2088   0.3542   0.2025     H
C       0.2104   0.1933  0.98006     C
H       0.2158   0.1603   0.3717     H
H       0.2175   0.9407   0.8245     H
H       0.2202   0.2118   0.6945     H
H       0.2243   0.7161    0.974     H
C       0.2263   0.3948  0.11633     C
H       0.2267   0.0976   0.2971     H
O       0.2272  0.35027  0.59815     O
H       0.2285    0.161   0.7447     H
C        0.233   0.2316  0.54496     C
C       0.2341   0.3456  0.22556     C
O       0.2363  0.68387  0.40417     O
C        0.237   0.4977  0.13208     C
C       0.2386   0.1665  0.94314     C
H       0.2415   0.5817   0.6411     H
H       0.2433   0.0959   0.3662     H
H       0.2444   0.7247   0.5367     H
H       0.2456   0.8489   0.8314     H
H       0.2544   0.8489   0.3314     H
H       0.2556   0.7247   0.0367     H
H       0.2567   0.0959   0.8662     H
H       0.2585   0.5817   0.1411     H
C       0.2614   0.1665  0.44314     C
C        0.263   0.4977  0.63208     C
O       0.2637  0.68387  0.90417     O
C       0.2659   0.3456  0.72556     C
C        0.267   0.2316  0.04496     C
H       0.2715    0.161   0.2447     H
O       0.2728  0.35027  0.09815     O
H       0.2733   0.0976   0.7971     H
C       0.2737   0.3948  0.61633     C
H       0.2757   0.7161    0.474     H
H       0.2798   0.2118   0.1945     H
H       0.2825   0.9407   0.3245     H
H       0.2842   0.1603   0.8717     H
C       0.2896   0.1933  0.48006     C
H       0.2912   0.3542   0.7025     H
C        0.293   0.2001  0.70261     C
C       0.2933   0.9274   0.8279     C
O       0.2938   0.2573  0.64018     O
C       0.2939   0.4477  0.11985     C
C       0.2941   0.2012  0.00721     C
C       0.2969   0.5481  0.13317     C
C       0.2976    0.169  0.73247     C
C       0.2982   0.7074   0.9829     C
H       0.3035   0.1617   0.8051     H
C       0.3082   0.3214  0.29446     C
C       0.3107   0.8725   0.8323     C
C       0.3115   0.3283  0.78757     C
C       0.3164   0.7124  0.02019     C
H       0.3178    0.163   0.4242     H
H        0.319   0.2853   0.8502     H
C       0.3194   0.1234   0.8697     C
H       0.3324     0.35   0.8623     H
H       0.3335   0.3133   0.3176     H
O        0.334   0.2512  0.55082     O
C       0.3372   0.1245  0.80178     C
H       0.3417   0.4975   0.6396     H
Mn     0.34453  0.67436  0.84142    Mn
O       0.3466  0.76221  0.84324     O
C       0.3472   0.3405  0.75278     C
O       0.3485  0.23524  0.06908     O
C       0.3515    0.146   0.9365     C
C       0.3527   0.3382  0.23153     C
H       0.3543    0.651   0.1207     H
O        0.365  0.01713  0.82528     O
C       0.3654   0.6848   0.9172     C
H       0.3665   0.2054   0.4855     H
C       0.3714   0.3169  0.84981     C
O        0.377  0.39339  0.62865     O
Mn     0.37901  0.28415  0.12105    Mn
H       0.3862   0.7546   0.1346     H
O       0.3872  0.11826  0.90278     O
C       0.3878   0.6897  0.95765     C
C       0.3885   0.3267  0.26663     C
C       0.3903   0.2476  0.65456     C
C       0.3912   0.9629  0.82871     C
C       0.3947   0.2136   0.6852     C
Mn     0.39885   0.3034  0.59711    Mn
O       0.3999  0.32373  0.81209     O
H       0.4001   0.2774   0.9132     H
O       0.4011  0.34514  0.16885     O
H       0.4035   0.6468   0.1609     H
C       0.4049   0.1503  0.74355     C
C       0.4059    0.115  0.83732     C
C       0.4077   0.1808  0.99901     C
H       0.4081   0.1255   0.1578     H
C       0.4111   0.4484  0.11016     C
H       0.4119   0.3259   0.9807     H
C       0.4125   0.5476  0.12244     C
O       0.4181  0.11819  0.77117     O
C       0.4201   0.8516  0.83798     C
H       0.4202   0.8505   0.2674     H
C       0.4247   0.6992  0.03387     C
C       0.4254    0.646  0.13488     C
H       0.4256   0.3419   0.9219     H
H       0.4269   0.7952   0.3139     H
H       0.4271   0.3457   0.7481     H
H       0.4308    0.849   0.1386     H
O       0.4322    0.705  0.07211     O
H       0.4336   0.0348    0.167     H
H       0.4343   0.7449    0.174     H
C       0.4361   0.7935   0.8457     C
C       0.4372   0.1536  0.96399     C
C       0.4403   0.3401  0.20096     C
H        0.442   0.3333   0.0448     H
O       0.4502  0.66334  0.79198     O
H       0.4509    0.415    0.103     H
H       0.4513   0.5026   0.8963     H
O       0.4538  0.68049  0.89442     O
C       0.4567   0.7471  0.14834     C
C       0.4575   0.0568  0.83276     C
C       0.4576   0.3063  0.91064     C
H       0.4585   0.8481   0.1811     H
O       0.4595  0.20996  0.85247     O
O       0.4611  0.22143  0.14681     O
H       0.4652   0.1856   0.0176     H
H       0.4687   0.3226   0.2713     H
C       0.4697   0.4974   0.1109     C
O       0.4789  0.59457   0.1213     O
C       0.4838   0.1124  0.16159     C
O       0.4846  0.26612  0.64151     O
C       0.4855   0.3175  0.99001     C
H       0.4861   0.9477   0.1877     H
H       0.4862   0.8595    0.041     H
C       0.4867   0.3075  0.86888     C
C       0.4918   0.8442   0.1564     C
C       0.4925    0.837  0.27449     C
C       0.4962   0.6779  0.97157     C
C       0.4966   0.8048  0.30273     C
H       0.4988    0.051   0.8555     H
C       0.4992   0.0579   0.1667     C
C       0.5008   0.9421   0.8333     C
H       0.5012    0.949   0.1445     H
C       0.5034   0.1952  0.69727     C
C       0.5038   0.3221  0.02843     C
C       0.5075    0.163  0.72551     C
C       0.5082   0.1558   0.8436     C
C       0.5133   0.6925  0.13112     C
H       0.5138   0.1405    0.959     H
H       0.5139   0.0523   0.8123     H
C       0.5145   0.6825  0.00999     C
O       0.5154  0.73388  0.35849     O
C       0.5162   0.8876  0.83841     C
O       0.5211  0.40543   0.8787     O
C       0.5303   0.5026   0.8891     C
H       0.5313   0.6774   0.7287     H
H       0.5348   0.8144   0.9824     H
O       0.5389  0.77857  0.85319     O
O       0.5405  0.79004  0.14753     O
H       0.5415   0.1519   0.8189     H
C       0.5424   0.6937  0.08936     C
C       0.5425   0.9432  0.16724     C
C       0.5433   0.2529  0.85166     C
O       0.5462  0.31951  0.10558     O
H       0.5487   0.4974   0.1037     H
H       0.5491    0.585    0.897     H
O       0.5498  0.33666  0.20802     O
H        0.558   0.6667   0.9552     H
C       0.5597   0.6599  0.79904     C
C       0.5628   0.8464  0.03601     C
C       0.5639   0.2065   0.1543     C
H       0.5657   0.2551    0.826     H
H       0.5664   0.9652    0.833     H
O       0.5678    0.295  0.92789     O
H       0.5692    0.151   0.8614     H
H       0.5729   0.6543   0.2519     H
H       0.5731   0.2048   0.6861     H
H       0.5744   0.6581   0.0781     H
C       0.5746    0.354  0.86512     C
C       0.5753   0.3008  0.96613     C
H       0.5798   0.1495   0.7326     H
C       0.5799   0.1484  0.16202     C
O       0.5819  0.88181  0.22883     O
C       0.5875   0.4524  0.87756     C
H       0.5881   0.6741   0.0193     H
C       0.5889   0.5516  0.88984     C
H       0.5919   0.8745   0.8422     H
C       0.5923   0.8192  0.00099     C
C       0.5941    0.885  0.16268     C
C       0.5951   0.8497  0.25645     C
H       0.5965   0.3532   0.8391     H
O       0.5989  0.65486  0.83115     O
H       0.5999   0.7226   0.0868     H
O       0.6001  0.67627  0.18791     O
Mn     0.60115   0.6966  0.40289    Mn
C       0.6053   0.7864   0.3148     C
C       0.6088   0.0371  0.17129     C
C       0.6097   0.7524  0.34544     C
C       0.6115   0.6733  0.73337     C
C       0.6122   0.3103  0.04235     C
O       0.6128  0.88174  0.09722     O
H       0.6138   0.2454   0.8654     H
Mn     0.62099  0.71585  0.87895    Mn
O        0.623  0.60661  0.37135     O
C       0.6286   0.6831  0.15019     C
H       0.6335   0.7946   0.5145     H
C       0.6346   0.3152   0.0828     C
O        0.635  0.98287  0.17472     O
H       0.6457    0.349   0.8793     H
C       0.6473   0.6618  0.76847     C
C       0.6485    0.854   0.0635     C
O       0.6515  0.76476  0.93092     O
C       0.6528   0.6595  0.24722     C
O       0.6534  0.23779  0.15676     O
Mn     0.65547  0.32564  0.15858    Mn
H       0.6583   0.5025   0.3604     H
C       0.6628   0.8755  0.19822     C
O        0.666   0.7488  0.44918     O
H       0.6665   0.6867   0.6824     H
H       0.6676     0.65   0.1377     H
C       0.6806   0.8766   0.1303     C
H        0.681   0.7147   0.1498     H
H       0.6822    0.837   0.5758     H
C       0.6836   0.2876  0.97981     C
C       0.6885   0.6717  0.21243     C
C       0.6893   0.1275   0.1677     C
C       0.6918   0.6786  0.70554     C
H       0.6965   0.8383   0.1949     H
C       0.7018   0.2926   0.0171     C
C       0.7024    0.831  0.26753     C
C       0.7031   0.4519  0.86683     C
C       0.7059   0.7988  0.99279     C
C       0.7061   0.5523  0.88015     C
O       0.7062   0.7427  0.35982     O
C       0.7067   0.0726   0.1721     C
C        0.707   0.7999  0.29739     C
H       0.7088   0.6458   0.2975     H
C       0.7104   0.8067  0.51994     C
H       0.7158   0.8397   0.1283     H
H       0.7175   0.0593   0.6755     H
H       0.7202   0.7882   0.8055     H
H       0.7243   0.2839    0.526     H
C       0.7263   0.6052  0.38367     C
H       0.7267   0.9024   0.2029     H
O       0.7272  0.64973  0.90185     O
H       0.7285    0.839   0.7553     H
C        0.733   0.7684  0.95504     C
C       0.7341   0.6544  0.27444     C
O       0.7363  0.31613  0.09583     O
C        0.737   0.5023  0.36792     C
C       0.7386   0.8335  0.55686     C
H       0.7415   0.4183   0.8589     H
H       0.7433   0.9041   0.1338     H
H       0.7444   0.2753   0.9633     H
H       0.7456   0.1511   0.6686     H
H       0.7544   0.1511   0.1686     H
H       0.7556   0.2753   0.4633     H
H       0.7567   0.9041   0.6338     H
H       0.7585   0.4183   0.3589     H
C       0.7614   0.8335  0.05686     C
C        0.763   0.5023  0.86792     C
O       0.7637  0.31613  0.59583     O
C       0.7659   0.6544  0.77444     C
C        0.767   0.7684  0.45504     C
H       0.7715    0.839   0.2553     H
O       0.7728  0.64973  0.40185     O
H       0.7733   0.9024   0.7029     H
C       0.7737   0.6052  0.88367     C
H       0.7757   0.2839    0.026     H
H       0.7798   0.7882   0.3055     H
H       0.7825   0.0593   0.1755     H
H       0.7842   0.8397   0.6283     H
C       0.7896   0.8067  0.01994     C
H       0.7912   0.6458   0.7975     H
C        0.793   0.7999  0.79739     C
C       0.7933   0.0726   0.6721     C
O       0.7938   0.7427  0.85982     O
C       0.7939   0.5523  0.38015     C
C       0.7941   0.7988  0.49279     C
C       0.7969   0.4519  0.36683     C
C       0.7976    0.831  0.76753     C
C       0.7982   0.2926   0.5171     C
H       0.8035   0.8383   0.6949     H
C       0.8082   0.6786  0.20554     C
C       0.8107   0.1275   0.6677     C
C       0.8115   0.6717  0.71243     C
C       0.8164   0.2876  0.47981     C
H       0.8178    0.837   0.0758     H
H        0.819   0.7147   0.6498     H
C       0.8194   0.8766   0.6303     C
H       0.8324     0.65   0.6377     H
H       0.8335   0.6867   0.1824     H
O        0.834   0.7488  0.94918     O
C       0.8372   0.8755  0.69822     C
H       0.8417   0.5025   0.8604     H
Mn     0.84453  0.32564  0.65858    Mn
O       0.8466  0.23779  0.65676     O
C       0.8472   0.6595  0.74722     C
O       0.8485  0.76476  0.43092     O
C       0.8515    0.854   0.5635     C
C       0.8527   0.6618  0.26847     C
H       0.8543    0.349   0.3793     H
O        0.865  0.98287  0.67472     O
C       0.8654   0.3152   0.5828     C
H       0.8665   0.7946   0.0145     H
C       0.8714   0.6831  0.65019     C
O        0.877  0.60661  0.87135     O
Mn     0.87901  0.71585  0.37895    Mn
H       0.8862   0.2454   0.3654     H
O       0.8872  0.88174  0.59722     O
C       0.8878   0.3103  0.54235     C
C       0.8885   0.6733  0.23337     C
C       0.8903   0.7524  0.84544     C
C       0.8912   0.0371  0.67129     C
C       0.8947   0.7864   0.8148     C
Mn     0.89885   0.6966  0.90289    Mn
O       0.8999  0.67627  0.68791     O
H       0.9001   0.7226   0.5868     H
O       0.9011  0.65486  0.33115     O
H       0.9035   0.3532   0.3391     H
C       0.9049   0.8497  0.75645     C
C       0.9059    0.885  0.66268     C
C       0.9077   0.8192  0.50099     C
H       0.9081   0.8745   0.3422     H
C       0.9111   0.5516  0.38984     C
H       0.9119   0.6741   0.5193     H
C       0.9125   0.4524  0.37756     C
O       0.9181  0.88181  0.72883     O
C       0.9201   0.1484  0.66202     C
H       0.9202   0.1495   0.2326     H
C       0.9247   0.3008  0.46613     C
C       0.9254    0.354  0.36512     C
H       0.9256   0.6581   0.5781     H
H       0.9269   0.2048   0.1861     H
H       0.9271   0.6543   0.7519     H
H       0.9308    0.151   0.3614     H
O       0.9322    0.295  0.42789     O
H       0.9336   0.9652    0.333     H
H       0.9343   0.2551    0.326     H
C       0.9361   0.2065   0.6543     C
C       0.9372   0.8464  0.53601     C
C       0.9403   0.6599  0.29904     C
H        0.942   0.6667   0.4552     H
O       0.9502  0.33666  0.70802     O
H       0.9509    0.585    0.397     H
H       0.9513   0.4974   0.6037     H
O       0.9538  0.31951  0.60558     O
C       0.9567   0.2529  0.35166     C
C       0.9575   0.9432  0.66724     C
C       0.9576   0.6937  0.58936     C
H       0.9585   0.1519   0.3189     H
O       0.9595  0.79004  0.64753     O
O       0.9611  0.77857  0.35319     O
H       0.9652   0.8144   0.4824     H
H       0.9687   0.6774   0.2287     H
C       0.9697   0.5026   0.3891     C
O       0.9789  0.40543   0.3787     O
C       0.9838   0.8876  0.33841     C
O       0.9846  0.73388  0.85849     O
C       0.9855   0.6825  0.50999     C
H       0.9861   0.0523   0.3123     H
H       0.9862   0.1405    0.459     H
C       0.9867   0.6925  0.63112     C
C       0.9918   0.1558   0.3436     C
C       0.9925    0.163  0.22551     C
C       0.9962   0.3221  0.52843     C
C       0.9966   0.1952  0.19727     C
H       0.9988    0.949   0.6445     H
C       0.9992   0.9421   0.3333     C
