data_I
_chemical_name_common  '/home/zhangsd/repos/MofS-CGCNN/ML/data/TSD/clean_cifs/PELQII_clean'
_cell_length_a 18.45380
_cell_length_b 25.34420
_cell_length_c 37.78300
_cell_angle_alpha 90.00000
_cell_angle_beta  90.00000
_cell_angle_gamma 90.00000
_space_group_name_H-M_alt      'P 1'


loop_
_space_group_symop_operation_xyz
  'x, y, z' 

loop_
_atom_site_label
_atom_site_fract_x
_atom_site_fract_y
_atom_site_fract_z
_atom_site_type_symbol
C       0.0009    0.316  0.89614     C
C       0.0025    0.515   0.5565     C
H       0.0042   0.4817    0.855     H
C       0.0062   0.7727  0.62965     C
H       0.0064   0.9685   0.8613     H
H       0.0066   0.1522   0.6326     H
C       0.0067   0.8966  0.95802     C
C       0.0072   0.5593  0.80625     C
H       0.0079   0.9966   0.5819     H
O       0.0089  0.58373  0.77943     O
C       0.0114   0.4899   0.5246     C
C       0.0118   0.2207   0.6114     C
C       0.0157   0.9829  0.52927     C
H       0.0198   0.7124    0.907     H
C       0.0212   0.3966   0.9464     C
O       0.0222  0.55703  0.66266     O
N        0.023   0.9406  0.98066     N
C       0.0237   0.1897  0.84486     C
C       0.0263   0.3139  0.58913     C
Cd     0.02686  0.63268  0.72605    Cd
N       0.0269  0.69357  0.68054     N
C       0.0293   0.1849  0.63479     C
C         0.03   0.0083  0.56113     C
H       0.0303   0.0024   0.9269     H
N       0.0325   0.4384  0.97125     N
H       0.0339   0.8598   0.0243     H
C       0.0357   0.2296  0.87112     C
C       0.0383   0.0516  0.82316     C
H       0.0391   0.9832    0.477     H
C       0.0393    0.815  0.93009     C
C       0.0414    0.273   0.6142     C
O       0.0428  0.06456   0.6696     O
H       0.0437   0.5758   0.5859     H
C       0.0449   0.5607  0.56345     C
C       0.0475    0.481  0.84239     C
C       0.0476   0.8879  0.56817     C
C       0.0487   0.0002   0.4983     C
H       0.0525   0.1596   0.8455     H
C       0.0525   0.5106  0.49859     C
H       0.0545   0.4942   0.4766     H
C       0.0552   0.9677  0.85518     C
H       0.0559   0.3583   0.0121     H
O       0.0569  0.08037  0.79671     O
C       0.0578   0.8475    0.592     C
C        0.058   0.8571  0.95077     C
C       0.0587   0.3956  0.56082     C
C       0.0604    0.778  0.65536     C
H       0.0625   0.2689    0.782     H
C       0.0638   0.5175  0.81496     C
C       0.0664   0.8863  0.03056     C
C       0.0694   0.7359  0.67919     C
C       0.0697   0.9312  0.01014     C
H       0.0707   0.7864   0.9286     H
C       0.0714   0.3259  0.91152     C
H       0.0716   0.2256   0.8882     H
C        0.075   0.3563  0.58401     C
N       0.0765  0.19011  0.66156     N
C       0.0772    0.051  0.56203     C
H       0.0792   0.8995   0.8803     H
O       0.0795  0.18113  0.75068     O
C       0.0804   0.4331   0.9994     C
C       0.0814   0.3676  0.93638     C
H       0.0842   0.6532   0.5927     H
C       0.0844   0.3869  0.01872     C
C       0.0845   0.0079  0.83468     C
O       0.0854  0.69034  0.76148     O
H       0.0862   0.9094   0.5618     H
H       0.0867    0.068   0.5833     H
C       0.0868   0.5828  0.53806     C
H       0.0891    0.808   0.6566     H
H       0.0895   0.7303   0.8223     H
C       0.0907   0.2804  0.64147     C
H        0.092   0.4227   0.5574     H
H       0.0921   0.3423   0.8157     H
C       0.0928   0.5575  0.50479     C
C       0.0959   0.0429   0.4992     C
C       0.0988   0.9264  0.86658     C
H       0.0994   0.4201   0.8679     H
C       0.1036   0.4432  0.84885     C
H       0.1042   0.8406   0.6005     H
H       0.1046   0.8596     0.96     H
H       0.1066   0.8476   0.0719     H
C       0.1077   0.2374  0.66289     C
H       0.1078   0.7378   0.6951     H
C       0.1087   0.8792  0.05956     C
C       0.1101   0.0683  0.53106     C
H       0.1106   0.3048   0.9051     H
C       0.1111   0.2769   0.7858     C
H       0.1118   0.3132   0.6454     H
Cd      0.1145  0.12291  0.70082    Cd
C       0.1148   0.9733  0.02067     C
H       0.1149   0.0046   0.0079     H
C       0.1172   0.6634   0.5755     C
H       0.1179   0.0546   0.4785     H
H       0.1183   0.3574   0.5966     H
H       0.1197   0.7917   0.8656     H
H       0.1224   0.5065   0.9971     H
H       0.1226   0.5714   0.4873     H
C        0.123   0.4752  0.00993     C
C       0.1255   0.5142  0.79376     C
H       0.1263   0.1459   0.5791     H
C       0.1267   0.6335  0.54538     C
H        0.127    0.375   0.9456     H
C       0.1287   0.3219  0.80572     C
C       0.1289   0.3821  0.04721     C
C       0.1298   0.7518  0.81896     C
H       0.1302   0.3503   0.0596     H
H       0.1329   0.5382   0.7755     H
C       0.1424   0.1997  0.75083     C
H       0.1441   0.2421   0.6796     H
C       0.1468   0.7891  0.84488     C
H       0.1477   0.8516   0.1257     H
H       0.1495   0.5218   0.6327     H
C       0.1496   0.7042  0.76319     C
H       0.1521    0.728   0.6002     H
C       0.1555   0.9189  0.07102     C
C       0.1571   0.7084   0.5795     C
C       0.1575   0.0068  0.82557     C
C       0.1576   0.1527   0.5604     C
C       0.1584   0.1155  0.53098     C
C       0.1591   0.9677  0.05024     C
H       0.1602   0.0361   0.6426     H
C       0.1614   0.2456  0.77217     C
C       0.1641   0.4404  0.82713     C
H       0.1665   0.3573   0.1139     H
C       0.1665   0.4706  0.03944     C
C       0.1708   0.7456  0.78833     C
C       0.1718   0.9252  0.85748     C
C       0.1728    0.424  0.05825     C
C       0.1756   0.4747  0.80029     C
H       0.1771   0.0337   0.8119     H
C       0.1771   0.6511   0.5207     C
C       0.1857   0.5465  0.62828     C
C       0.1878   0.8736  0.12787     C
H       0.1882   0.6316   0.5006     H
O       0.1895  0.18427   0.7294     O
H       0.1907   0.9946   0.0567     H
H       0.1925   0.4999    0.047     H
H       0.1978   0.6897   0.3034     H
C       0.1984   0.3353  0.81041     C
N       0.1984   0.5833  0.65237     N
H       0.1985   0.2194   0.5821     H
O       0.1986  0.11325  0.36502     O
C       0.1993   0.0588  0.63952     C
C       0.2003   0.9151  0.10414     C
C       0.2006   0.1976  0.56234     C
C       0.2011   0.9655  0.83697     C
C       0.2028   0.3825  0.11658     C
O       0.2034   0.6924  0.74346     O
N       0.2035   0.7254  0.55449     N
O       0.2037  0.85322   0.9031     O
C       0.2044   0.1277  0.50548     C
C       0.2057    0.822  0.83868     C
O       0.2065  0.59392  0.32178     O
N       0.2084   0.0988  0.66315     N
H       0.2089   0.1061   0.4857     H
H        0.211    0.518   0.5797     H
C        0.211   0.7005  0.52766     C
H       0.2137   0.1576   0.3053     H
C        0.215    0.421  0.09028     C
H       0.2168   0.4718   0.7863     H
H       0.2182    0.815   0.9908     H
O        0.221  0.37605  0.87331     O
C       0.2239   0.5429  0.59665     C
S      0.22735  0.38967  0.83592     S
S      0.22739  0.87067  0.86932     S
H       0.2318   0.7659   0.2696     H
C       0.2327   0.2566  0.77844     C
C       0.2327   0.7783  0.78368     C
H       0.2365    0.836   0.1687     H
H        0.237   0.2266   0.2643     H
H        0.238   0.0205   0.5973     H
C       0.2393   0.8666  0.15527     C
H       0.2409   0.7145   0.5102     H
H       0.2411    0.359   0.1667     H
N       0.2433   0.2088  0.53642     N
C       0.2446   0.0501   0.6115     C
C       0.2461   0.6972  0.29859     C
C       0.2483   0.8188  0.80893     C
C       0.2491   0.1767   0.5087     C
C       0.2497   0.3833  0.14874     C
H       0.2499   0.9647   0.8309     H
H       0.2501   0.0353   0.3309     H
C       0.2503   0.6167  0.64874     C
C       0.2509   0.8233   0.0087     C
C       0.2517   0.1812  0.30893     C
C       0.2539   0.3028  0.79859     C
C       0.2554   0.9499   0.1115     C
N       0.2567   0.7912  0.03642     N
H       0.2589    0.641   0.6667     H
H       0.2591   0.2855   0.0102     H
C       0.2607   0.1334  0.65527     C
H        0.262   0.9795   0.0973     H
H        0.263   0.7734   0.7643     H
H       0.2635    0.164   0.6687     H
C       0.2673   0.2217  0.28368     C
C       0.2673   0.7434  0.27844     C
H       0.2682   0.2341   0.7696     H
S      0.27261  0.12933  0.36932     S
S      0.27265  0.61033  0.33592     S
C       0.2761   0.4571  0.09665     C
O        0.279  0.62395  0.37331     O
H       0.2818    0.185   0.4908     H
H       0.2832   0.5282   0.2863     H
C        0.285    0.579  0.59028     C
H       0.2863   0.8424   0.8053     H
C        0.289   0.2995  0.02766     C
H        0.289    0.482   0.0797     H
H       0.2911   0.8939   0.9857     H
N       0.2916   0.9012  0.16315     N
O       0.2935  0.40608  0.82178     O
C       0.2943    0.178  0.33868     C
C       0.2956   0.8723  0.00548     C
O       0.2963  0.14678   0.4031     O
N       0.2965   0.2746  0.05449     N
O       0.2966   0.3076  0.24346     O
C       0.2972   0.6175  0.61658     C
C       0.2989   0.0345  0.33697     C
C       0.2994   0.8024  0.06234     C
C       0.2997   0.0849  0.60414     C
C       0.3007   0.9412  0.13952     C
O       0.3014  0.88675  0.86502     O
H       0.3015   0.7806   0.0821     H
N       0.3016   0.4167  0.15237     N
C       0.3016   0.6647  0.31041     C
H       0.3022   0.3103   0.8034     H
H       0.3075   0.5001    0.547     H
H       0.3093   0.0054   0.5567     H
O       0.3105  0.81573   0.2294     O
H       0.3118   0.3684   0.0006     H
C       0.3122   0.1264  0.62787     C
C       0.3143   0.4535  0.12828     C
C       0.3229   0.3489   0.0207     C
H       0.3229   0.9663   0.3119     H
C       0.3244   0.5253  0.30029     C
C       0.3272    0.576  0.55825     C
C       0.3282   0.0748  0.35748     C
C       0.3292   0.2544  0.28833     C
C       0.3335   0.5294  0.53944     C
H       0.3335   0.6427   0.6139     H
C       0.3359   0.5596  0.32713     C
C       0.3386   0.7544  0.27217     C
H       0.3398   0.9639   0.1426     H
C       0.3409   0.0323  0.55024     C
C       0.3416   0.8845  0.03098     C
C       0.3424   0.8473   0.0604     C
C       0.3425   0.9932  0.32557     C
C       0.3429   0.2916   0.0795     C
C       0.3445   0.0811  0.57102     C
H       0.3479    0.272   0.1002     H
C       0.3504   0.2958  0.26319     C
H       0.3505   0.4782   0.1327     H
H       0.3523   0.1484   0.6257     H
C       0.3532   0.2109  0.34488     C
H       0.3559   0.7579   0.1796     H
C       0.3576   0.8003  0.25083     C
H       0.3671   0.4618   0.2755     H
H       0.3698   0.6497   0.5596     H
C       0.3702   0.2482  0.31896     C
C       0.3711   0.6179  0.54721     C
C       0.3713   0.6781  0.30572     C
H        0.373    0.625   0.4456     H
C       0.3733   0.3665  0.04538     C
H       0.3737   0.8541   0.0791     H
C       0.3745   0.4858  0.29376     C
C        0.377   0.5248  0.50993     C
H       0.3774   0.4286   0.9873     H
H       0.3776   0.4935   0.4971     H
H       0.3803   0.2083   0.3656     H
H       0.3817   0.6426   0.0966     H
H       0.3821   0.9454   0.9785     H
C       0.3828   0.3366   0.0755     C
H       0.3851   0.9954   0.5079     H
C       0.3852   0.0267  0.52067     C
Cd      0.3855  0.87709  0.20082    Cd
H       0.3882   0.6868   0.1454     H
C       0.3889   0.7231   0.2858     C
H       0.3894   0.6952   0.4051     H
C       0.3899   0.9317  0.03106     C
C       0.3913   0.1208  0.55956     C
H       0.3922   0.2622   0.1951     H
C       0.3923   0.7626  0.16289     C
H       0.3934   0.1524   0.5719     H
H       0.3954   0.1404     0.46     H
H       0.3958   0.1594   0.1005     H
C       0.3964   0.5568  0.34885     C
H       0.4006   0.5799   0.3679     H
C       0.4012   0.0736  0.36658     C
C       0.4041   0.9571   0.9992     C
C       0.4072   0.4425  0.00479     C
H       0.4079   0.6577   0.3157     H
H        0.408   0.5773   0.0574     H
C       0.4093   0.7196  0.14147     C
H       0.4105   0.2697   0.3223     H
H       0.4109    0.192   0.1566     H
C       0.4132   0.4172  0.03806     C
H       0.4133    0.932   0.0833     H
H       0.4138   0.0906   0.0618     H
O       0.4146  0.30966  0.26148     O
C       0.4155   0.9921  0.33468     C
C       0.4156   0.6131  0.51872     C
H       0.4158   0.3468   0.0927     H
C       0.4186   0.6324  0.43638     C
C       0.4196   0.5669   0.4994     C
O       0.4205  0.81887  0.25068     O
H       0.4208   0.1005   0.3803     H
C       0.4228    0.949  0.06203     C
N       0.4235  0.80989  0.16156     N
C        0.425   0.6437  0.08401     C
H       0.4284   0.7744   0.3882     H
C       0.4286   0.6741  0.41152     C
H       0.4293   0.2136   0.4286     H
C       0.4303   0.0688  0.51014     C
C       0.4306   0.2641  0.17919     C
C       0.4336   0.1137  0.53056     C
C       0.4362   0.4825  0.31496     C
H       0.4375   0.7311    0.282     H
C       0.4396    0.222  0.15536     C
C       0.4413   0.6044  0.06082     C
C        0.442   0.1429  0.45077     C
C       0.4422   0.1525    0.092     C
O       0.4431  0.91963  0.29671     O
H       0.4441   0.6417   0.5121     H
C       0.4448   0.0323  0.35518     C
H       0.4455   0.5058   0.9766     H
C       0.4475   0.4894  0.99859     C
H       0.4475   0.8404   0.3455     H
C       0.4513   0.9998   0.9983     C
C       0.4524   0.1121  0.06817     C
C       0.4525    0.519  0.34239     C
C       0.4551   0.4393  0.06345     C
H       0.4563   0.4242   0.0859     H
O       0.4572  0.93544   0.1696     O
C       0.4586    0.727   0.1142     C
C       0.4607    0.185  0.43009     C
H       0.4609   0.0168    0.977     H
C       0.4617   0.9484  0.32316     C
C       0.4643   0.7704  0.37112     C
H       0.4661   0.1402   0.5243     H
N       0.4675   0.5616  0.47125     N
H       0.4697   0.9976   0.4269     H
C         0.47   0.9917  0.06113     C
C       0.4707   0.8151  0.13479     C
N       0.4731  0.30643  0.18054     N
Cd     0.47314  0.36732  0.22605    Cd
C       0.4737   0.6861  0.08913     C
C       0.4763   0.8103  0.34486     C
N        0.477   0.0594  0.48066     N
O       0.4778  0.44297  0.16266     O
C       0.4788   0.6034   0.4464     C
H       0.4802   0.2876    0.407     H
C       0.4843   0.0171  0.02927     C
C       0.4882   0.7793   0.1114     C
C       0.4886   0.5101   0.0246     C
O       0.4911  0.41627  0.27943     O
H       0.4921   0.0034   0.0819     H
C       0.4928   0.4407  0.30625     C
C       0.4933   0.1034  0.45802     C
H       0.4934   0.8478   0.1326     H
H       0.4936   0.0315   0.3613     H
C       0.4938   0.2273  0.12965     C
H       0.4958   0.5183    0.355     H
C       0.4975    0.485   0.0565     C
C       0.4991    0.684  0.39614     C
C       0.5009    0.184  0.10386     C
C       0.5025    0.985   0.4435     C
H       0.5042   0.0183    0.145     H
C       0.5062   0.7273  0.37035     C
H       0.5064   0.5315   0.1387     H
H       0.5066   0.3478   0.3674     H
C       0.5067   0.6034  0.04198     C
C       0.5072   0.9407  0.19375     C
H       0.5079   0.5034   0.4181     H
O       0.5089  0.91627  0.22057     O
C       0.5114   0.0101   0.4754     C
C       0.5118   0.2793   0.3886     C
C       0.5157   0.5171  0.47073     C
H       0.5198   0.7876    0.093     H
C       0.5212   0.1034   0.0536     C
O       0.5222  0.94297  0.33734     O
N        0.523   0.5594  0.01934     N
C       0.5237   0.3103  0.15514     C
C       0.5263   0.1861  0.41087     C
Cd     0.52686  0.86732  0.27395    Cd
N       0.5269  0.80643  0.31946     N
C       0.5293   0.3151  0.36521     C
C         0.53   0.4917  0.43887     C
H       0.5303   0.4976   0.0731     H
N       0.5325   0.0616  0.02875     N
H       0.5339   0.6402   0.9757     H
C       0.5357   0.2704  0.12888     C
C       0.5383   0.4484  0.17684     C
H       0.5391   0.5168    0.523     H
C       0.5393    0.685  0.06991     C
C       0.5414    0.227   0.3858     C
O       0.5428  0.43544   0.3304     O
H       0.5437   0.9242   0.4141     H
C       0.5449   0.9393  0.43655     C
C       0.5475    0.019  0.15761     C
C       0.5476   0.6121  0.43183     C
C       0.5487   0.4998   0.5017     C
H       0.5525   0.3404   0.1545     H
C       0.5525   0.9894  0.50141     C
H       0.5545   0.0058   0.5234     H
C       0.5552   0.5323  0.14482     C
H       0.5559   0.1417   0.9879     H
O       0.5569  0.41963  0.20329     O
C       0.5578   0.6525    0.408     C
C        0.558   0.6429  0.04923     C
C       0.5587   0.1044  0.43918     C
C       0.5604    0.722  0.34464     C
H       0.5625   0.2311    0.218     H
C       0.5638   0.9825  0.18504     C
C       0.5664   0.6137  0.96944     C
C       0.5694   0.7641  0.32081     C
C       0.5697   0.5688  0.98986     C
H       0.5707   0.7136   0.0714     H
C       0.5714   0.1741  0.08848     C
H       0.5716   0.2744   0.1118     H
C        0.575   0.1437  0.41599     C
N       0.5765  0.30989  0.33844     N
C       0.5772    0.449  0.43797     C
H       0.5792   0.6005   0.1197     H
O       0.5795  0.31887  0.24932     O
C       0.5804   0.0669   0.0006     C
C       0.5814   0.1324  0.06362     C
H       0.5842   0.8468   0.4073     H
C       0.5844   0.1131  0.98128     C
C       0.5845   0.4921  0.16532     C
O       0.5854  0.80966  0.23852     O
H       0.5862   0.5906   0.4382     H
H       0.5867    0.432   0.4167     H
C       0.5868   0.9172  0.46194     C
H       0.5891    0.692   0.3434     H
H       0.5895   0.7697   0.1777     H
C       0.5907   0.2196  0.35853     C
H        0.592   0.0773   0.4426     H
H       0.5921   0.1577   0.1843     H
C       0.5928   0.9425  0.49521     C
C       0.5959   0.4571   0.5008     C
C       0.5988   0.5736  0.13342     C
H       0.5994   0.0799   0.1321     H
C       0.6036   0.0568  0.15115     C
H       0.6042   0.6594   0.3995     H
H       0.6046   0.6404     0.04     H
H       0.6066   0.6524   0.9281     H
C       0.6077   0.2626  0.33711     C
H       0.6078   0.7622   0.3049     H
C       0.6087   0.6208  0.94044     C
C       0.6101   0.4317  0.46894     C
H       0.6106   0.1952   0.0949     H
C       0.6111   0.2231   0.2142     C
H       0.6118   0.1868   0.3546     H
Cd      0.6145  0.37709  0.29918    Cd
C       0.6148   0.5267  0.97933     C
H       0.6149   0.4954   0.9921     H
C       0.6172   0.8366   0.4245     C
H       0.6179   0.4454   0.5215     H
H       0.6183   0.1426   0.4034     H
H       0.6197   0.7083   0.1344     H
H       0.6224   0.9935   0.0029     H
H       0.6226   0.9286   0.5127     H
C        0.623   0.0248  0.99007     C
C       0.6255   0.9858  0.20624     C
H       0.6263   0.3541   0.4209     H
C       0.6267   0.8665  0.45462     C
H        0.627    0.125   0.0544     H
C       0.6287   0.1781  0.19428     C
C       0.6289   0.1179  0.95279     C
C       0.6298   0.7482  0.18104     C
H       0.6302   0.1497   0.9404     H
H       0.6329   0.9618   0.2245     H
C       0.6424   0.3003  0.24917     C
H       0.6441   0.2579   0.3204     H
C       0.6468   0.7109  0.15512     C
H       0.6477   0.6484   0.8743     H
H       0.6495   0.9782   0.3673     H
C       0.6496   0.7958  0.23681     C
H       0.6521    0.772   0.3998     H
C       0.6555   0.5811  0.92898     C
C       0.6571   0.7916   0.4205     C
C       0.6575   0.4932  0.17443     C
C       0.6576   0.3473   0.4396     C
C       0.6584   0.3845  0.46902     C
C       0.6591   0.5323  0.94976     C
H       0.6602   0.4639   0.3574     H
C       0.6614   0.2544  0.22783     C
C       0.6641   0.0596  0.17287     C
C       0.6665   0.0294  0.96056     C
H       0.6665   0.1427   0.8861     H
C       0.6708   0.7544  0.21167     C
C       0.6718   0.5748  0.14252     C
C       0.6728    0.076  0.94175     C
C       0.6756   0.0253  0.19971     C
H       0.6771   0.4663   0.1881     H
C       0.6771   0.8489   0.4793     C
C       0.6857   0.9535  0.37172     C
C       0.6878   0.6264  0.87213     C
H       0.6882   0.8684   0.4994     H
O       0.6895  0.31573   0.2706     O
H       0.6907   0.5054   0.9433     H
H       0.6925   0.0001    0.953     H
H       0.6978   0.8103   0.6966     H
C       0.6984   0.1647  0.18959     C
N       0.6984   0.9167  0.34763     N
H       0.6985   0.2806   0.4179     H
O       0.6986  0.38675  0.63498     O
C       0.6993   0.4412  0.36048     C
C       0.7003   0.5849  0.89586     C
C       0.7006   0.3024  0.43766     C
C       0.7011   0.5345  0.16303     C
C       0.7028   0.1175  0.88342     C
O       0.7034   0.8076  0.25654     O
N       0.7035   0.7746  0.44551     N
O       0.7037  0.64678   0.0969     O
C       0.7044   0.3723  0.49452     C
C       0.7057    0.678  0.16132     C
O       0.7065  0.90608  0.67822     O
N       0.7084   0.4012  0.33685     N
H       0.7089   0.3939   0.5143     H
C        0.711   0.7995  0.47234     C
H        0.711    0.982   0.4203     H
H       0.7137   0.3424   0.6947     H
C        0.715    0.079  0.90972     C
H       0.7168   0.0282   0.2137     H
H       0.7182    0.685   0.0092     H
O        0.721  0.12395  0.12669     O
C       0.7239   0.9571  0.40335     C
S      0.72735  0.11033  0.16408     S
S      0.72739  0.62933  0.13068     S
H       0.7318   0.7341   0.7304     H
C       0.7327   0.2434  0.22156     C
C       0.7327   0.7217  0.21632     C
H       0.7365    0.664   0.8313     H
H        0.737   0.2734   0.7357     H
H        0.738   0.4795   0.4027     H
C       0.7393   0.6334  0.84473     C
H       0.7409   0.7855   0.4898     H
H       0.7411    0.141   0.8333     H
N       0.7433   0.2912  0.46358     N
C       0.7446   0.4499   0.3885     C
C       0.7461   0.8028  0.70141     C
C       0.7483   0.6812  0.19107     C
C       0.7491   0.3233   0.4913     C
C       0.7497   0.1167  0.85126     C
H       0.7499   0.5353   0.1691     H
H       0.7501   0.4647   0.6691     H
C       0.7503   0.8833  0.35126     C
C       0.7509   0.6767   0.9913     C
C       0.7517   0.3188  0.69107     C
C       0.7539   0.1972  0.20141     C
C       0.7554   0.5501   0.8885     C
N       0.7567   0.7088  0.96358     N
H       0.7589    0.859   0.3333     H
H       0.7591   0.2145   0.9898     H
C       0.7607   0.3666  0.34473     C
H        0.762   0.5205   0.9027     H
H        0.763   0.7266   0.2357     H
H       0.7635    0.336   0.3313     H
C       0.7673   0.2783  0.71632     C
C       0.7673   0.7566  0.72156     C
H       0.7682   0.2659   0.2304     H
S      0.77261  0.37067  0.63068     S
S      0.77265  0.88967  0.66408     S
C       0.7761   0.0429  0.90335     C
O        0.779  0.87605  0.62669     O
H       0.7818    0.315   0.5092     H
H       0.7832   0.9718   0.7137     H
C        0.785    0.921  0.40972     C
H       0.7863   0.6576   0.1947     H
H        0.789    0.018   0.9203     H
C        0.789   0.2005  0.97234     C
H       0.7911   0.6061   0.0143     H
N       0.7916   0.5988  0.83685     N
O       0.7935  0.09392  0.17822     O
C       0.7943    0.322  0.66132     C
C       0.7956   0.6277  0.99452     C
O       0.7963  0.35322   0.5969     O
N       0.7965   0.2254  0.94551     N
O       0.7966   0.1924  0.75654     O
C       0.7972   0.8825  0.38342     C
C       0.7989   0.4655  0.66303     C
C       0.7994   0.6976  0.93766     C
C       0.7997   0.4151  0.39586     C
C       0.8007   0.5588  0.86048     C
O       0.8014  0.61325  0.13498     O
H       0.8015   0.7194   0.9179     H
N       0.8016   0.0833  0.84763     N
C       0.8016   0.8353  0.68959     C
H       0.8022   0.1897   0.1966     H
H       0.8075   0.9999    0.453     H
H       0.8093   0.4946   0.4433     H
O       0.8105  0.68427   0.7706     O
H       0.8118   0.1316   0.9994     H
C       0.8122   0.3736  0.37213     C
C       0.8143   0.0465  0.87172     C
C       0.8229   0.1511   0.9793     C
H       0.8229   0.5337   0.6881     H
C       0.8244   0.9747  0.69971     C
C       0.8272    0.924  0.44175     C
C       0.8282   0.4252  0.64252     C
C       0.8292   0.2456  0.71167     C
H       0.8335   0.8573   0.3861     H
C       0.8335   0.9706  0.46056     C
C       0.8359   0.9404  0.67287     C
C       0.8386   0.7456  0.72783     C
H       0.8398   0.5361   0.8574     H
C       0.8409   0.4677  0.44976     C
C       0.8416   0.6155  0.96902     C
C       0.8424   0.6527   0.9396     C
C       0.8425   0.5068  0.67443     C
C       0.8429   0.2084   0.9205     C
C       0.8445   0.4189  0.42898     C
H       0.8479    0.228   0.8998     H
C       0.8504   0.2042  0.73681     C
H       0.8505   0.0218   0.8673     H
H       0.8523   0.3516   0.3743     H
C       0.8532   0.2891  0.65512     C
H       0.8559   0.7421   0.8204     H
C       0.8576   0.6997  0.74917     C
H       0.8671   0.0382   0.7245     H
H       0.8698   0.8503   0.4404     H
C       0.8702   0.2518  0.68104     C
C       0.8711   0.8821  0.45279     C
C       0.8713   0.8219  0.69428     C
H        0.873    0.875   0.5544     H
C       0.8733   0.1335  0.95462     C
H       0.8737   0.6459   0.9209     H
C       0.8745   0.0142  0.70624     C
C        0.877   0.9752  0.49007     C
H       0.8774   0.0714   0.0127     H
H       0.8776   0.0065   0.5029     H
H       0.8803   0.2917   0.6344     H
H       0.8817   0.8574   0.9034     H
H       0.8821   0.5546   0.0215     H
C       0.8828   0.1634   0.9245     C
H       0.8851   0.5046   0.4921     H
C       0.8852   0.4733  0.47933     C
Cd      0.8855  0.62291  0.79918    Cd
H       0.8882   0.8132   0.8546     H
C       0.8889   0.7769   0.7142     C
H       0.8894   0.8048   0.5949     H
C       0.8899   0.5683  0.96894     C
C       0.8913   0.3792  0.44044     C
H       0.8922   0.2378   0.8049     H
C       0.8923   0.7374  0.83711     C
H       0.8934   0.3476   0.4281     H
H       0.8954   0.3596     0.54     H
H       0.8958   0.3406   0.8995     H
C       0.8964   0.9432  0.65115     C
H       0.9006   0.9201   0.6321     H
C       0.9012   0.4264  0.63342     C
C       0.9041   0.5429   0.0008     C
C       0.9072   0.0575  0.99521     C
H       0.9079   0.8423   0.6843     H
H        0.908   0.9227   0.9426     H
C       0.9093   0.7804  0.85853     C
H       0.9105   0.2303   0.6777     H
H       0.9109    0.308   0.8434     H
C       0.9132   0.0828  0.96194     C
H       0.9133    0.568   0.9167     H
H       0.9138   0.4094   0.9382     H
O       0.9146  0.19034  0.73852     O
C       0.9155   0.5079  0.66532     C
C       0.9156   0.8869  0.48128     C
H       0.9158   0.1532   0.9073     H
C       0.9186   0.8676  0.56362     C
C       0.9196   0.9331   0.5006     C
O       0.9205  0.68113  0.74932     O
H       0.9208   0.3995   0.6197     H
C       0.9228    0.551  0.93797     C
N       0.9235  0.69011  0.83844     N
C        0.925   0.8563  0.91599     C
H       0.9284   0.7256   0.6118     H
C       0.9286   0.8259  0.58848     C
H       0.9293   0.2864   0.5714     H
C       0.9303   0.4312  0.48986     C
C       0.9306   0.2359  0.82081     C
C       0.9336   0.3863  0.46944     C
C       0.9362   0.0175  0.68504     C
H       0.9375   0.7689    0.718     H
C       0.9396    0.278  0.84464     C
C       0.9413   0.8956  0.93918     C
C        0.942   0.3571  0.54923     C
C       0.9422   0.3475    0.908     C
O       0.9431  0.58037  0.70329     O
H       0.9441   0.8583   0.4879     H
C       0.9448   0.4677  0.64482     C
H       0.9455   0.9942   0.0234     H
C       0.9475   0.0106  0.00141     C
H       0.9475   0.6596   0.6545     H
C       0.9513   0.5002   0.0017     C
C       0.9524   0.3879  0.93183     C
C       0.9525    0.981  0.65761     C
C       0.9551   0.0607  0.93655     C
H       0.9563   0.0758   0.9141     H
O       0.9572  0.56456   0.8304     O
C       0.9586    0.773   0.8858     C
C       0.9607    0.315  0.56991     C
H       0.9609   0.4832    0.023     H
C       0.9617   0.5516  0.67684     C
C       0.9643   0.7296  0.62888     C
H       0.9661   0.3598   0.4757     H
N       0.9675   0.9384  0.52875     N
H       0.9697   0.5024   0.5731     H
C         0.97   0.5083  0.93887     C
C       0.9707   0.6849  0.86521     C
N       0.9731  0.19357  0.81946     N
Cd     0.97314  0.13268  0.77395    Cd
C       0.9737   0.8139  0.91087     C
C       0.9763   0.6897  0.65514     C
N        0.977   0.4406  0.51934     N
O       0.9778  0.05703  0.83734     O
C       0.9788   0.8966   0.5536     C
H       0.9802   0.2124    0.593     H
C       0.9843   0.4829  0.97073     C
C       0.9882   0.7207   0.8886     C
C       0.9886   0.9899   0.9754     C
O       0.9911  0.08373  0.72057     O
H       0.9921   0.4966   0.9181     H
C       0.9928   0.0593  0.69375     C
C       0.9933   0.3966  0.54198     C
H       0.9934   0.6522   0.8674     H
H       0.9936   0.4685   0.6387     H
C       0.9938   0.2727  0.87035     C
H       0.9958   0.9817    0.645     H
C       0.9975    0.015   0.9435     C
C       0.9991    0.816  0.60386     C
