data_I
_chemical_name_common  '/home/zhangsd/repos/MofS-CGCNN/ML/data/TSD/clean_cifs/PELXIP_clean'
_cell_length_a 12.38000
_cell_length_b 16.48800
_cell_length_c 21.24600
_cell_angle_alpha 90.00000
_cell_angle_beta  90.00000
_cell_angle_gamma 90.00000
_space_group_name_H-M_alt      'P 1'


loop_
_space_group_symop_operation_xyz
  'x, y, z' 

loop_
_atom_site_label
_atom_site_fract_x
_atom_site_fract_y
_atom_site_fract_z
_atom_site_type_symbol
C       0.0003   0.3913   0.0177     C
H        0.009   0.8223   0.8949     H
H       0.0118    0.072   0.9095     H
Cd     0.01182  0.32997  0.29977    Cd
C       0.0124   0.9526   0.6986     C
C       0.0136   0.0909   0.6566     C
Cd     0.01919  0.43969   0.7713    Cd
N       0.0197   0.1757   0.2907     N
N       0.0211   0.2951   0.7885     N
C       0.0227   0.5824    0.921     C
C       0.0234   0.8232   0.1804     C
H       0.0254   0.4013   0.1696     H
H        0.031   0.2042   0.6224     H
C       0.0388    0.385   0.1284     C
H       0.0402   0.5891   0.0159     H
C       0.0501   0.9429   0.1125     C
H       0.0553    0.918   0.3595     H
N       0.0609   0.8783   0.6994     N
N       0.0626   0.7577   0.2088     N
C        0.064    0.165   0.6473     C
C       0.0656     0.03   0.6899     C
H        0.071   0.7962   0.9958     H
O       0.0714   0.4258   0.6609     O
N       0.0802    0.186   0.8344     N
C       0.0809    0.832   0.9052     C
C       0.0848   0.3352   0.0065     C
C        0.085   0.8967    0.163     C
H       0.0859   0.0407   0.0594     H
N        0.094   0.0552    0.294     N
H       0.1021     0.32   0.9656     H
O       0.1044   0.4666   0.2662     O
N       0.1053   0.2611   0.8144     N
C       0.1063   0.5225   0.9095     C
C       0.1078   0.0116   0.0947     C
N       0.1084   0.4675   0.8628     N
N       0.1108   0.1357   0.2868     N
O        0.116   0.5837   0.7463     O
C        0.118   0.8165   0.9655     C
C       0.1196   0.3284   0.1164     C
H       0.1266   0.8728   0.8196     H
H       0.1361   0.3733   0.5542     H
C       0.1398   0.3041   0.0554     C
N       0.1401   0.3104    0.373     N
O       0.1424      0.3   0.2267     O
N       0.1455   0.3434   0.4306     N
O       0.1506   0.5927   0.2821     O
C       0.1516   0.8621   0.8601     C
O       0.1554   0.7126   0.7462     O
C       0.1621   0.1808   0.6746     C
C        0.165   0.0459   0.7161     C
C       0.1653   0.4017   0.6747     C
C       0.1687    0.517   0.2884     C
C       0.1774     0.29   0.1715     C
C       0.1776   0.9201   0.1953     C
C       0.1807   0.6392     0.76     C
N       0.1921   0.5147   0.9461     N
H       0.1927   0.2652    0.048     H
O       0.1927   0.3957   0.7326     O
H       0.1938   0.2315   0.6698     H
C       0.1946   0.0365   0.1276     C
H       0.2003   0.0056   0.7389     H
N        0.202   0.4267   0.8722     N
H        0.203   0.8891   0.2287     H
C       0.2074   0.3618   0.5647     C
C       0.2139   0.1221    0.709     C
N       0.2144   0.7624   0.0835     N
N       0.2236    0.262   0.3647     N
C       0.2255   0.8313   0.9806     C
Cd     0.22644  0.82072  0.68725    Cd
Cd     0.22915  0.70078   0.2316    Cd
H       0.2293   0.0847    0.117     H
C       0.2319     0.99   0.1774     C
C       0.2356   0.3131   0.4563     C
O       0.2406   0.7474   0.3373     O
C        0.242    0.376   0.6252     C
N       0.2498    0.954   0.5782     N
N       0.2502    0.454   0.9218     N
C        0.258    0.876   0.8748     C
O       0.2594   0.2474   0.1627     O
C       0.2644   0.8131   0.0437     C
C       0.2681     0.49   0.3226     C
H       0.2707   0.5847    0.383     H
Cd     0.27085  0.20078   0.2684    Cd
Cd     0.27356  0.32072  0.81275    Cd
C       0.2745   0.3313   0.5194     C
N       0.2764    0.762   0.1353     N
N       0.2856   0.2624   0.4165     N
C       0.2861   0.6221    0.791     C
C       0.2926   0.8618   0.9353     C
H        0.297   0.3891   0.2713     H
N        0.298   0.9267   0.6278     N
H       0.2997   0.5056   0.7611     H
C       0.3054   0.5365   0.3724     C
H       0.3062   0.7315   0.8302     H
H       0.3073   0.7652    0.452     H
O       0.3073   0.8957   0.7674     O
N       0.3079   0.0147   0.5539     N
C       0.3193   0.1392     0.74     C
C       0.3224   0.4201   0.3047     C
C       0.3226     0.79   0.3285     C
C       0.3313    0.017   0.2116     C
C       0.3347   0.9017   0.8253     C
C        0.335   0.5459   0.7839     C
C       0.3379   0.6808   0.8254     C
O       0.3446   0.2126   0.7538     O
C       0.3484   0.3621   0.6399     C
O       0.3494   0.0927   0.2179     O
N       0.3545   0.8434   0.0694     N
O       0.3576      0.8   0.2733     O
N       0.3599   0.8104    0.127     N
C       0.3602   0.8041   0.4446     C
H       0.3639   0.8733   0.9458     H
H       0.3734   0.3728   0.6804     H
C       0.3804   0.8284   0.3836     C
C        0.382   0.3165   0.5345     C
O        0.384   0.0837   0.7537     O
N       0.3892   0.6357   0.2132     N
N       0.3916   0.9675   0.6372     N
C       0.3922   0.5116   0.4053     C
C       0.3937   0.0225   0.5905     C
N       0.3947   0.7611   0.6856     N
O       0.3956   0.9666   0.2338     O
H       0.3979     0.82   0.5344     H
N        0.406   0.5552    0.206     N
H       0.4141   0.5407   0.4406     H
C        0.415   0.3967    0.337     C
C       0.4152   0.8352   0.4935     C
C       0.4191    0.332   0.5948     C
N       0.4198    0.686   0.6656     N
O       0.4286   0.9258   0.8391     O
H        0.429   0.2962   0.5042     H
C       0.4344     0.53   0.8101     C
C        0.436    0.665   0.8527     C
N       0.4374   0.2577   0.2912     N
N       0.4391   0.3783   0.8006     N
H       0.4447    0.418   0.1405     H
C       0.4499   0.4429   0.3875     C
H       0.4598   0.0891   0.4841     H
C       0.4612    0.885   0.3716     C
H        0.469   0.7042   0.8776     H
H       0.4746   0.9013   0.3304     H
C       0.4766   0.3232   0.3196     C
C       0.4773   0.0824    0.579     C
N       0.4789   0.7951   0.7115     N
N       0.4803   0.6757   0.2093     N
Cd     0.48081  0.93969   0.7287    Cd
C       0.4864   0.5909   0.8434     C
C       0.4876   0.4526   0.8014     C
Cd     0.48818  0.82997  0.20023    Cd
H       0.4882    0.572   0.5905     H
H        0.491   0.3223   0.6051     H
C       0.4997   0.8913   0.4823     C
C       0.5003   0.1087   0.5177     C
H        0.509   0.6777   0.3949     H
H       0.5118    0.428   0.4095     H
Cd     0.51182  0.17003  0.79977    Cd
C       0.5124   0.5474   0.1986     C
C       0.5136   0.4091   0.1566     C
Cd     0.51919  0.06031   0.2713    Cd
N       0.5197   0.3243   0.7907     N
N       0.5211   0.2049   0.2885     N
C       0.5227   0.9176    0.421     C
C       0.5234   0.6768   0.6804     C
H       0.5254   0.0987   0.6696     H
H        0.531   0.2958   0.1224     H
C       0.5388    0.115   0.6284     C
H       0.5402   0.9109   0.5159     H
C       0.5501   0.5571   0.6125     C
H       0.5553    0.582   0.8595     H
N       0.5609   0.6217   0.1994     N
N       0.5626   0.7423   0.7088     N
C        0.564    0.335   0.1473     C
C       0.5656     0.47   0.1899     C
H        0.571   0.7038   0.4958     H
O       0.5714   0.0742   0.1609     O
N       0.5802    0.314   0.3344     N
C       0.5809    0.668   0.4052     C
C       0.5848   0.1648   0.5065     C
C        0.585   0.6033    0.663     C
H       0.5859   0.4593   0.5594     H
N        0.594   0.4448    0.794     N
H       0.6021     0.18   0.4656     H
O       0.6044   0.0334   0.7662     O
N       0.6053   0.2389   0.3144     N
C       0.6063   0.9775   0.4095     C
C       0.6078   0.4884   0.5947     C
N       0.6084   0.0325   0.3628     N
N       0.6108   0.3643   0.7868     N
O        0.616   0.9163   0.2463     O
C        0.618   0.6835   0.4655     C
C       0.6196   0.1716   0.6164     C
H       0.6266   0.6272   0.3196     H
H       0.6361   0.1267   0.0542     H
C       0.6398   0.1959   0.5554     C
N       0.6401   0.1896    0.873     N
O       0.6424      0.2   0.7267     O
N       0.6455   0.1566   0.9306     N
O       0.6506   0.9073   0.7821     O
C       0.6516   0.6379   0.3601     C
O       0.6554   0.7874   0.2462     O
C       0.6621   0.3192   0.1746     C
C        0.665   0.4541   0.2161     C
C       0.6653   0.0983   0.1747     C
C       0.6687    0.983   0.7884     C
C       0.6774     0.21   0.6715     C
C       0.6776   0.5799   0.6953     C
C       0.6807   0.8608     0.26     C
N       0.6921   0.9853   0.4461     N
O       0.6927   0.1043   0.2326     O
H       0.6927   0.2348    0.548     H
H       0.6938   0.2685   0.1698     H
C       0.6946   0.4635   0.6276     C
H       0.7003   0.4944   0.2389     H
N        0.702   0.0733   0.3722     N
H        0.703   0.6109   0.7287     H
C       0.7074   0.1382   0.0647     C
C       0.7139   0.3779    0.209     C
N       0.7144   0.7376   0.5835     N
N       0.7236    0.238   0.8647     N
C       0.7255   0.6687   0.4806     C
Cd     0.72644  0.67928  0.18725    Cd
Cd     0.72915  0.79922   0.7316    Cd
H       0.7293   0.4153    0.617     H
C       0.7319     0.51   0.6774     C
C       0.7356   0.1869   0.9563     C
O       0.7406   0.7526   0.8373     O
C        0.742    0.124   0.1252     C
N       0.7498    0.546   0.0782     N
N       0.7502    0.046   0.4218     N
C        0.758    0.624   0.3748     C
O       0.7594   0.2526   0.6627     O
C       0.7644   0.6869   0.5437     C
C       0.7681     0.01   0.8226     C
H       0.7707   0.9153    0.883     H
Cd     0.77085  0.29922   0.7684    Cd
Cd     0.77356  0.17928  0.31275    Cd
C       0.7745   0.1687   0.0194     C
N       0.7764    0.738   0.6353     N
N       0.7856   0.2376   0.9165     N
C       0.7861   0.8779    0.291     C
C       0.7926   0.6382   0.4353     C
H        0.797   0.1109   0.7713     H
N        0.798   0.5733   0.1278     N
H       0.7997   0.9944   0.2611     H
C       0.8054   0.9635   0.8724     C
H       0.8062   0.7685   0.3302     H
O       0.8073   0.6043   0.2674     O
H       0.8073   0.7348    0.952     H
N       0.8079   0.4853   0.0539     N
C       0.8193   0.3608     0.24     C
C       0.8224   0.0799   0.8047     C
C       0.8226     0.71   0.8285     C
C       0.8313    0.483   0.7116     C
C       0.8347   0.5983   0.3253     C
C        0.835   0.9541   0.2839     C
C       0.8379   0.8192   0.3254     C
O       0.8446   0.2874   0.2538     O
C       0.8484   0.1379   0.1399     C
O       0.8494   0.4073   0.7179     O
N       0.8545   0.6566   0.5694     N
O       0.8576      0.7   0.7733     O
N       0.8599   0.6896    0.627     N
C       0.8602   0.6959   0.9446     C
H       0.8639   0.6267   0.4458     H
H       0.8734   0.1272   0.1804     H
C       0.8804   0.6716   0.8836     C
C        0.882   0.1835   0.0345     C
O        0.884   0.4163   0.2537     O
N       0.8892   0.8643   0.7132     N
N       0.8916   0.5325   0.1372     N
C       0.8922   0.9884   0.9053     C
C       0.8937   0.4775   0.0905     C
N       0.8947   0.7389   0.1856     N
O       0.8956   0.5334   0.7338     O
H       0.8979     0.68   0.0344     H
N        0.906   0.9448    0.706     N
H       0.9141   0.9593   0.9406     H
C        0.915   0.1033    0.837     C
C       0.9152   0.6648   0.9935     C
C       0.9191    0.168   0.0948     C
N       0.9198    0.814   0.1656     N
O       0.9286   0.5742   0.3391     O
H        0.929   0.2038   0.0042     H
C       0.9344     0.97   0.3101     C
C        0.936    0.835   0.3527     C
N       0.9374   0.2423   0.7912     N
N       0.9391   0.1217   0.3006     N
H       0.9447    0.082   0.6405     H
C       0.9499   0.0571   0.8875     C
H       0.9598   0.4109   0.9841     H
C       0.9612    0.615   0.8716     C
H        0.969   0.7958   0.3776     H
H       0.9746   0.5987   0.8304     H
C       0.9766   0.1768   0.8196     C
C       0.9773   0.4176    0.079     C
N       0.9789   0.7049   0.2115     N
N       0.9803   0.8243   0.7093     N
Cd     0.98081  0.56031   0.2287    Cd
C       0.9864   0.9091   0.3434     C
C       0.9876   0.0474   0.3014     C
Cd     0.98818  0.67003  0.70023    Cd
H       0.9882    0.928   0.0905     H
H        0.991   0.1777   0.1051     H
C       0.9997   0.6087   0.9823     C
