data_I
_chemical_name_common  '/home/zhangsd/repos/MofS-CGCNN/ML/data/TSD/clean_cifs/PEMRIK_clean'
_cell_length_a 13.76330
_cell_length_b 16.60270
_cell_length_c 19.23030
_cell_angle_alpha 115.57400
_cell_angle_beta  103.77200
_cell_angle_gamma 90.00000
_space_group_name_H-M_alt      'P 1'


loop_
_space_group_symop_operation_xyz
  'x, y, z' 

loop_
_atom_site_label
_atom_site_fract_x
_atom_site_fract_y
_atom_site_fract_z
_atom_site_type_symbol
C       0.0031  0.95327   0.7232     C
C       0.0092  0.88414  0.65158     C
H       0.0094   0.4035    0.878     H
C       0.0113  0.40186  0.82892     C
C       0.0139  0.39902  0.68446     C
H        0.014   0.3984   0.6354     H
C        0.016  0.78756  0.90602     C
H       0.0227   0.9234   0.9588     H
H       0.0257   0.1161    0.397     H
H       0.0296   0.4242    0.374     H
H       0.0359   0.6581   0.8794     H
C       0.0432  0.87351  0.96708     C
C       0.0444  0.66796  0.31444     C
C      0.04554  0.66785   0.2423     C
N       0.0476  0.22715  0.16906     N
C       0.0507  0.71729  0.92024     C
N      0.05469  0.30348  0.23558     N
H        0.058    0.003   0.8434     H
C       0.0595  0.95501  0.79432     C
C       0.0662  0.81518  0.65086     C
C       0.0687  0.97832    0.275     C
H       0.0688   0.7678   0.6018     H
C       0.0698  0.46809   0.8277     C
C       0.0723  0.46726   0.7553     C
O      0.07413  0.92143  0.20776     O
H       0.0836   0.7139   0.3628     H
H       0.0845    0.529   0.5064     H
C       0.0928  0.42296  0.40562     C
C        0.101  0.88491  0.04044     C
O       0.1035  0.74049  0.17568     O
C       0.1062  0.74285  0.24216     C
N        0.107  0.16643   0.1791     N
C       0.1074  0.73518  0.99542     C
H       0.1085   0.5143    0.876     H
C       0.1174  0.88734   0.7936     C
C      0.11935  0.81544  0.72156     C
O      0.12033   0.9842  0.34042     O
H       0.1206   0.9437   0.0816     H
C       0.1234  0.29158  0.29086     C
C        0.126  0.48484  0.48486     C
N      0.13028  0.81694   0.0556     N
H       0.1314   0.6868   0.0048     H
C      0.14233  0.53465  0.75318     C
O      0.14399  0.52645  0.68538     O
C       0.1545  0.35904  0.37366     C
O      0.15478  0.80229  0.30854     O
H       0.1559   0.8896    0.842     H
C       0.1566  0.20828  0.25696     C
H       0.1616   0.8924   0.4666     H
O      0.17603  0.67504  0.65576     O
C       0.1786  0.73962  0.72228     C
Zn      0.1837  0.84145  0.17246    Zn
O      0.19608  0.59214  0.81876     O
H       0.2056   0.1848   0.2838     H
H        0.208   0.9185    0.599     H
N      0.21426  0.48495  0.53238     N
C        0.225  0.92398  0.49916     C
O      0.22581  0.74657   0.7888     O
Zn     0.24412  0.91995  0.34888    Zn
C       0.2477  0.36097  0.42174     C
C       0.2523  0.93923  0.57826     C
Zn     0.25588  0.57107  0.65112    Zn
O      0.27419  0.95777   0.2112     O
C        0.275  0.42482  0.50084     C
N      0.28574  0.95257  0.46762     N
H        0.292   0.3195    0.401     H
H       0.2944    0.901   0.7162     H
O      0.30392  0.77338  0.18124     O
Zn      0.3163  0.66899  0.82754    Zn
C       0.3214  0.01734  0.27772     C
O      0.32397  0.01928  0.34424     O
H       0.3384   0.4258   0.5334     H
C       0.3434  0.95132  0.74304     C
H       0.3441   0.0476    0.158     H
O      0.34522  0.49375  0.69146     O
C       0.3455  0.98538  0.62634     C
O      0.35601  0.84107  0.31462     O
C      0.35767  0.78147  0.24682     C
H       0.3686    0.682   0.9952     H
N      0.36972  0.76134   0.9444     N
C        0.374  0.99998  0.51514     C
C       0.3766  0.00072  0.70914     C
H       0.3794   0.8621   0.9184     H
O      0.37967  0.64378  0.65958     O
C      0.38065  0.09388  0.27844     C
C       0.3826  0.09374   0.2064     C
H       0.3915   0.6383    0.124     H
C       0.3926  0.73976  0.00458     C
N        0.393  0.98733   0.8209     N
C       0.3938  0.50069  0.75784     C
O       0.3965  0.56481  0.82432     O
C        0.399  0.84447  0.95956     C
C       0.4072  0.01734  0.59438     C
H       0.4155   0.0226   0.4936     H
H       0.4164   0.3511   0.6372     H
O      0.42587  0.71367  0.79224     O
C       0.4277  0.71196   0.2447     C
C       0.4302  0.64039   0.1723     C
H       0.4312    0.166   0.3982     H
C       0.4313  0.70332    0.725     C
C       0.4338  0.16432  0.34914     C
C       0.4405  0.16069  0.20568     C
H        0.442   0.1596   0.1566     H
N      0.44531   0.0679  0.76442     N
C       0.4493  0.79705  0.07976     C
N       0.4524  0.05809  0.83094     N
C      0.45446  0.42555   0.7577     C
C       0.4556  0.35352  0.68556     C
C       0.4568  0.90643  0.03292     C
H       0.4641   0.7787   0.1206     H
H       0.4704   0.0502    0.626     H
H       0.4743   0.7191    0.603     H
H       0.4773   0.9646   0.0412     H
C        0.484  0.88154  0.09398     C
H        0.486    0.763   0.3646     H
C       0.4861  0.71456  0.31554     C
C       0.4887  0.57294  0.17108     C
H       0.4906   0.5255    0.122     H
C       0.4908  0.23256  0.34842     C
C       0.4969  0.23007   0.2768     C
C       0.5031  0.76993   0.7232     C
C       0.5092  0.76744  0.65158     C
H       0.5094   0.4745    0.878     H
C       0.5113  0.42706  0.82892     C
C       0.5139  0.28544  0.68446     C
H        0.514    0.237   0.6354     H
C        0.516  0.11846  0.90602     C
H       0.5227   0.0354   0.9588     H
H       0.5257   0.2809    0.397     H
H       0.5296   0.9498    0.374     H
H       0.5359   0.2213   0.8794     H
C       0.5432  0.09357  0.96708     C
C       0.5444  0.64648  0.31444     C
C      0.54554  0.57445   0.2423     C
N       0.5476  0.94191  0.16906     N
C       0.5507  0.20295  0.92024     C
N      0.55469   0.9321  0.23558     N
H        0.558   0.8404   0.8434     H
C       0.5595  0.83931  0.79432     C
C       0.5662  0.83568  0.65086     C
C       0.5687  0.29668    0.275     C
H       0.5688    0.834   0.6018     H
C       0.5698  0.35961   0.8277     C
C       0.5723  0.28804   0.7553     C
O      0.57413  0.28633  0.20776     O
H       0.5836   0.6489   0.3628     H
H       0.5845   0.9774   0.5064     H
C       0.5928  0.98266  0.40562     C
C        0.601  0.15553  0.04044     C
O       0.6035  0.43519  0.17568     O
C       0.6062  0.49931  0.24216     C
N        0.607  0.01267   0.1791     N
C       0.6074  0.26024  0.99542     C
H       0.6085   0.3617    0.876     H
C       0.6174  0.90626   0.7936     C
C      0.61935  0.90612  0.72156     C
O      0.62033  0.35622  0.34042     O
H       0.6206   0.1379   0.0816     H
C       0.6234  0.99928  0.29086     C
C        0.626    2e-05  0.48486     C
N      0.63028  0.23866   0.0556     N
H       0.6314    0.318   0.0048     H
C      0.64233  0.21853  0.75318     C
O      0.64399  0.15893  0.68538     O
C       0.6545  0.01462  0.37366     C
O      0.65478  0.50625  0.30854     O
H       0.6559   0.9524    0.842     H
C       0.6566  0.04868  0.25696     C
H       0.6616   0.5742   0.4666     H
O      0.67603  0.98072  0.65576     O
C       0.6786  0.98266  0.72228     C
Zn      0.6837  0.33101  0.17246    Zn
O      0.69608  0.22662  0.81876     O
H       0.7056    0.099   0.2838     H
H        0.708   0.6805    0.599     H
N      0.71426  0.04743  0.53238     N
C        0.725  0.57518  0.49916     C
O      0.72581  0.04223   0.7888     O
Zn     0.74412  0.42893  0.34888    Zn
C       0.7477  0.06077  0.42174     C
C       0.7523  0.63903  0.57826     C
Zn     0.75588  0.08005  0.65112    Zn
O      0.77419  0.25343   0.2112     O
C        0.775  0.07602  0.50084     C
N      0.78574  0.51505  0.46762     N
H        0.792   0.0815    0.401     H
H       0.7944   0.8152   0.7162     H
O      0.80392  0.40786  0.18124     O
Zn      0.8163  0.15855  0.82754    Zn
C       0.8214  0.26038  0.27772     C
O      0.82397  0.32496  0.34424     O
H       0.8384   0.1076   0.5334     H
C       0.8434  0.79172  0.74304     C
H       0.8441   0.1104    0.158     H
O      0.84522  0.19771  0.69146     O
C       0.8455  0.64096  0.62634     C
O      0.85601  0.47355  0.31462     O
C      0.85767  0.46535  0.24682     C
H       0.8686   0.3132   0.9952     H
N      0.86972  0.18306   0.9444     N
C        0.874  0.51516  0.51514     C
C       0.8766  0.70842  0.70914     C
H       0.8794   0.0563   0.9184     H
O      0.87967   0.0158  0.65958     O
C      0.88065  0.18456  0.27844     C
C       0.8826  0.11266   0.2064     C
H       0.8915   0.4857    0.124     H
C       0.8926  0.26482  0.00458     C
N        0.893  0.83357   0.8209     N
C       0.8938  0.25715  0.75784     C
O       0.8965  0.25951  0.82432     O
C        0.899  0.11509  0.95956     C
C       0.9072  0.57704  0.59438     C
H       0.9155    0.471   0.4936     H
H       0.9164   0.2861   0.6372     H
O      0.92587  0.07857  0.79224     O
C       0.9277  0.53274   0.2447     C
C       0.9302  0.53191   0.1723     C
H       0.9312   0.2322   0.3982     H
C       0.9313  0.02168    0.725     C
C       0.9338  0.18482  0.34914     C
C       0.9405  0.04499  0.20568     C
H        0.942    0.997   0.1566     H
N      0.94531  0.69652  0.76442     N
C       0.9493  0.28271  0.07976     C
N       0.9524  0.77285  0.83094     N
C      0.95446  0.33215   0.7577     C
C       0.9556  0.33204  0.68556     C
C       0.9568  0.12649  0.03292     C
H       0.9641   0.3419   0.1206     H
H       0.9704   0.5758    0.626     H
H       0.9743   0.8839    0.603     H
H       0.9773   0.0766   0.0412     H
C        0.984  0.21244  0.09398     C
H        0.986   0.6016   0.3646     H
C       0.9861  0.60098  0.31554     C
C       0.9887  0.59814  0.17108     C
H       0.9906   0.5965    0.122     H
C       0.9908  0.11586  0.34842     C
C       0.9969  0.04673   0.2768     C
