data_I
_chemical_name_common  '/home/zhangsd/repos/MofS-CGCNN/ML/data/TSD/clean_cifs/PENZUE_clean'
_cell_length_a  8.45900
_cell_length_b  9.62200
_cell_length_c 24.38900
_cell_angle_alpha 90.00000
_cell_angle_beta  90.00000
_cell_angle_gamma 90.00000
_space_group_name_H-M_alt      'P 1'


loop_
_space_group_symop_operation_xyz
  'x, y, z' 

loop_
_atom_site_label
_atom_site_fract_x
_atom_site_fract_y
_atom_site_fract_z
_atom_site_type_symbol
C       0.0212   0.5042  0.16811     C
C       0.0212   0.9958  0.33189     C
H        0.026   0.6732   0.2624     H
H        0.026   0.8268   0.2376     H
O       0.0379  0.10863  0.08164     O
O       0.0379  0.39137  0.41836     O
C       0.0419   0.7013  0.11058     C
C       0.0419   0.7987  0.38942     C
H        0.047    0.045   0.2993     H
H        0.047    0.455   0.2007     H
C       0.0599   0.1374  0.57445     C
C       0.0599   0.3626  0.92555     C
C       0.0801   0.5543  0.86947     C
C       0.0801   0.9457  0.63053     C
H       0.0821   0.7088   0.3975     H
H       0.0821   0.7912   0.1025     H
C       0.0863   0.6351  0.15878     C
C       0.0863   0.8649  0.34122     C
H       0.0879   0.1845   0.5416     H
H       0.0879   0.3155   0.9584     H
C       0.0952     0.75     0.25     C
N       0.1213   0.0108  0.58391     N
N       0.1213   0.4892  0.91609     N
H       0.1224   0.6439   0.8622     H
H       0.1224   0.8561   0.6378     H
P      0.13446  0.60205  0.56237     P
P      0.13446  0.89795  0.93763     P
O       0.1761  0.03674  0.96277     O
O       0.1761  0.46326  0.53723     O
O       0.1799  0.72255  0.52595     O
O       0.1799  0.77745  0.97405     O
C       0.1922   0.6995  0.20114     C
C       0.1922   0.8005  0.29886     C
H       0.2207   0.6133   0.6063     H
H       0.2207   0.8867   0.8937     H
Zn     0.22659  0.09552  0.03507    Zn
Zn     0.22659  0.40448  0.46493    Zn
H       0.2292   0.1302   0.7863     H
H       0.2292   0.3698   0.7137     H
H         0.25   0.2213   0.6848     H
H         0.25   0.2787   0.8152     H
H         0.25   0.7213   0.3152     H
H         0.25   0.7787   0.1848     H
H       0.2708   0.6302   0.2137     H
H       0.2708   0.8698   0.2863     H
Zn     0.27341  0.59552  0.96493    Zn
Zn     0.27341  0.90448  0.53507    Zn
H       0.2793   0.1133   0.3937     H
H       0.2793   0.3867   0.1063     H
C       0.3078   0.1995  0.79886     C
C       0.3078   0.3005  0.70114     C
O       0.3201  0.22255  0.47405     O
O       0.3201  0.27745  0.02595     O
O       0.3239  0.53674  0.03723     O
O       0.3239  0.96326  0.46277     O
P      0.36554  0.10205  0.43763     P
P      0.36554  0.39795  0.06237     P
H       0.3776   0.1439   0.1378     H
H       0.3776   0.3561   0.3622     H
N       0.3787   0.5108  0.41609     N
N       0.3787   0.9892  0.08391     N
C       0.4048     0.25     0.75     C
H       0.4121   0.6845   0.4584     H
H       0.4121   0.8155   0.0416     H
C       0.4137   0.1351  0.84122     C
C       0.4137   0.3649  0.65878     C
H       0.4179   0.2088   0.6025     H
H       0.4179   0.2912   0.8975     H
C       0.4199   0.0543  0.13053     C
C       0.4199   0.4457  0.36947     C
C       0.4401   0.6374  0.42555     C
C       0.4401   0.8626  0.07445     C
H        0.453    0.545   0.7007     H
H        0.453    0.955   0.7993     H
C       0.4581   0.2013  0.88942     C
C       0.4581   0.2987  0.61058     C
O       0.4621  0.60863  0.91836     O
O       0.4621  0.89137  0.58164     O
H        0.474   0.1732   0.7376     H
H        0.474   0.3268   0.7624     H
C       0.4788   0.0042  0.83189     C
C       0.4788   0.4958  0.66811     C
C       0.5212   0.5042  0.33189     C
C       0.5212   0.9958  0.16811     C
H        0.526   0.6732   0.2376     H
H        0.526   0.8268   0.2624     H
O       0.5379  0.10863  0.41836     O
O       0.5379  0.39137  0.08164     O
C       0.5419   0.7013  0.38942     C
C       0.5419   0.7987  0.11058     C
H        0.547    0.045   0.2007     H
H        0.547    0.455   0.2993     H
C       0.5599   0.1374  0.92555     C
C       0.5599   0.3626  0.57445     C
C       0.5801   0.5543  0.63053     C
C       0.5801   0.9457  0.86947     C
H       0.5821   0.7088   0.1025     H
H       0.5821   0.7912   0.3975     H
C       0.5863   0.6351  0.34122     C
C       0.5863   0.8649  0.15878     C
H       0.5879   0.1845   0.9584     H
H       0.5879   0.3155   0.5416     H
C       0.5952     0.75     0.25     C
N       0.6213   0.0108  0.91609     N
N       0.6213   0.4892  0.58391     N
H       0.6224   0.6439   0.6378     H
H       0.6224   0.8561   0.8622     H
P      0.63446  0.60205  0.93763     P
P      0.63446  0.89795  0.56237     P
O       0.6761  0.03674  0.53723     O
O       0.6761  0.46326  0.96277     O
O       0.6799  0.72255  0.97405     O
O       0.6799  0.77745  0.52595     O
C       0.6922   0.6995  0.29886     C
C       0.6922   0.8005  0.20114     C
H       0.7207   0.6133   0.8937     H
H       0.7207   0.8867   0.6063     H
Zn     0.72659  0.09552  0.46493    Zn
Zn     0.72659  0.40448  0.03507    Zn
H       0.7292   0.1302   0.7137     H
H       0.7292   0.3698   0.7863     H
H         0.75   0.2213   0.8152     H
H         0.75   0.2787   0.6848     H
H         0.75   0.7213   0.1848     H
H         0.75   0.7787   0.3152     H
H       0.7708   0.6302   0.2863     H
H       0.7708   0.8698   0.2137     H
Zn     0.77341  0.59552  0.53507    Zn
Zn     0.77341  0.90448  0.96493    Zn
H       0.7793   0.1133   0.1063     H
H       0.7793   0.3867   0.3937     H
C       0.8078   0.1995  0.70114     C
C       0.8078   0.3005  0.79886     C
O       0.8201  0.22255  0.02595     O
O       0.8201  0.27745  0.47405     O
O       0.8239  0.53674  0.46277     O
O       0.8239  0.96326  0.03723     O
P      0.86554  0.10205  0.06237     P
P      0.86554  0.39795  0.43763     P
H       0.8776   0.1439   0.3622     H
H       0.8776   0.3561   0.1378     H
N       0.8787   0.5108  0.08391     N
N       0.8787   0.9892  0.41609     N
C       0.9048     0.25     0.75     C
H       0.9121   0.6845   0.0416     H
H       0.9121   0.8155   0.4584     H
C       0.9137   0.1351  0.65878     C
C       0.9137   0.3649  0.84122     C
H       0.9179   0.2088   0.8975     H
H       0.9179   0.2912   0.6025     H
C       0.9199   0.0543  0.36947     C
C       0.9199   0.4457  0.13053     C
C       0.9401   0.6374  0.07445     C
C       0.9401   0.8626  0.42555     C
H        0.953    0.545   0.7993     H
H        0.953    0.955   0.7007     H
C       0.9581   0.2013  0.61058     C
C       0.9581   0.2987  0.88942     C
O       0.9621  0.60863  0.58164     O
O       0.9621  0.89137  0.91836     O
H        0.974   0.1732   0.7624     H
H        0.974   0.3268   0.7376     H
C       0.9788   0.0042  0.66811     C
C       0.9788   0.4958  0.83189     C
