data_I
_chemical_name_common  '/home/zhangsd/repos/MofS-CGCNN/ML/data/TSD/clean_cifs/PEVBUP_clean'
_cell_length_a 22.77300
_cell_length_b 22.77300
_cell_length_c 12.66800
_cell_angle_alpha 90.00000
_cell_angle_beta  90.00000
_cell_angle_gamma 90.00000
_space_group_name_H-M_alt      'P 1'


loop_
_space_group_symop_operation_xyz
  'x, y, z' 

loop_
_atom_site_label
_atom_site_fract_x
_atom_site_fract_y
_atom_site_fract_z
_atom_site_type_symbol
Cu         0.0      0.0      0.5    Cu
Cu         0.0      0.5      0.0    Cu
C      0.00136   0.4308   0.5221     C
N      0.00446  0.69368   0.1862     N
H       0.0056   0.4167   0.4536     H
C       0.0075   0.5302    0.281     C
C      0.00885  0.30197   0.7107     C
H       0.0124    0.517    0.212     H
H        0.017   0.9876    0.712     H
C      0.01944  0.84389   0.4507     C
N       0.0211   0.5724   0.9465     N
H       0.0238   0.6972    0.436     H
N      0.02994  0.84223   0.3457     N
C       0.0302   0.9925    0.781     C
H       0.0319   0.9068   0.8135     H
C       0.0331   0.6159   0.9069     C
C       0.0341  0.69201   0.3655     C
N      0.03878   0.0471   0.8176     N
C      0.03997  0.13831   0.5205     C
C       0.0401   0.9437   0.8414     C
Cu     0.04563  0.13252  0.74106    Cu
N       0.0471  0.46122   0.6824     N
C      0.05138  0.44273   0.5815     C
N      0.05235  0.56107   0.4394     N
H       0.0547   0.8316   0.5948     H
C       0.0563   0.5401   0.3414     C
C      0.05727  0.05138   0.9185     C
Cu     0.05784  0.68421  0.83095    Cu
H       0.0594   0.1977   0.2625     H
C       0.0607   0.6834   0.1633     C
N      0.06107  0.94765   0.9394     N
N      0.06147  0.12989    0.422     N
C       0.0636   0.8309   0.5231     C
C      0.06406  0.11115   0.9558     C
N      0.06634  0.15491   0.8848     N
H       0.0666   0.2845   0.3575     H
N      0.06782  0.13001   0.0575     N
C       0.0682   0.2329   0.2289     C
C       0.0692  0.00136   0.9779     C
C      0.06965  0.29052   0.6853     C
N      0.07176  0.20458   0.9414     N
C        0.072  0.18788   0.0434     C
H       0.0721   0.6818   0.0929     H
N       0.0724   0.9789   0.4465     N
C       0.0731   0.7583   0.8955     C
C       0.0738   0.2847   0.2853     C
C       0.0744    0.673   0.6822     C
C       0.0762  0.23546   0.1208     C
H       0.0774   0.2863   0.5275     H
N      0.07898  0.12803   0.5977     N
H       0.0833   0.0056   0.0464     H
C       0.0848   0.8289   0.3171     C
N      0.08872  0.28594   0.0725     N
Cu     0.08873   0.2891  0.91497    Cu
N        0.089   0.7999    0.931     N
N      0.08978  0.67912   0.3425     N
C         0.09   0.3374   0.2362     C
N       0.0931   0.6587   0.6067     N
H       0.0932   0.5319   0.3135     H
N      0.09371  0.28422   0.5887     N
H       0.0941   0.8269   0.2457     H
H       0.0955   0.3718   0.2745     H
C       0.0975   0.3355   0.1266     C
C       0.1022    0.675   0.2404     C
N      0.10916  0.28469   0.7636     N
C      0.11115  0.43594   0.5442     C
N      0.11195  0.37127   0.9516     N
C       0.1132  0.38371   0.0562     C
C       0.1159   0.9669   0.4069     C
C      0.11629   0.1132   0.4438     C
N       0.1175   0.8178   0.4937     N
Cu     0.12092  0.87015  0.98822    Cu
N      0.12803  0.42102   0.9023     N
C       0.1281   0.8181   0.3907     C
H       0.1282   0.0955   0.2255     H
N      0.12873  0.11195   0.5484     N
Cu     0.12985  0.62092  0.48822    Cu
N      0.12989  0.43853    0.078     N
N      0.13001  0.43218   0.4425     N
Cu     0.13252  0.45437  0.75894    Cu
C      0.13831  0.46003   0.9795     C
H       0.1405   0.6662   0.2204     H
C      0.15003   0.2739   0.6139     C
N      0.15491  0.43366   0.6152     N
C      0.15611  0.51944   0.9507     C
N      0.15777  0.52994   0.8457     N
N       0.1587   0.9069   0.1067     N
N      0.16112   0.2739   0.7172     N
H       0.1613     0.27   0.4003     H
C       0.1626     0.09   0.2638     C
C       0.1645   0.0975   0.3734     C
H       0.1661   0.8108   0.3673     H
H       0.1662   0.8595   0.7204     H
H       0.1684   0.5547   0.0948     H
C       0.1691   0.5636   0.0231     C
C       0.1711   0.5848   0.8171     C
C        0.173   0.9256   0.1822     C
H       0.1731   0.5941   0.7457     H
C        0.175   0.8978   0.7404     C
N      0.17912  0.91022   0.8425     N
H       0.1818   0.9279   0.5929     H
C       0.1819   0.6281   0.8907     C
N       0.1822   0.6175   0.9937     N
C       0.1834   0.9393   0.6633     C
Cu     0.18421  0.94216  0.33095    Cu
C      0.18788    0.428   0.4566     C
H       0.1892   0.6661   0.8673     H
C      0.19201   0.9659   0.8655     C
N      0.19368  0.99554   0.6862     N
H       0.1972   0.9762    0.936     H
H       0.1977   0.4406   0.2375     H
C      0.19803  0.00885   0.7893     C
C       0.1983   0.2617   0.4369     C
C       0.1998   0.2621   0.5443     C
N       0.2001    0.589    0.431     N
H       0.2005   0.2611    0.179     H
N      0.20458  0.42824   0.5586     N
C      0.20948  0.06965   0.8147     C
Cu      0.2109  0.08873  0.58503    Cu
H       0.2137   0.0774   0.9725     H
N      0.21406  0.08872   0.4275     N
C       0.2153   0.0738   0.2147     C
N      0.21531  0.10916   0.7364     N
H       0.2155   0.0666   0.1425     H
N      0.21578  0.09371   0.9113     N
C       0.2253   0.2555   0.1166     C
C       0.2261  0.15003   0.8861     C
N       0.2261  0.16112   0.7828     N
H         0.23   0.1613   0.0997     H
C       0.2329   0.4318   0.2711     C
C      0.23546   0.4238   0.3792     C
C       0.2379   0.1998   0.9557     C
C       0.2383   0.1983   0.0631     C
H       0.2389   0.2005    0.321     H
C       0.2417   0.5731   0.3955     C
C       0.2445   0.2253   0.3834     C
N         0.25     0.25   0.5943     N
Cu        0.25     0.25     0.75    Cu
N         0.25     0.25   0.9057     N
C       0.2555   0.2747   0.3834     C
C       0.2583   0.9269   0.3955     C
H       0.2611   0.2995    0.321     H
C       0.2617   0.3017   0.0631     C
C       0.2621   0.3002   0.9557     C
C      0.26454   0.0762   0.3792     C
C       0.2671   0.0682   0.2711     C
H         0.27   0.3387   0.0997     H
N       0.2739  0.33888   0.7828     N
C       0.2739  0.34997   0.8861     C
C       0.2747   0.2445   0.1166     C
N      0.28422  0.40629   0.9113     N
H       0.2845   0.4334   0.1425     H
N      0.28469  0.39084   0.7364     N
C       0.2847   0.4262   0.2147     C
N      0.28594  0.41128   0.4275     N
H       0.2863   0.4226   0.9725     H
Cu      0.2891  0.41127  0.58503    Cu
C      0.29052  0.43035   0.8147     C
N      0.29542  0.07176   0.5586     N
H       0.2995   0.2389    0.179     H
N       0.2999    0.911    0.431     N
C       0.3002   0.2379   0.5443     C
C       0.3017   0.2383   0.4369     C
C      0.30197  0.49115   0.7893     C
H       0.3023   0.0594   0.2375     H
H       0.3028   0.5238    0.936     H
N      0.30632  0.50446   0.6862     N
C      0.30799   0.5341   0.8655     C
H       0.3108   0.8339   0.8673     H
C      0.31212    0.072   0.4566     C
Cu     0.31579  0.55784  0.33095    Cu
C       0.3166   0.5607   0.6633     C
N       0.3178   0.8825   0.9937     N
C       0.3181   0.8719   0.8907     C
H       0.3182   0.5721   0.5929     H
N      0.32088  0.58978   0.8425     N
C        0.325   0.6022   0.7404     C
H       0.3269   0.9059   0.7457     H
C        0.327   0.5744   0.1822     C
C       0.3289   0.9152   0.8171     C
C       0.3309   0.9364   0.0231     C
H       0.3316   0.9453   0.0948     H
H       0.3338   0.6405   0.7204     H
H       0.3339   0.6892   0.3673     H
C       0.3355   0.4025   0.3734     C
C       0.3374     0.41   0.2638     C
H       0.3387     0.23   0.4003     H
N      0.33888   0.2261   0.7172     N
N       0.3413   0.5931   0.1067     N
N      0.34223  0.97006   0.8457     N
C      0.34389  0.98056   0.9507     C
N      0.34509  0.06634   0.6152     N
C      0.34997   0.2261   0.6139     C
H       0.3595   0.8338   0.2204     H
C      0.36169  0.03997   0.9795     C
Cu     0.36748  0.04563  0.75894    Cu
N      0.36999  0.06782   0.4425     N
N      0.37011  0.06147    0.078     N
Cu     0.37015  0.87908  0.48822    Cu
N      0.37127  0.38805   0.5484     N
H       0.3718   0.4045   0.2255     H
C       0.3719   0.6819   0.3907     C
N      0.37197  0.07898   0.9023     N
Cu     0.37908  0.62985  0.98822    Cu
N       0.3825   0.6822   0.4937     N
C      0.38371   0.3868   0.4438     C
C       0.3841   0.5331   0.4069     C
C       0.3868  0.11629   0.0562     C
N      0.38805  0.12873   0.9516     N
C      0.38885  0.06406   0.5442     C
N      0.39084  0.21531   0.7636     N
C       0.3978    0.825   0.2404     C
C       0.4025   0.1645   0.1266     C
H       0.4045   0.1282   0.2745     H
H       0.4059   0.6731   0.2457     H
N      0.40629  0.21578   0.5887     N
H       0.4068   0.9681   0.3135     H
N       0.4069   0.8413   0.6067     N
C         0.41   0.1626   0.2362     C
N      0.41022  0.82088   0.3425     N
N        0.411   0.7001    0.931     N
Cu     0.41127   0.2109  0.91497    Cu
N      0.41128  0.21406   0.0725     N
C       0.4152   0.6711   0.3171     C
H       0.4167   0.4944   0.0464     H
N      0.42102  0.37197   0.5977     N
H       0.4226   0.2137   0.5275     H
C       0.4238  0.26454   0.1208     C
C       0.4256    0.827   0.6822     C
C       0.4262   0.2153   0.2853     C
C       0.4269   0.7417   0.8955     C
N       0.4276   0.5211   0.4465     N
H       0.4279   0.8182   0.0929     H
C        0.428  0.31212   0.0434     C
N      0.42824  0.29542   0.9414     N
C      0.43035  0.20948   0.6853     C
C       0.4308  0.49864   0.9779     C
C       0.4318   0.2671   0.2289     C
N      0.43218  0.36999   0.0575     N
H       0.4334   0.2155   0.3575     H
N      0.43366  0.34509   0.8848     N
C      0.43594  0.38885   0.9558     C
C       0.4364   0.6691   0.5231     C
N      0.43853  0.37011    0.422     N
N      0.43893  0.55235   0.9394     N
C       0.4393   0.8166   0.1633     C
H       0.4406   0.3023   0.2625     H
Cu     0.44216  0.81579  0.83095    Cu
C      0.44273  0.44862   0.9185     C
C       0.4437   0.9599   0.3414     C
H       0.4453   0.6684   0.5948     H
N      0.44765  0.93893   0.4394     N
C      0.44862  0.05727   0.5815     C
N       0.4529  0.03878   0.6824     N
Cu     0.45437  0.36748  0.74106    Cu
C       0.4599   0.5563   0.8414     C
C      0.46003  0.36169   0.5205     C
N      0.46122   0.4529   0.8176     N
C       0.4659  0.80799   0.3655     C
C       0.4669   0.8841   0.9069     C
H       0.4681   0.5932   0.8135     H
C       0.4698   0.5075    0.781     C
N      0.47006  0.65777   0.3457     N
H       0.4762   0.8028    0.436     H
N       0.4789   0.9276   0.9465     N
C      0.48056  0.65611   0.4507     C
H        0.483   0.5124    0.712     H
H       0.4876    0.983    0.212     H
C      0.49115  0.19803   0.7107     C
C       0.4925   0.9698    0.281     C
H       0.4944   0.0833   0.4536     H
N      0.49554  0.80632   0.1862     N
C      0.49864   0.0692   0.5221     C
Cu         0.5      0.0      0.0    Cu
Cu         0.5      0.5      0.5    Cu
C      0.50136   0.9308   0.4779     C
N      0.50446  0.19368   0.8138     N
H       0.5056   0.9167   0.5464     H
C       0.5075   0.0302    0.719     C
C      0.50885  0.80197   0.2893     C
H       0.5124    0.017    0.788     H
H        0.517   0.4876    0.288     H
C      0.51944  0.34389   0.5493     C
N       0.5211   0.0724   0.0535     N
H       0.5238   0.1972    0.564     H
N      0.52994  0.34223   0.6543     N
C       0.5302   0.4925    0.219     C
H       0.5319   0.4068   0.1865     H
C       0.5331   0.1159   0.0931     C
C       0.5341  0.19201   0.6345     C
N      0.53878   0.5471   0.1824     N
C      0.53997  0.63831   0.4795     C
C       0.5401   0.4437   0.1586     C
Cu     0.54563  0.63252  0.25894    Cu
N       0.5471  0.96122   0.3176     N
C      0.55138  0.94273   0.4185     C
N      0.55235  0.06107   0.5606     N
H       0.5547   0.3316   0.4052     H
C       0.5563   0.0401   0.6586     C
C      0.55727  0.55138   0.0815     C
Cu     0.55784  0.18421  0.16905    Cu
H       0.5594   0.6977   0.7375     H
C       0.5607   0.1834   0.8367     C
N      0.56107  0.44765   0.0606     N
N      0.56147  0.62989    0.578     N
C       0.5636   0.3309   0.4769     C
C      0.56406  0.61115   0.0442     C
N      0.56634  0.65491   0.1152     N
H       0.5666   0.7845   0.6425     H
N      0.56782  0.63001   0.9425     N
C       0.5682   0.7329   0.7711     C
C       0.5692  0.50136   0.0221     C
C      0.56965  0.79052   0.3147     C
N      0.57176  0.70458   0.0586     N
C        0.572  0.68788   0.9566     C
H       0.5721   0.1818   0.9071     H
N       0.5724   0.4789   0.5535     N
C       0.5731   0.2583   0.1045     C
C       0.5738   0.7847   0.7147     C
C       0.5744    0.173   0.3178     C
C       0.5762  0.73546   0.8792     C
H       0.5774   0.7863   0.4725     H
N      0.57898  0.62803   0.4023     N
H       0.5833   0.5056   0.9536     H
C       0.5848   0.3289   0.6829     C
N      0.58872  0.78594   0.9275     N
Cu     0.58873   0.7891  0.08503    Cu
N        0.589   0.2999    0.069     N
N      0.58978  0.17912   0.6575     N
C         0.59   0.8374   0.7638     C
N       0.5931   0.1587   0.3933     N
H       0.5932   0.0319   0.6865     H
N      0.59371  0.78422   0.4113     N
H       0.5941   0.3269   0.7543     H
H       0.5955   0.8718   0.7255     H
C       0.5975   0.8355   0.8734     C
C       0.6022    0.175   0.7596     C
N      0.60916  0.78469   0.2364     N
C      0.61115  0.93594   0.4558     C
N      0.61195  0.87127   0.0484     N
C       0.6132  0.88371   0.9438     C
C       0.6159   0.4669   0.5931     C
C      0.61629   0.6132   0.5562     C
N       0.6175   0.3178   0.5063     N
Cu     0.62092  0.37015  0.01178    Cu
N      0.62803  0.92102   0.0977     N
C       0.6281   0.3181   0.6093     C
H       0.6282   0.5955   0.7745     H
N      0.62873  0.61195   0.4516     N
Cu     0.62985  0.12092  0.51178    Cu
N      0.62989  0.93853    0.922     N
N      0.63001  0.93218   0.5575     N
Cu     0.63252  0.95437  0.24106    Cu
C      0.63831  0.96003   0.0205     C
H       0.6405   0.1662   0.7796     H
C      0.65003   0.7739   0.3861     C
N      0.65491  0.93366   0.3848     N
C      0.65611  0.01944   0.0493     C
N      0.65777  0.02994   0.1543     N
N       0.6587   0.4069   0.8933     N
N      0.66112   0.7739   0.2828     N
H       0.6613     0.77   0.5997     H
C       0.6626     0.59   0.7362     C
C       0.6645   0.5975   0.6266     C
H       0.6661   0.3108   0.6327     H
H       0.6662   0.3595   0.2796     H
H       0.6684   0.0547   0.9052     H
C       0.6691   0.0636   0.9769     C
C       0.6711   0.0848   0.1829     C
C        0.673   0.4256   0.8178     C
H       0.6731   0.0941   0.2543     H
C        0.675   0.3978   0.2596     C
N      0.67912  0.41022   0.1575     N
H       0.6818   0.4279   0.4071     H
C       0.6819   0.1281   0.1093     C
N       0.6822   0.1175   0.0063     N
C       0.6834   0.4393   0.3367     C
Cu     0.68421  0.44216  0.66905    Cu
C      0.68788    0.928   0.5434     C
H       0.6892   0.1661   0.1327     H
C      0.69201   0.4659   0.1345     C
N      0.69368  0.49554   0.3138     N
H       0.6972   0.4762    0.064     H
H       0.6977   0.9406   0.7625     H
C      0.69803  0.50885   0.2107     C
C       0.6983   0.7617   0.5631     C
C       0.6998   0.7621   0.4557     C
N       0.7001    0.089    0.569     N
H       0.7005   0.7611    0.821     H
N      0.70458  0.92824   0.4414     N
C      0.70948  0.56965   0.1853     C
Cu      0.7109  0.58873  0.41497    Cu
H       0.7137   0.5774   0.0275     H
N      0.71406  0.58872   0.5725     N
C       0.7153   0.5738   0.7853     C
N      0.71531  0.60916   0.2636     N
H       0.7155   0.5666   0.8575     H
N      0.71578  0.59371   0.0887     N
C       0.7253   0.7555   0.8834     C
C       0.7261  0.65003   0.1139     C
N       0.7261  0.66112   0.2172     N
H         0.73   0.6613   0.9003     H
C       0.7329   0.9318   0.7289     C
C      0.73546   0.9238   0.6208     C
C       0.7379   0.6998   0.0443     C
C       0.7383   0.6983   0.9369     C
H       0.7389   0.7005    0.679     H
C       0.7417   0.0731   0.6045     C
C       0.7445   0.7253   0.6166     C
N         0.75     0.75   0.0943     N
Cu        0.75     0.75     0.25    Cu
N         0.75     0.75   0.4057     N
C       0.7555   0.7747   0.6166     C
C       0.7583   0.4269   0.6045     C
H       0.7611   0.7995    0.679     H
C       0.7617   0.8017   0.9369     C
C       0.7621   0.8002   0.0443     C
C      0.76454   0.5762   0.6208     C
C       0.7671   0.5682   0.7289     C
H         0.77   0.8387   0.9003     H
N       0.7739  0.83888   0.2172     N
C       0.7739  0.84997   0.1139     C
C       0.7747   0.7445   0.8834     C
N      0.78422  0.90629   0.0887     N
H       0.7845   0.9334   0.8575     H
N      0.78469  0.89084   0.2636     N
C       0.7847   0.9262   0.7853     C
N      0.78594  0.91128   0.5725     N
H       0.7863   0.9226   0.0275     H
Cu      0.7891  0.91127  0.41497    Cu
C      0.79052  0.93035   0.1853     C
N      0.79542  0.57176   0.4414     N
H       0.7995   0.7389    0.821     H
N       0.7999    0.411    0.569     N
C       0.8002   0.7379   0.4557     C
C       0.8017   0.7383   0.5631     C
C      0.80197  0.99115   0.2107     C
H       0.8023   0.5594   0.7625     H
H       0.8028   0.0238    0.064     H
N      0.80632  0.00446   0.3138     N
C      0.80799   0.0341   0.1345     C
H       0.8108   0.3339   0.1327     H
C      0.81212    0.572   0.5434     C
Cu     0.81579  0.05784  0.66905    Cu
C       0.8166   0.0607   0.3367     C
N       0.8178   0.3825   0.0063     N
C       0.8181   0.3719   0.1093     C
H       0.8182   0.0721   0.4071     H
N      0.82088  0.08978   0.1575     N
C        0.825   0.1022   0.2596     C
H       0.8269   0.4059   0.2543     H
C        0.827   0.0744   0.8178     C
C       0.8289   0.4152   0.1829     C
C       0.8309   0.4364   0.9769     C
H       0.8316   0.4453   0.9052     H
H       0.8338   0.1405   0.2796     H
H       0.8339   0.1892   0.6327     H
C       0.8355   0.9025   0.6266     C
C       0.8374     0.91   0.7362     C
H       0.8387     0.73   0.5997     H
N      0.83888   0.7261   0.2828     N
N       0.8413   0.0931   0.8933     N
N      0.84223  0.47006   0.1543     N
C      0.84389  0.48056   0.0493     C
N      0.84509  0.56634   0.3848     N
C      0.84997   0.7261   0.3861     C
H       0.8595   0.3338   0.7796     H
C      0.86169  0.53997   0.0205     C
Cu     0.86748  0.54563  0.24106    Cu
N      0.86999  0.56782   0.5575     N
N      0.87011  0.56147    0.922     N
Cu     0.87015  0.37908  0.51178    Cu
N      0.87127  0.88805   0.4516     N
H       0.8718   0.9045   0.7745     H
C       0.8719   0.1819   0.6093     C
N      0.87197  0.57898   0.0977     N
Cu     0.87908  0.12985  0.01178    Cu
N       0.8825   0.1822   0.5063     N
C      0.88371   0.8868   0.5562     C
C       0.8841   0.0331   0.5931     C
C       0.8868  0.61629   0.9438     C
N      0.88805  0.62873   0.0484     N
C      0.88885  0.56406   0.4558     C
N      0.89084  0.71531   0.2364     N
C       0.8978    0.325   0.7596     C
C       0.9025   0.6645   0.8734     C
H       0.9045   0.6282   0.7255     H
H       0.9059   0.1731   0.7543     H
N      0.90629  0.71578   0.4113     N
H       0.9068   0.4681   0.6865     H
N       0.9069   0.3413   0.3933     N
C         0.91   0.6626   0.7638     C
N      0.91022  0.32088   0.6575     N
N        0.911   0.2001    0.069     N
Cu     0.91127   0.7109  0.08503    Cu
N      0.91128  0.71406   0.9275     N
C       0.9152   0.1711   0.6829     C
H       0.9167   0.9944   0.9536     H
N      0.92102  0.87197   0.4023     N
H       0.9226   0.7137   0.4725     H
C       0.9238  0.76454   0.8792     C
C       0.9256    0.327   0.3178     C
C       0.9262   0.7153   0.7147     C
C       0.9269   0.2417   0.1045     C
N       0.9276   0.0211   0.5535     N
H       0.9279   0.3182   0.9071     H
C        0.928  0.81212   0.9566     C
N      0.92824  0.79542   0.0586     N
C      0.93035  0.70948   0.3147     C
C       0.9308  0.99864   0.0221     C
C       0.9318   0.7671   0.7711     C
N      0.93218  0.86999   0.9425     N
H       0.9334   0.7155   0.6425     H
N      0.93366  0.84509   0.1152     N
C      0.93594  0.88885   0.0442     C
C       0.9364   0.1691   0.4769     C
N      0.93853  0.87011    0.578     N
N      0.93893  0.05235   0.0606     N
C       0.9393   0.3166   0.8367     C
H       0.9406   0.8023   0.7375     H
Cu     0.94216  0.31579  0.16905    Cu
C      0.94273  0.94862   0.0815     C
C       0.9437   0.4599   0.6586     C
H       0.9453   0.1684   0.4052     H
N      0.94765  0.43893   0.5606     N
C      0.94862  0.55727   0.4185     C
N       0.9529  0.53878   0.3176     N
Cu     0.95437  0.86748  0.25894    Cu
C       0.9599   0.0563   0.1586     C
C      0.96003  0.86169   0.4795     C
N      0.96122   0.9529   0.1824     N
C       0.9659  0.30799   0.6345     C
C       0.9669   0.3841   0.0931     C
H       0.9681   0.0932   0.1865     H
C       0.9698   0.0075    0.219     C
N      0.97006  0.15777   0.6543     N
H       0.9762   0.3028    0.564     H
N       0.9789   0.4276   0.0535     N
C      0.98056  0.15611   0.5493     C
H        0.983   0.0124    0.288     H
H       0.9876    0.483    0.788     H
C      0.99115  0.69803   0.2893     C
C       0.9925   0.4698    0.719     C
H       0.9944   0.5833   0.5464     H
N      0.99554  0.30632   0.8138     N
C      0.99864   0.5692   0.4779     C
