data_I
_chemical_name_common  '/home/zhangsd/repos/MofS-CGCNN/ML/data/TSD/clean_cifs/PEVLIN_clean'
_cell_length_a  6.90590
_cell_length_b  9.98900
_cell_length_c 11.09210
_cell_angle_alpha 116.76100
_cell_angle_beta  104.27400
_cell_angle_gamma 90.00000
_space_group_name_H-M_alt      'P 1'


loop_
_space_group_symop_operation_xyz
  'x, y, z' 

loop_
_atom_site_label
_atom_site_fract_x
_atom_site_fract_y
_atom_site_fract_z
_atom_site_type_symbol
C       0.0186   0.6936   0.7798     C
H         0.03   0.6161   0.8048     H
C       0.0779   0.9587    0.843     C
C       0.0942   0.8421   0.8796     C
O       0.1002  0.28898  0.45916     O
H       0.1332   0.0572   0.9094     H
O       0.1565  0.05462  0.33064     O
O       0.1598   0.7817     0.07     O
C        0.169   0.1707   0.4452     C
H       0.1876    0.179   0.6374     H
C       0.2022   0.8709   0.0264     C
O       0.2257  0.58229  0.44158     O
C       0.2785   0.1667     0.58     C
O       0.2846  0.73141  0.35122     O
C        0.298   0.7042   0.4548     C
O       0.3365  0.98355   0.1023     O
O       0.3503   0.0219    0.539     O
H       0.3903   0.2474   0.6336     H
C        0.404   0.8254   0.6024     C
C       0.4258   0.9794   0.6424     C
Nd     0.44236   0.9085  0.29621    Nd
H       0.4597   0.6789   0.6828     H
C        0.478   0.7808   0.7062     C
C       0.5186   0.0862   0.7798     C
H         0.53   0.1887   0.8048     H
C       0.5779   0.8843    0.843     C
C       0.5942   0.0375   0.8796     C
O       0.6002  0.17018  0.45916     O
H       0.6332   0.8522   0.9094     H
O       0.6565  0.27602  0.33064     O
O       0.6598   0.2883     0.07     O
C        0.669   0.2745   0.4452     C
H       0.6876   0.4584   0.6374     H
C       0.7022   0.1555   0.0264     C
O       0.7257  0.85929  0.44158     O
C       0.7785   0.4133     0.58     C
O       0.7846  0.61981  0.35122     O
C        0.798   0.7506   0.4548     C
O       0.8365  0.11875   0.1023     O
O       0.8503   0.5171    0.539     O
H       0.8903   0.3862   0.6336     H
C        0.904    0.777   0.6024     C
C       0.9258    0.663   0.6424     C
Nd     0.94236  0.38771  0.29621    Nd
H       0.9597   0.0039   0.6828     H
C        0.978   0.9254   0.7062     C
