data_I
_chemical_name_common  '/home/zhangsd/repos/MofS-CGCNN/ML/data/TSD/clean_cifs/PEVZAT_clean'
_cell_length_a  7.31670
_cell_length_b  9.62020
_cell_length_c 11.39570
_cell_angle_alpha 96.91430
_cell_angle_beta  90.00000
_cell_angle_gamma 112.35100
_space_group_name_H-M_alt      'P 1'


loop_
_space_group_symop_operation_xyz
  'x, y, z' 

loop_
_atom_site_label
_atom_site_fract_x
_atom_site_fract_y
_atom_site_fract_z
_atom_site_type_symbol
C      0.04978  0.62876   0.2618     C
C       0.0524   0.6328   0.3836     C
H       0.1263   0.7184   0.2294     H
H       0.1285   0.7238   0.4329     H
F       0.1419   0.4054   0.9902     F
O      0.15216  0.73012   0.0097     O
H       0.2334   0.2834   0.3918     H
H       0.2349   0.2908   0.1887     H
C      0.31798  0.37176   0.3609     C
C      0.32036  0.37692   0.2395     C
H       0.3262    0.997    0.102     H
H       0.3292    0.003    0.898     H
C      0.33804  0.79008    0.032     C
H       0.4047   0.2762   0.5671     H
H       0.4079   0.2816   0.7706     H
C       0.4196   0.3672   0.6164     C
C      0.42102  0.37124   0.7382     C
O      0.42204  0.26988   0.9903     O
C      0.42531  0.96522   0.0583     C
N      0.43789  0.49818  0.19084     N
Co     0.43904   0.4977   0.0035    Co
C      0.43999  0.49678   0.5664     C
N       0.4401   0.4956  0.81292     N
C      0.44056  0.49712   0.4366     C
O      0.45512  0.72524    0.035     O
C      0.45986  0.62652   0.6441     C
C      0.46009  0.03478   0.9417     C
C      0.46078  0.62116   0.7652     C
H       0.4726   0.7176   0.6142     H
H       0.4768   0.7108   0.8168     H
C      0.54796  0.20992    0.968     C
C      0.55577  0.61974   0.2646     C
C      0.55924  0.62448   0.3866     C
H        0.578    0.978   0.1937     H
O      0.58353  0.98246   0.8693     O
H          0.6    0.022   0.8063     H
O      0.60107  0.01754   0.1307     O
H       0.6403   0.7062   0.2315     H
H       0.6416   0.7136   0.4356     H
O      0.72988  0.27476    0.965     O
F       0.7365   0.5946   0.0098     F
H        0.755   0.2824   0.3858     H
H        0.766   0.2892   0.1832     H
C      0.83334  0.37348   0.3559     C
C      0.83962  0.37884   0.2348     C
H        0.928   0.2864   0.5644     H
H       0.9341   0.2938   0.7685     H
C      0.93476  0.37552   0.6134     C
C      0.93603  0.38026   0.7354     C
N      0.93971  0.50182  0.80916     N
Co     0.94134   0.5023   0.9965    Co
C      0.94321  0.50322   0.4336     C
C      0.94344  0.50288   0.5634     C
C      0.94344  0.62308   0.7605     C
H       0.9441   0.7092   0.8113     H
N       0.9445   0.5044  0.18708     N
C      0.94622  0.62824   0.6391     C
H         0.95   0.7166   0.6082     H
