data_I
_chemical_name_common  '/home/zhangsd/repos/MofS-CGCNN/ML/data/TSD/clean_cifs/PEYPIU_clean'
_cell_length_a 10.89470
_cell_length_b 10.97080
_cell_length_c 13.98910
_cell_angle_alpha 81.54000
_cell_angle_beta  89.01600
_cell_angle_gamma 87.65800
_space_group_name_H-M_alt      'P 1'


loop_
_space_group_symop_operation_xyz
  'x, y, z' 

loop_
_atom_site_label
_atom_site_fract_x
_atom_site_fract_y
_atom_site_fract_z
_atom_site_type_symbol
C       0.0421   0.3581   0.2871     C
O       0.0919   0.3395   0.3682     O
H       0.0934   0.3737   0.8626     H
C       0.0941   0.6532   0.7139     C
H       0.0951    0.319   0.7232     H
O        0.096    0.385   0.2074     O
H       0.0982   0.3159   0.5611     H
H       0.1007   0.3912   0.0217     H
O       0.1136   0.6688   0.8877     O
H       0.1252   0.6446   0.5718     H
C       0.1562    0.664   0.7968     C
C       0.1645   0.6498   0.6295     C
C        0.169   0.3705   0.8929     C
C       0.1691   0.3277   0.6891     C
C       0.1719   0.3241   0.5917     C
C       0.1742   0.3809   0.9886     C
H       0.2089   0.7907   0.9457     H
C       0.2149   0.7033   0.9411     C
H        0.216   0.6574   0.0059     H
H       0.2176   0.7227   0.4167     H
H       0.2182   0.9273   0.4258     H
C        0.241   0.7764   0.3624     C
C       0.2415   0.9008   0.3677     C
O       0.2674   0.5245   0.3558     O
O       0.2712   0.1921     0.22     O
Zn       0.273  0.33617  0.39297    Zn
C       0.2738   0.5931   0.2766     C
C       0.2741   0.7285   0.2792     C
C       0.2748   0.1221   0.2974     C
N       0.2748   0.3317   0.5383     N
C       0.2748   0.9877   0.2913     C
C       0.2759   0.3443   0.7369     C
C       0.2764    0.355   0.8409     C
O       0.2767   0.1522    0.379     O
Zn     0.27704  0.37777  0.18076    Zn
N       0.2777   0.3773   0.0372     N
O       0.2826   0.5586   0.1954     O
C       0.2846   0.6685   0.7962     C
C       0.2882   0.6538   0.6302     C
C         0.31   0.8137   0.2017     C
C       0.3106   0.9396   0.2083     C
O       0.3241    0.674    0.888     O
H       0.3313   0.6515   0.5725     H
O       0.3473   0.7932   0.1112     O
O       0.3515   0.0013   0.1215     O
C       0.3556   0.6614   0.7149     C
H       0.3694    0.927   0.9997     H
C       0.3788   0.3456   0.5841     C
C       0.3816   0.3659   0.9867     C
C       0.3828    0.351   0.6809     C
C       0.3851   0.3558   0.8917     C
C       0.3965   0.9077   0.0661     C
H       0.4517   0.3519   0.5485     H
H       0.4557   0.3647   0.0189     H
O       0.4564   0.3352   0.3668     O
H       0.4578   0.3592   0.7096     H
O       0.4583   0.3598   0.2077     O
H       0.4603   0.3494     0.86     H
H       0.4856   0.9022   0.0663     H
C       0.4897   0.6549   0.7136     C
C       0.5103   0.3451   0.2864     C
H       0.5144   0.0978   0.9337     H
H       0.5397   0.6506     0.14     H
O       0.5417   0.6402   0.7923     O
H       0.5422   0.6408   0.2904     H
O       0.5436   0.6648   0.6332     O
H       0.5443   0.6353   0.9811     H
H       0.5483   0.6481   0.4515     H
C       0.6035   0.0923   0.9339     C
C       0.6149   0.6442   0.1083     C
C       0.6172    0.649   0.3191     C
C       0.6184   0.6341   0.0133     C
C       0.6212   0.6544   0.4159     C
H       0.6306    0.073   0.0003     H
C       0.6444   0.3386   0.2851     C
O       0.6485   0.9987   0.8785     O
O       0.6527   0.2068   0.8888     O
H       0.6687   0.3485   0.4275     H
O       0.6759    0.326    0.112     O
C       0.6894   0.0604   0.7917     C
C         0.69   0.1863   0.7983     C
C       0.7118   0.3462   0.3698     C
C       0.7154   0.3315   0.2038     C
O       0.7174   0.4414   0.8046     O
N       0.7223   0.6227   0.9628     N
Zn     0.72296  0.62223  0.81924    Zn
O       0.7233   0.8478    0.621     O
C       0.7236    0.645   0.1591     C
C       0.7241   0.6557   0.2631     C
C       0.7252   0.0123   0.7087     C
N       0.7252   0.6683   0.4617     N
C       0.7252   0.8779   0.7026     C
C       0.7259   0.2715   0.7208     C
C       0.7262   0.4069   0.7234     C
Zn       0.727  0.66383  0.60703    Zn
O       0.7288   0.8079     0.78     O
O       0.7326   0.4755   0.6442     O
C       0.7585   0.0992   0.6323     C
C        0.759   0.2236   0.6376     C
H       0.7818   0.0727   0.5742     H
H       0.7824   0.2773   0.5833     H
H        0.784   0.3426   0.9941     H
C       0.7851   0.2967   0.0589     C
H       0.7911   0.2093   0.0543     H
C       0.8258   0.6191   0.0114     C
C       0.8281   0.6759   0.4083     C
C       0.8309   0.6723   0.3109     C
C        0.831   0.6295   0.1071     C
C       0.8355   0.3502   0.3705     C
C       0.8438    0.336   0.2032     C
H       0.8748   0.3554   0.4282     H
O       0.8864   0.3312   0.1123     O
H       0.8993   0.6088   0.9783     H
H       0.9018   0.6841   0.4389     H
O        0.904    0.615   0.7926     O
H       0.9049    0.681   0.2768     H
C       0.9059   0.3468   0.2861     C
H       0.9066   0.6263   0.1374     H
O       0.9081   0.6605   0.6318     O
C       0.9579   0.6419   0.7129     C
