data_I
_chemical_name_common  '/home/zhangsd/repos/MofS-CGCNN/ML/data/TSD/clean_cifs/PEYPAM_SL'
_cell_length_a 19.50780
_cell_length_b 19.50780
_cell_length_c 13.81500
_cell_angle_alpha 90.00000
_cell_angle_beta  90.00000
_cell_angle_gamma 90.00000
_space_group_name_H-M_alt      'P 1'


loop_
_space_group_symop_operation_xyz
  'x, y, z' 

loop_
_atom_site_label
_atom_site_fract_x
_atom_site_fract_y
_atom_site_fract_z
_atom_site_type_symbol
H      0.00543  0.33926  0.20092     H
O       0.0073  0.43175   0.9042     O
H       0.0078   0.1714   0.1487     H
O       0.0085   0.1029   0.7199     O
O       0.0101  0.75524   0.7901     O
Zn      0.0126  0.52993  0.87155    Zn
O        0.013  0.64659   0.8522     O
Zn     0.01369  0.98631     0.75    Zn
H        0.016    0.235   0.7219     H
C       0.0197   0.2394   0.7902     C
C       0.0198   0.1098   0.8071     C
C       0.0201   0.3878   0.9668     C
C       0.0202   0.3154   0.2733     C
C        0.021   0.3008   0.8301     C
H       0.0212   0.3391   0.7876     H
O       0.0217  0.89855   0.8209     O
C       0.0222   0.3146   0.9288     C
C       0.0237   0.1797   0.8495     C
C        0.027   0.7585   0.8857     C
C       0.0296   0.6935   0.9231     C
C       0.0298   0.2589    0.988     C
Zn     0.02986  0.02986     -0.0    Zn
O       0.0299  0.39824   0.0528     O
Zn     0.02993   0.4874  0.12155    Zn
C         0.03   0.1922   0.9461     C
O      0.03201  0.05771   0.8602     O
C       0.0337   0.8879   0.9097     C
O      0.03656  0.55691   0.0078     O
O       0.0393  0.25493   0.0826     O
O       0.0406  0.14693   0.0172     O
C       0.0407   0.8167   0.9426     C
O        0.043  0.93176   0.9706     O
C       0.0437   0.6094   0.0623     C
C        0.045   0.1853    0.104     C
C       0.0479   0.6792   0.0187     C
O       0.0529   0.6019   0.1487     O
O      0.05691  0.46344   0.2578     O
O      0.05771  0.03201   0.1398     O
C       0.0617   0.8018   0.0394     C
C       0.0676    0.736   0.0701     C
O      0.06824    0.957   0.5294     O
O      0.06825   0.5073   0.6542     O
H       0.0716   0.8383   0.0827     H
H      0.07824  0.31468  0.28288     H
H       0.0869   0.7287   0.1323     H
H       0.0894   0.1762   0.1362     H
O      0.10145   0.9783   0.6791     O
O      0.10176   0.5299   0.8028     O
O       0.1019   0.4471   0.3987     O
O       0.1029   0.0085   0.2801     O
C       0.1094   0.4563   0.3123     C
C       0.1098   0.0198   0.1929     C
C       0.1121   0.9663   0.5903     C
C       0.1122   0.5201   0.7168     C
O      0.14659    0.487   0.1022     O
O      0.14693   0.0406   0.9828     O
H      0.16074  0.50543  0.95092     H
H       0.1609   0.5212   0.5376     H
H       0.1617   0.9284   0.4173     H
H       0.1714   0.0078   0.8513     H
H       0.1762   0.0894   0.8638     H
C       0.1792   0.4521   0.2687     C
C       0.1797   0.0237   0.1505     C
C       0.1833   0.9593   0.5574     C
C       0.1846   0.5202   0.0233     C
C       0.1853    0.045    0.896     C
H      0.18532  0.57824  0.03288     H
C       0.1854   0.5222   0.6788     C
C       0.1922     0.03   0.0539     C
C       0.1935   0.4704   0.1731     C
C       0.1982   0.9383   0.4606     C
C       0.1992    0.521   0.5801     C
H       0.2287   0.4131   0.3823     H
H        0.235    0.016   0.2781     H
C        0.236   0.4324   0.3201     C
C       0.2394   0.0197   0.2098     C
C       0.2411   0.5298    0.738     C
C       0.2415    0.973   0.6143     C
O      0.24476   0.9899   0.7099     O
O      0.24507   0.5393   0.8326     O
O      0.25493   0.0393   0.9174     O
O      0.25524   0.4899   0.0401     O
C       0.2585    0.473   0.1357     C
C       0.2589   0.0298    0.012     C
C       0.2606   0.5197   0.5402     C
C        0.264   0.9324   0.4299     C
H        0.265    0.516   0.4719     H
H       0.2713   0.9131   0.3677     H
C       0.3008    0.021   0.1699     C
C       0.3018   0.4383   0.2894     C
C       0.3065   0.9704   0.5769     C
C       0.3078     0.53   0.6961     C
C       0.3146   0.0222   0.0712     C
H      0.31468  0.07824  0.71712     H
C       0.3147    0.545    0.854     C
C       0.3154   0.0202   0.7267     C
C       0.3167   0.4593   0.1926     C
C       0.3203   0.5237   0.5995     C
C       0.3208   0.9521   0.4813     C
H       0.3238   0.5894   0.8862     H
H       0.3286   0.5078   0.8987     H
H       0.3383   0.4284   0.3327     H
H       0.3391   0.0212   0.2124     H
H      0.33926  0.00543  0.79908     H
O      0.35307   0.5406   0.7672     O
O      0.35341    0.987   0.6478     O
C       0.3878   0.0201   0.0332     C
C       0.3879   0.4663   0.1597     C
C       0.3902   0.5198   0.5571     C
C       0.3906   0.9563   0.4377     C
O       0.3971   0.5085   0.4699     O
O       0.3981   0.9471   0.3513     O
O      0.39824   0.0299   0.9472     O
O      0.39855   0.4783   0.0709     O
H       0.4106   0.6762   0.6138     H
H       0.4131   0.2287   0.6177     H
H      0.42176  0.81468  0.46712     H
H       0.4284   0.3383   0.6673     H
O      0.43175   0.0073   0.0958     O
O      0.43176    0.457   0.2206     O
C       0.4324    0.236   0.6799     C
C       0.4383   0.3018   0.7106     C
O      0.44229  0.53201   0.6102     O
O      0.44309  0.96344   0.4922     O
O       0.4471   0.1019   0.6013     O
C       0.4521   0.1792   0.7313     C
C        0.455   0.6853    0.646     C
C       0.4563   0.1094   0.6877     C
O        0.457  0.43176   0.7794     O
C       0.4593   0.3167   0.8074     C
O       0.4594  0.64693   0.7328     O
O       0.4607  0.75493   0.6674     O
O      0.46344  0.05691   0.7422     O
C       0.4663   0.3879   0.8403     C
O      0.46799  0.55771   0.8898     O
C         0.47   0.6922   0.8039     C
Zn     0.47007   0.9874  0.62845    Zn
O       0.4701  0.89824   0.6972     O
Zn     0.47014  0.52986     0.75    Zn
C       0.4702   0.7589    0.762     C
C       0.4704   0.1935   0.8269     C
C        0.473   0.2585   0.8643     C
C       0.4763   0.6797   0.9005     C
C       0.4778   0.8146   0.8212     C
O       0.4783  0.39855   0.9291     O
H       0.4788   0.8391   0.9624     H
C        0.479   0.8008   0.9199     C
C       0.4798   0.8154   0.4767     C
C       0.4799   0.8878   0.7832     C
C       0.4802   0.6098   0.9429     C
C       0.4803   0.7394   0.9598     C
H        0.484    0.735   0.0281     H
Zn     0.48631  0.48631     -0.0    Zn
O        0.487  0.14659   0.8978     O
Zn      0.4874  0.02993  0.87845    Zn
O       0.4899  0.25524   0.9599     O
O       0.4915   0.6029   0.0301     O
H       0.4922   0.6714   0.6013     H
O       0.4927  0.93175   0.8458     O
H      0.49457  0.83926  0.54908     H
H      0.50543  0.16074  0.04908     H
O       0.5073  0.06825   0.3458     O
H       0.5078   0.3286   0.1013     H
O       0.5085   0.3971   0.5301     O
O       0.5101  0.74476   0.4599     O
Zn      0.5126  0.97007  0.37845    Zn
O        0.513  0.85341   0.3978     O
Zn     0.51369  0.51369      0.5    Zn
H        0.516    0.265   0.5281     H
C       0.5197   0.2606   0.4598     C
C       0.5198   0.3902   0.4429     C
C       0.5201   0.1122   0.2832     C
C       0.5202   0.1846   0.9767     C
C        0.521   0.1992   0.4199     C
H       0.5212   0.1609   0.4624     H
O       0.5217  0.60145   0.4291     O
C       0.5222   0.1854   0.3212     C
C       0.5237   0.3203   0.4005     C
C        0.527   0.7415   0.3643     C
C       0.5296   0.8065   0.3269     C
C       0.5298   0.2411    0.262     C
Zn     0.52986  0.47014     0.25    Zn
O       0.5299  0.10176   0.1972     O
Zn     0.52993   0.0126  0.12845    Zn
C         0.53   0.3078   0.3039     C
O      0.53201  0.44229   0.3898     O
C       0.5337   0.6121   0.3403     C
O      0.53656  0.94309   0.2422     O
O       0.5393  0.24507   0.1674     O
O       0.5406  0.35307   0.2328     O
C       0.5407   0.6833   0.3074     C
O        0.543  0.56824   0.2794     O
C       0.5437   0.8906   0.1877     C
C        0.545   0.3147    0.146     C
C       0.5479   0.8208   0.2313     C
O       0.5529   0.8981   0.1013     O
O      0.55691  0.03656   0.9922     O
O      0.55771  0.46799   0.1102     O
C       0.5617   0.6982   0.2106     C
C       0.5676    0.764   0.1799     C
O      0.56824    0.543   0.7206     O
O      0.56825   0.9927   0.5958     O
H       0.5716   0.6617   0.1673     H
H      0.57824  0.18532  0.96712     H
H       0.5869   0.7713   0.1177     H
H       0.5894   0.3238   0.1138     H
O      0.60145   0.5217   0.5709     O
O      0.60176   0.9701   0.4472     O
O       0.6019   0.0529   0.8513     O
O       0.6029   0.4915   0.9699     O
C       0.6094   0.0437   0.9377     C
C       0.6098   0.4802   0.0571     C
C       0.6121   0.5337   0.6597     C
C       0.6122   0.9799   0.5332     C
O      0.64659    0.013   0.1478     O
O      0.64693   0.4594   0.2672     O
H      0.66074  0.99457  0.29908     H
H       0.6609   0.9788   0.7124     H
H       0.6617   0.5716   0.8327     H
H       0.6714   0.4922   0.3987     H
H       0.6762   0.4106   0.3862     H
C       0.6792   0.0479   0.9813     C
C       0.6797   0.4763   0.0995     C
C       0.6833   0.5407   0.6926     C
C       0.6846   0.9798   0.2267     C
C       0.6853    0.455    0.354     C
H      0.68532  0.92176  0.21712     H
C       0.6854   0.9778   0.5712     C
C       0.6922     0.47   0.1961     C
C       0.6935   0.0296   0.0769     C
C       0.6982   0.5617   0.7894     C
C       0.6992    0.979   0.6699     C
H       0.7287   0.0869   0.8677     H
H        0.735    0.484   0.9719     H
C        0.736   0.0676   0.9299     C
C       0.7394   0.4803   0.0402     C
C       0.7411   0.9702    0.512     C
C       0.7415    0.527   0.6357     C
O      0.74476   0.5101   0.5401     O
O      0.74507   0.9607   0.4174     O
O      0.75493   0.4607   0.3326     O
O      0.75524   0.0101   0.2099     O
C       0.7585    0.027   0.1143     C
C       0.7589   0.4702    0.238     C
C       0.7606   0.9803   0.7098     C
C        0.764   0.5676   0.8201     C
H        0.765    0.984   0.7781     H
H       0.7713   0.5869   0.8823     H
C       0.8008    0.479   0.0801     C
C       0.8018   0.0617   0.9606     C
C       0.8065   0.5296   0.6731     C
C       0.8078     0.97   0.5539     C
C       0.8146   0.4778   0.1788     C
H      0.81468  0.42176  0.53288     H
C       0.8147    0.955    0.396     C
C       0.8154   0.4798   0.5233     C
C       0.8167   0.0407   0.0574     C
C       0.8203   0.9763   0.6505     C
C       0.8208   0.5479   0.7687     C
H       0.8238   0.9106   0.3638     H
H       0.8286   0.9922   0.3513     H
H       0.8383   0.0716   0.9173     H
H       0.8391   0.4788   0.0376     H
H      0.83926  0.49457  0.45092     H
O      0.85307   0.9594   0.4828     O
O      0.85341    0.513   0.6022     O
C       0.8878   0.4799   0.2168     C
C       0.8879   0.0337   0.0903     C
C       0.8902   0.9802   0.6929     C
C       0.8906   0.5437   0.8123     C
O       0.8971   0.9915   0.7801     O
O       0.8981   0.5529   0.8987     O
O      0.89824   0.4701   0.3028     O
O      0.89855   0.0217   0.1791     O
H       0.9106   0.8238   0.6362     H
H       0.9131   0.2713   0.6323     H
H      0.92176  0.68532  0.78288     H
H       0.9284   0.1617   0.5827     H
O      0.93175   0.4927   0.1542     O
O      0.93176    0.043   0.0294     O
C       0.9324    0.264   0.5701     C
C       0.9383   0.1982   0.5394     C
O      0.94229  0.96799   0.6398     O
O      0.94309  0.53656   0.7578     O
O       0.9471   0.3981   0.6487     O
C       0.9521   0.3208   0.5187     C
C        0.955   0.8147    0.604     C
C       0.9563   0.3906   0.5623     C
O        0.957  0.06824   0.4706     O
C       0.9593   0.1833   0.4426     C
O       0.9594  0.85307   0.5172     O
O       0.9607  0.74507   0.5826     O
O      0.96344  0.44309   0.5078     O
C       0.9663   0.1121   0.4097     C
O      0.96799  0.94229   0.3602     O
C         0.97   0.8078   0.4461     C
Zn     0.97007   0.5126  0.62155    Zn
O       0.9701  0.60176   0.5528     O
Zn     0.97014  0.97014      0.5    Zn
C       0.9702   0.7411    0.488     C
C       0.9704   0.3065   0.4231     C
C        0.973   0.2415   0.3857     C
C       0.9763   0.8203   0.3495     C
C       0.9778   0.6854   0.4288     C
O       0.9783  0.10145   0.3209     O
H       0.9788   0.6609   0.2876     H
C        0.979   0.6992   0.3301     C
C       0.9798   0.6846   0.7733     C
C       0.9799   0.6122   0.4668     C
C       0.9802   0.8902   0.3071     C
C       0.9803   0.7606   0.2902     C
H        0.984    0.765   0.2219     H
Zn     0.98631  0.01369     0.25    Zn
O        0.987  0.35341   0.3522     O
Zn      0.9874  0.47007  0.37155    Zn
O       0.9899  0.24476   0.2901     O
O       0.9915   0.8971   0.2199     O
H       0.9922   0.8286   0.6487     H
O       0.9927  0.56825   0.4042     O
H      0.99457  0.66074  0.70092     H
