data_I
_chemical_name_common  '/home/zhangsd/repos/MofS-CGCNN/ML/data/TSD/clean_cifs/PIBGAK_clean'
_cell_length_a 10.43850
_cell_length_b 27.18400
_cell_length_c  9.34820
_cell_angle_alpha 90.00000
_cell_angle_beta  90.00000
_cell_angle_gamma 90.00000
_space_group_name_H-M_alt      'P 1'


loop_
_space_group_symop_operation_xyz
  'x, y, z' 

loop_
_atom_site_label
_atom_site_fract_x
_atom_site_fract_y
_atom_site_fract_z
_atom_site_type_symbol
C       0.0003   0.0781   0.9244     C
C       0.0003   0.4219   0.5756     C
C        0.028   0.6303   0.3758     C
C        0.028   0.8697   0.1242     C
C       0.0415   0.2093    0.792     C
C       0.0415   0.2907    0.708     C
C       0.0719   0.1634    0.844     C
C       0.0719   0.3366    0.656     C
C       0.0792   0.7246   0.2768     C
C       0.0792   0.7754   0.2232     C
O       0.0875   0.5518   0.4548     O
O       0.0875   0.9482   0.0452     O
O       0.1132   0.0669   0.9336     O
O       0.1132   0.4331   0.5664     O
C        0.139     0.25     0.75     C
C        0.153   0.6456   0.3587     C
C        0.153   0.8544   0.1413     C
H       0.1569   0.1543   0.8572     H
H       0.1569   0.3457   0.6428     H
H       0.1582   0.2201   0.5491     H
H       0.1582   0.2799   0.9509     H
C        0.181   0.6928    0.308     C
C        0.181   0.8072    0.192     C
C        0.214   0.2353    0.618     C
C        0.214   0.2647    0.882     C
H       0.2196   0.6242   0.3812     H
H       0.2196   0.8758   0.1188     H
H         0.22   0.7125   0.8554     H
H         0.22   0.7875   0.6446     H
H       0.2346   0.2028   0.2047     H
H       0.2346   0.2972   0.2953     H
H       0.2475   0.7359   0.5761     H
H       0.2475   0.7641   0.9239     H
Eu        0.25      0.0  0.97403    Eu
Eu        0.25      0.5  0.52597    Eu
H       0.2525   0.2359   0.9239     H
H       0.2525   0.2641   0.5761     H
H       0.2654   0.7028   0.2953     H
H       0.2654   0.7972   0.2047     H
H         0.28   0.2125   0.6446     H
H         0.28   0.2875   0.8554     H
H       0.2804   0.1242   0.1188     H
H       0.2804   0.3758   0.3812     H
C        0.286   0.7353    0.882     C
C        0.286   0.7647    0.618     C
C        0.319   0.1928    0.192     C
C        0.319   0.3072    0.308     C
H       0.3418   0.7201   0.9509     H
H       0.3418   0.7799   0.5491     H
H       0.3431   0.6543   0.6428     H
H       0.3431   0.8457   0.8572     H
C        0.347   0.1456   0.1413     C
C        0.347   0.3544   0.3587     C
C        0.361     0.75     0.75     C
O       0.3868   0.5669   0.5664     O
O       0.3868   0.9331   0.9336     O
O       0.4125   0.0518   0.0452     O
O       0.4125   0.4482   0.4548     O
C       0.4208   0.2246   0.2232     C
C       0.4208   0.2754   0.2768     C
C       0.4281   0.6634    0.656     C
C       0.4281   0.8366    0.844     C
C       0.4585   0.7093    0.708     C
C       0.4585   0.7907    0.792     C
C        0.472   0.1303   0.1242     C
C        0.472   0.3697   0.3758     C
C       0.4997   0.5781   0.5756     C
C       0.4997   0.9219   0.9244     C
C       0.5003   0.0781   0.0756     C
C       0.5003   0.4219   0.4244     C
C        0.528   0.6303   0.6242     C
C        0.528   0.8697   0.8758     C
C       0.5415   0.2093    0.208     C
C       0.5415   0.2907    0.292     C
C       0.5719   0.1634    0.156     C
C       0.5719   0.3366    0.344     C
C       0.5792   0.7246   0.7232     C
C       0.5792   0.7754   0.7768     C
O       0.5875   0.5518   0.5452     O
O       0.5875   0.9482   0.9548     O
O       0.6132   0.0669   0.0664     O
O       0.6132   0.4331   0.4336     O
C        0.639     0.25     0.25     C
C        0.653   0.6456   0.6413     C
C        0.653   0.8544   0.8587     C
H       0.6569   0.1543   0.1428     H
H       0.6569   0.3457   0.3572     H
H       0.6582   0.2201   0.4509     H
H       0.6582   0.2799   0.0491     H
C        0.681   0.6928    0.692     C
C        0.681   0.8072    0.808     C
C        0.714   0.2353    0.382     C
C        0.714   0.2647    0.118     C
H       0.7196   0.6242   0.6188     H
H       0.7196   0.8758   0.8812     H
H         0.72   0.7125   0.1446     H
H         0.72   0.7875   0.3554     H
H       0.7346   0.2028   0.7953     H
H       0.7346   0.2972   0.7047     H
H       0.7475   0.7359   0.4239     H
H       0.7475   0.7641   0.0761     H
Eu        0.75      0.0  0.02597    Eu
Eu        0.75      0.5  0.47403    Eu
H       0.7525   0.2359   0.0761     H
H       0.7525   0.2641   0.4239     H
H       0.7654   0.7028   0.7047     H
H       0.7654   0.7972   0.7953     H
H         0.78   0.2125   0.3554     H
H         0.78   0.2875   0.1446     H
H       0.7804   0.1242   0.8812     H
H       0.7804   0.3758   0.6188     H
C        0.786   0.7353    0.118     C
C        0.786   0.7647    0.382     C
C        0.819   0.1928    0.808     C
C        0.819   0.3072    0.692     C
H       0.8418   0.7201   0.0491     H
H       0.8418   0.7799   0.4509     H
H       0.8431   0.6543   0.3572     H
H       0.8431   0.8457   0.1428     H
C        0.847   0.1456   0.8587     C
C        0.847   0.3544   0.6413     C
C        0.861     0.75     0.25     C
O       0.8868   0.5669   0.4336     O
O       0.8868   0.9331   0.0664     O
O       0.9125   0.0518   0.9548     O
O       0.9125   0.4482   0.5452     O
C       0.9208   0.2246   0.7768     C
C       0.9208   0.2754   0.7232     C
C       0.9281   0.6634    0.344     C
C       0.9281   0.8366    0.156     C
C       0.9585   0.7093    0.292     C
C       0.9585   0.7907    0.208     C
C        0.972   0.1303   0.8758     C
C        0.972   0.3697   0.6242     C
C       0.9997   0.5781   0.4244     C
C       0.9997   0.9219   0.0756     C
