data_I
_chemical_name_common  '/home/zhangsd/repos/MofS-CGCNN/ML/data/TSD/clean_cifs/PIDMEV01_clean'
_cell_length_a 14.81120
_cell_length_b 14.81120
_cell_length_c 16.55890
_cell_angle_alpha 102.82600
_cell_angle_beta  102.82600
_cell_angle_gamma 115.99400
_space_group_name_H-M_alt      'P 1'


loop_
_space_group_symop_operation_xyz
  'x, y, z' 

loop_
_atom_site_label
_atom_site_fract_x
_atom_site_fract_y
_atom_site_fract_z
_atom_site_type_symbol
H       0.0027   0.7937   0.4881     H
H       0.0048    0.955   0.1641     H
C       0.0335   0.1277   0.3611     C
H       0.0403   0.9081    0.651     H
N       0.0411   0.3003   0.3986     N
H        0.045   0.9952   0.3359     H
O      0.04554  0.81226   0.1606     O
O       0.0472   0.6422   0.0071     O
Zn     0.04722  0.43438  0.93619    Zn
C      0.05438  0.24702   0.8619     C
C      0.05521  0.74179   0.5823     C
H       0.0609   0.3051   0.2456     H
C      0.06226  0.79274   0.5199     C
C      0.06449  0.38471   0.3639     C
C      0.06853  0.36927   0.2789     C
C      0.06978  0.08482   0.8529     C
H       0.0773   0.4925   0.4711     H
C      0.07874  0.48146    0.414     C
C      0.08397  0.44903   0.2443     C
C      0.08482  0.06978   0.3529     C
H       0.0858    0.438   0.1873     H
C       0.0919   0.2399   0.3876     C
H       0.0919   0.9597    0.849     H
O      0.09446  0.60994   0.1729     O
C      0.09536  0.56264   0.3791     C
C      0.09691  0.54609   0.2938     C
O      0.10258  0.34822     0.88     O
H       0.1053   0.6277    0.413     H
C       0.1068   0.6496   0.9625     C
C      0.11023  0.63157   0.2544     C
O       0.1202    0.575   0.9262     O
C      0.12064  0.19496   0.8696     C
H       0.1229   0.8363   0.0339     H
C       0.1277   0.0335   0.8611     C
O      0.13805  0.72235   0.3065     O
H       0.1381   0.7007   0.6657     H
C      0.14285  0.73615   0.6256     C
C       0.1585   0.8415   0.5061     C
C       0.1585   0.8415   0.9939     C
C        0.162   0.7528   0.9489     C
H       0.1637   0.8771   0.4661     H
Zn      0.1707   0.8293     0.25    Zn
O      0.18774  0.95446   0.3394     O
C      0.19496  0.12064   0.3696     C
C      0.20281  0.29099   0.4035     C
H       0.2063   0.9973   0.0119     H
C      0.20726  0.93774   0.9801     C
C       0.2169   0.7623   0.8904     C
H       0.2222   0.7044   0.8617     H
C      0.23163  0.25297   0.8942     C
C       0.2377   0.7831   0.6096     C
C       0.2399   0.0919   0.8876     C
H       0.2429   0.3655   0.4204     H
C      0.24702  0.05438   0.3619     C
C       0.2472    0.838   0.5511     C
C      0.25297  0.23163   0.3942     C
C      0.25821  0.94479   0.9177     C
C      0.26385  0.85715   0.8744     C
H       0.2666   0.3264   0.9046     H
O      0.27765  0.86195   0.1935     O
C      0.29099  0.20281   0.9035     C
H       0.2956   0.7778   0.6383     H
H       0.2993   0.8619   0.8343     H
N       0.3003   0.0411   0.8986     N
H       0.3051   0.0609   0.7456     H
H       0.3264   0.2666   0.4046     H
O      0.34822  0.10258     0.38     O
C       0.3504   0.8932   0.5375     C
O       0.3578   0.9528   0.4929     O
H       0.3655   0.2429   0.9204     H
C      0.36843  0.88977   0.2456     C
C      0.36927  0.06853   0.7789     C
H       0.3723   0.8947    0.087     H
C      0.38471  0.06449   0.8639     C
O      0.39006  0.90554   0.3271     O
O        0.425   0.8798   0.5738     O
Zn     0.43438  0.04722  0.43619    Zn
C      0.43736  0.90464   0.1209     C
H        0.438   0.0858   0.6873     H
C      0.44903  0.08397   0.7443     C
C      0.45391  0.90309   0.2062     C
C      0.48146  0.07874    0.914     C
H       0.4925   0.0773   0.9711     H
H       0.5075   0.9227   0.0289     H
C      0.51854  0.92126    0.086     C
C      0.54609  0.09691   0.7938     C
C      0.55097  0.91603   0.2557     C
H        0.562   0.9142   0.3127     H
C      0.56264  0.09536   0.8791     C
Zn     0.56562  0.95278  0.56381    Zn
O        0.575   0.1202   0.4262     O
O      0.60994  0.09446   0.6729     O
C      0.61529  0.93551   0.1361     C
H       0.6277   0.1053    0.913     H
C      0.63073  0.93147   0.2211     C
C      0.63157  0.11023   0.7544     C
H       0.6345   0.7571   0.0796     H
O       0.6422   0.0472   0.5071     O
C       0.6496   0.1068   0.4625     C
O      0.65178  0.89742     0.62     O
H       0.6736   0.7334   0.5954     H
H       0.6949   0.9391   0.2544     H
N       0.6997   0.9589   0.1014     N
H       0.7007   0.1381   0.1657     H
H       0.7044   0.2222   0.3617     H
C      0.70901  0.79719   0.0965     C
O      0.72235  0.13805   0.8065     O
H       0.7334   0.6736   0.0954     H
C      0.73615  0.14285   0.1256     C
C      0.74179  0.05521   0.0823     C
C      0.74703  0.76837   0.6058     C
C       0.7528    0.162   0.4489     C
C      0.75298  0.94562   0.6381     C
H       0.7571   0.6345   0.5796     H
C       0.7601   0.9081   0.1124     C
C       0.7623   0.2169   0.3904     C
C      0.76837  0.74703   0.1058     C
H       0.7778   0.2956   0.1383     H
C       0.7831   0.2377   0.1096     C
C      0.79274  0.06226   0.0199     C
H       0.7937   0.0027   0.9881     H
C      0.79719  0.70901   0.5965     C
C      0.80504  0.87936   0.6304     C
O      0.81226  0.04554   0.6606     O
Zn      0.8293   0.1707     0.75    Zn
H       0.8363   0.1229   0.5339     H
C        0.838   0.2472   0.0511     C
C       0.8415   0.1585   0.0061     C
C       0.8415   0.1585   0.4939     C
C      0.85715  0.26385   0.3744     C
H       0.8619   0.2993   0.3343     H
O      0.86195  0.27765   0.6935     O
C       0.8723   0.9665   0.1389     C
H       0.8771   0.1637   0.9661     H
C      0.87936  0.80504   0.1304     C
O       0.8798    0.425   0.0738     O
C      0.88977  0.36843   0.7456     C
C       0.8932   0.3504   0.0375     C
H       0.8947   0.3723    0.587     H
O      0.89742  0.65178     0.12     O
C      0.90309  0.45391   0.7062     C
C      0.90464  0.43736   0.6209     C
O      0.90554  0.39006   0.8271     O
H       0.9081   0.0403    0.151     H
C       0.9081   0.7601   0.6124     C
H       0.9142    0.562   0.8127     H
C      0.91518  0.93022   0.6471     C
C      0.91603  0.55097   0.7557     C
C      0.92126  0.51854    0.586     C
H       0.9227   0.5075   0.5289     H
C      0.93022  0.91518   0.1471     C
C      0.93147  0.63073   0.7211     C
C      0.93551  0.61529   0.6361     C
C      0.93774  0.20726   0.4801     C
H       0.9391   0.6949   0.7544     H
C      0.94479  0.25821   0.4177     C
C      0.94562  0.75298   0.1381     C
Zn     0.95278  0.56562  0.06381    Zn
O       0.9528   0.3578   0.9929     O
O      0.95446  0.18774   0.8394     O
H        0.955   0.0048   0.6641     H
N       0.9589   0.6997   0.6014     N
H       0.9597   0.0919    0.349     H
C       0.9665   0.8723   0.6389     C
H       0.9952    0.045   0.8359     H
H       0.9973   0.2063   0.5119     H
