data_I
_chemical_name_common  '/home/zhangsd/repos/MofS-CGCNN/ML/data/TSD/clean_cifs/PODKOK_clean'
_cell_length_a 34.68530
_cell_length_b 34.68530
_cell_length_c 35.26960
_cell_angle_alpha 119.45300
_cell_angle_beta  119.45300
_cell_angle_gamma 90.00000
_space_group_name_H-M_alt      'P 1'


loop_
_space_group_symop_operation_xyz
  'x, y, z' 

loop_
_atom_site_label
_atom_site_fract_x
_atom_site_fract_y
_atom_site_fract_z
_atom_site_type_symbol
N        0.001   0.3449   0.8576     N
O      0.00315  0.83566   0.7281     O
C       0.0032   0.3165    0.817     C
O      0.00404  0.73651   0.9452     O
C      0.00405  0.30488  0.06984     C
C       0.0069  0.82045  0.69036     C
H       0.0084   0.7293   0.2706     H
H       0.0088   0.7546   0.2176     H
C       0.0089   0.7263   0.1924     C
N        0.012   0.6779   0.1294     N
C      0.01251  0.15505  0.33906     C
C       0.0153   0.2994   0.7496     C
H       0.0156   0.1005    0.282     H
O      0.01751  0.06363  0.74292     O
H       0.0178   0.2048   0.4064     H
O      0.01937  0.78709  0.66944     O
C      0.02023  0.11313   0.3152     C
N      0.02052   0.7215  0.16104     N
C      0.02139  0.17524   0.3889     C
O      0.02161  0.67436  0.94644     O
H       0.0217   0.2863   0.6932     H
O      0.02176  0.28334  0.33438     O
O      0.02631  0.06067  0.80938     O
O      0.02888  0.23468  0.26812     O
H         0.03   0.2816    0.557     H
H       0.0301     0.81   0.2128     H
Cu     0.03091  0.81396  0.77438    Cu
C       0.0314   0.3289   0.7972     C
C       0.0326   0.3098   0.7286     C
O      0.03344  0.02888  0.26812     O
C      0.03384   0.7555  0.15548     C
H       0.0339   0.2312   0.4878     H
C      0.03475  0.08914   0.3394     C
C      0.03553  0.15113  0.41206     C
C      0.03628  0.80145  0.18676     C
C      0.03942   0.0419  0.31054     C
Cu     0.03958  0.96909  0.22562    Cu
C      0.04078  0.06631  0.78576     C
C       0.0419  0.27112  0.31054     C
N      0.04224  0.16885  0.46248     N
Cu     0.04281  0.75184  0.70104    Cu
C      0.04306  0.20834  0.49472     C
C      0.04322  0.10747   0.3871     C
H       0.0439    0.346    0.635     H
H       0.0441   0.4216   0.7538     H
C      0.04576  0.74336  0.11832     C
O      0.04623  0.90751  0.19474     O
H       0.0473    0.713   0.0996     H
C      0.04756  0.83414     0.18     C
O      0.04814  0.89418  0.25152     O
C       0.0486   0.2841   0.5894     C
C      0.05003  0.88422  0.21304     C
Cu      0.0508  0.95719  0.29896    Cu
O      0.05104  0.02176  0.33438     O
H       0.0523   0.3866   0.0996     H
H       0.0541   0.0918   0.4042     H
C       0.0548  0.82134  0.14064     C
C      0.05489  0.77618  0.11012     C
C      0.05523  0.33394  0.11012     C
C       0.0559   0.3215   0.6354     C
H       0.0568   0.4949   0.7744     H
N      0.05753  0.14903  0.48706     N
O      0.05884  0.79131   0.0548     O
C      0.05887  0.21257  0.53974     C
H       0.0598   0.8438   0.1342     H
O      0.06067  0.78307  0.80938     O
C        0.063   0.3703   0.8258     C
O      0.06363  0.72541  0.74292     O
N      0.06418  0.17378  0.53176     N
C       0.0646   0.3509   0.7524     C
C      0.06579  0.76496  0.06984     C
C      0.06631  0.74498  0.78576     C
Cu     0.06661  0.78327     -0.0    Cu
C       0.0678   0.2522   0.5912     C
C       0.0679    0.434    0.753     C
C      0.07256  0.37496  0.11832     C
H       0.0737   0.3921   0.8614     H
C        0.074   0.4766   0.7632     C
H       0.0744   0.2904   0.1342     H
O      0.07517  0.72792  0.05356     O
H       0.0762   0.7658    0.875     H
O      0.07784  0.76405  0.94508     O
C       0.0796    0.324   0.6808     C
C       0.0806   0.3817   0.8026     C
C      0.08217  0.73722  0.85954     C
C      0.08252  0.72097  0.81488     C
H       0.0842   0.5752   0.8126     H
C      0.08584   0.3193  0.14064     C
C      0.08629  0.72664    0.928     C
C       0.0869   0.2518   0.6334     C
Cu     0.08862  0.70979      0.0    Cu
C      0.08914  0.30465   0.3394     C
H       0.0893   0.6686   0.7612     H
C      0.09047  0.71177  0.88084     C
C      0.09065  0.68036  0.79268     C
H       0.0918   0.3501   0.4042     H
N       0.0922  0.36407    0.735     N
O      0.09249  0.85149  0.80526     O
H       0.0926   0.0893   0.7612     H
C       0.0933   0.4076   0.7412     C
C      0.09391  0.08252  0.81488     C
H       0.0952   0.2253   0.6322     H
C       0.0952   0.2892   0.6794     C
O       0.0956  0.70155   0.9448     O
C      0.09769  0.57639  0.79518     C
C      0.10005  0.67122   0.8603     C
H       0.1005   0.2664    0.282     H
C      0.10126   0.6551  0.81632     C
H       0.1035   0.4109   0.8226     H
C       0.1036   0.4938   0.7586     C
H       0.1058   0.6541   0.8758     H
O      0.10582  0.79662  0.74848     O
N      0.10623  0.60912  0.79126     N
C      0.10747  0.34388   0.3871     C
O      0.10756  0.99685   0.2719     O
H       0.1092   0.0762    0.875     H
C      0.11232  0.09065  0.79268     C
C       0.1124   0.5426   0.7684     C
H       0.1125   0.2899   0.7106     H
C      0.11313  0.29497   0.3152     C
C      0.11578  0.83699  0.78696     C
N       0.1174   0.4515   0.1294     N
O      0.11765  0.98063  0.33056     O
C      0.12164  0.39998  0.15548     C
C      0.12232  0.08217  0.85954     C
C       0.1245   0.4248   0.7386     C
N       0.1288  0.59961   0.7686     N
C      0.13009   0.9931  0.30964     C
C       0.1317    0.471   0.7496     C
C      0.13244  0.34586     0.18     C
N       0.1325   0.5583   0.7564     N
O      0.13276  0.81897  0.05492     O
N      0.14052  0.43954  0.16104     N
H       0.1427   0.4067   0.7294     H
N       0.1434   0.4873   0.1424     N
O      0.14851  0.28723  0.19474     O
N      0.14903  0.42953  0.48706     N
C      0.15048  0.38531  0.18676     C
O       0.1508  0.75675   0.0552     O
C      0.15113  0.37653  0.41206     C
C      0.15505  0.32655  0.33906     C
H       0.1561   0.4846   0.7504     H
H       0.1562   0.9256   0.8658     H
C      0.15829  0.79864    0.072     C
C      0.16122  0.10126  0.81632     C
C      0.16301  0.32882  0.21304     C
O      0.16434  0.27505   0.2719     O
C      0.16586  0.86756     0.82     C
N      0.16885  0.42024  0.46248     N
N      0.16899   0.1288   0.7686     N
C      0.16907  0.09047  0.88084     C
N      0.17378  0.46758  0.53176     N
C      0.17524  0.36751   0.3889     C
C      0.17866  0.91416  0.85936     C
C      0.17955  0.31654  0.30964     C
O      0.18103  0.07784  0.94508     O
H       0.1815   0.0156    0.282     H
N      0.18214  0.10623  0.79126     N
H       0.1827   0.4028   0.2128     H
C       0.1835   0.4661   0.1924     C
C      0.18401  0.01251  0.33906     C
Cu     0.18604  0.25653  0.22562    Cu
C       0.1862   0.4995    0.183     C
C      0.18908  0.10005   0.8603     C
H         0.19   0.8173   0.7872     H
N       0.1981   0.1325   0.7564     N
C      0.19855  0.84952  0.81324     C
H       0.2012   0.8908    0.125     H
C      0.20136  0.08629    0.928     C
H       0.2016   0.0178   0.4064     H
C      0.20207  0.02023   0.3152     C
O      0.20338  0.35734  0.25152     O
H       0.2048   0.3886   0.4064     H
C      0.20834  0.45166  0.49472     C
O      0.20869  0.00404   0.9452     O
H       0.2088    0.463   0.2176     H
C      0.20963  0.83093  0.11916     C
H       0.2123   0.5307   0.1386     H
C      0.21257  0.48087  0.53974     C
O      0.21291  0.34993  0.33056     O
C      0.21366  0.02139   0.3889     C
Cu     0.21673  0.06661      0.0    Cu
O      0.21693  0.25129  0.19062     O
C      0.21879  0.09769  0.79518     C
H       0.2217   0.1058   0.8758     H
C      0.22263  0.87768  0.14046     C
C      0.22382  0.94477  0.88988     C
H       0.2253    0.537   0.6322     H
C       0.2258   0.1124   0.7684     C
H         0.23   0.7783   0.1242     H
H       0.2312   0.4539   0.4878     H
H       0.2342   0.2012    0.125     H
C       0.2342   0.5317   0.2028     C
O      0.23468  0.23924  0.26812     O
C      0.23504  0.99595  0.93016     C
O      0.23595  0.13276  0.05492     O
C       0.2372   0.5445   0.1742     C
H       0.2374   0.0842   0.8126     H
O      0.23924  0.03344  0.26812     O
C      0.23975  0.81092   0.1397     C
O      0.24325   0.0956   0.9448     O
C       0.2445  0.87836  0.84452     C
H       0.2454   0.7912   0.7824     H
Cu     0.24816  0.34177  0.29896    Cu
C      0.25026  0.03475   0.3394     C
O      0.25129  0.97369  0.19062     O
C       0.2518   0.5465   0.6334     C
C       0.2522   0.5234   0.5912     C
C      0.25502  0.28055  0.21424     C
Cu     0.25653  0.03958  0.22562    Cu
H       0.2566   0.0339   0.4878     H
C      0.25664  0.92744  0.88168     C
C      0.26093  0.03553  0.41206     C
H       0.2622   0.5413   0.2706     H
C      0.26278  0.22263  0.14046     C
O      0.26349  0.05884   0.0548     O
C       0.2648   0.1036   0.7586     C
C       0.2657   0.5498   0.2504     C
H       0.2658   0.1561   0.7504     H
H       0.2664   0.1815    0.282     H
C      0.26764  0.90609  0.18512     C
C      0.26864  0.03942  0.31054     C
H       0.2707   0.7378   0.7294     H
C      0.27112  0.26864  0.31054     C
H       0.2716   0.7626   0.1874     H
O      0.27208  0.02161  0.94644     O
C      0.27336  0.15829    0.072     C
C       0.2737   0.8165   0.8076     C
O      0.27459  0.32071  0.25708     O
O      0.27505  0.10756   0.2719     O
H       0.2754     0.03    0.557     H
C        0.278   0.5791   0.1974     C
N       0.2785  0.85948  0.83896     N
C       0.2786   0.1317   0.7496     C
C      0.27903  0.26764  0.18512     C
H       0.2795   0.0568   0.7744     H
C      0.27963  0.04322   0.3871     C
C      0.28055  0.95922  0.21424     C
H       0.2809   0.5883   0.1774     H
H       0.2816    0.527    0.557     H
H       0.2824   0.7205   0.2256     H
O      0.28334  0.31262  0.33438     O
C       0.2841   0.5408   0.5894     C
C      0.28494  0.83878  0.18368     C
H       0.2863   0.6715   0.6932     H
C      0.28638  0.04306  0.49472     C
C       0.2866    0.074   0.7632     C
H        0.287   0.9477   0.9004     H
O      0.28723  0.04623  0.19474     O
C      0.28823  0.20963  0.11916     C
H        0.289   0.0439    0.635     H
C       0.2892   0.5842   0.6794     C
H       0.2899   0.5981   0.7106     H
Cu     0.29021  0.08862     -0.0    Cu
H       0.2903   0.6678   0.2462     H
H       0.2904   0.0598   0.1342     H
N      0.29363  0.04224  0.46248     N
C      0.29497  0.20207   0.3152     C
C      0.29797  0.88768  0.20732     C
O      0.29845   0.1508   0.0552     O
C       0.2994   0.7343   0.7496     C
C      0.30251  0.78121  0.20482     C
C        0.304   0.5812   0.2714     C
C      0.30465  0.25026   0.3394     C
C      0.30488  0.06579  0.06984     C
C       0.3053   0.0486   0.5894     C
C       0.3098    0.696   0.7286     C
C       0.3108   0.7134   0.2368     C
C       0.3122   0.5985   0.2476     C
H       0.3124   0.0541   0.4042     H
O      0.31262  0.05104  0.33438     O
C       0.3138   0.1245   0.7386     C
C       0.3139   0.0559   0.6354     C
C       0.3149    0.681    0.247     C
N      0.31497  0.81786  0.20874     N
C       0.3165   0.8138    0.817     C
C      0.31654  0.13009  0.30964     C
C        0.319   0.0679    0.753     C
C       0.3193   0.0548  0.14064     C
C      0.31964  0.29797  0.20732     C
O      0.32071  0.98249  0.25708     O
C       0.3215   0.5795   0.6354     C
N       0.3221   0.8826   0.8706     N
H       0.3227   0.1427   0.7294     H
C        0.324   0.6012   0.6808     C
O      0.32564  0.07517  0.05356     O
C      0.32655  0.18401  0.33906     C
C      0.32717  0.05887  0.53974     C
H       0.3281   0.9074   0.2388     H
H       0.3285   0.5931   0.3068     H
C      0.32878  0.23975   0.1397     C
C      0.32882  0.05003  0.21304     C
C       0.3289   0.7658   0.7972     C
H       0.3314   0.3281   0.2388     H
H       0.3322   0.0441   0.7538     H
C       0.3336   0.0933   0.7412     C
C      0.33394  0.05489  0.11012     C
N      0.33803  0.05753  0.48706     N
C        0.339   0.0678   0.5912     C
Cu     0.34177   0.0508  0.29896    Cu
C      0.34388  0.27963   0.3871     C
C        0.344   0.7742   0.2316     C
C       0.3449  0.28494  0.18368     C
N       0.3449   0.8566   0.8576     N
C        0.345   0.7352   0.2414     C
C      0.34586  0.04756     0.18     C
H       0.3459     0.23   0.1242     H
H        0.346   0.5911    0.635     H
O      0.34993  0.11765  0.33056     O
H       0.3501   0.3124   0.4042     H
C       0.3509   0.6878   0.7524     C
C       0.3521   0.6664   0.2588     C
C       0.3568   0.0796   0.6808     C
N       0.3572  0.62907    0.265     N
O      0.35734  0.04814  0.25152     O
N      0.35798  0.06418  0.53176     N
N       0.3602  0.83101   0.2314     N
N      0.36407   0.6428    0.735     N
C      0.36751  0.21366   0.3889     C
C       0.3703   0.7628   0.8258     C
N      0.37093   0.0922    0.735     N
C      0.37496  0.04576  0.11832     C
N       0.3761   0.8019   0.2436     N
C      0.37653  0.26093  0.41206     C
C       0.3816   0.0869   0.6334     C
C       0.3817    0.722   0.8026     C
C       0.3821   0.7214   0.2504     C
C      0.38531  0.03628  0.18676     C
C       0.3859   0.6862   0.2614     C
H       0.3866   0.0473   0.0996     H
H       0.3886   0.2016   0.4064     H
C       0.3902   0.0952   0.6794     C
N      0.39088  0.31497  0.20874     N
H       0.3921   0.7877   0.8614     H
C       0.3988   0.6432   0.3192     C
C      0.39998  0.03384  0.15548     C
N      0.40039   0.3602   0.2314     N
C       0.4015   0.0646   0.7524     C
H       0.4019   0.5793   0.2894     H
H       0.4028   0.0301   0.2128     H
H       0.4057   0.7342   0.2496     H
H       0.4067   0.5867   0.7294     H
H       0.4069   0.0217   0.6932     H
H       0.4069   0.0952   0.6322     H
C       0.4076   0.6479   0.7412     C
H       0.4089    0.711    0.365     H
H       0.4109   0.7191   0.8226     H
H       0.4117   0.1035   0.8226     H
H       0.4133   0.6773   0.2706     H
C       0.4158   0.6098   0.3206     C
C       0.4188   0.0326   0.7286     C
N      0.42024  0.29363  0.46248     N
C       0.4205   0.6861   0.3646     C
H       0.4207   0.1125   0.7106     H
C       0.4209   0.0806   0.8026     C
H       0.4216   0.7097   0.7538     H
C      0.42361  0.30251  0.20482     C
H       0.4248   0.2716   0.1874     H
C       0.4248   0.6141   0.7386     C
N      0.42953  0.33803  0.48706     N
C        0.434   0.6851    0.753     C
N      0.43954  0.02052  0.16104     N
N       0.4417   0.3761   0.2436     N
C       0.4502   0.0153   0.7496     C
N       0.4515    0.012   0.1294     N
C      0.45166  0.28638  0.49472     C
C       0.4535   0.6184   0.3666     C
H       0.4539   0.2566   0.4878     H
C       0.4555    0.063   0.8258     C
C       0.4574    0.344   0.2316     C
H       0.4587   0.9916   0.7294     H
C       0.4592   0.6947   0.4106     C
H        0.463   0.0088   0.2176     H
H        0.463   0.5931   0.3678     H
C       0.4661   0.0089   0.1924     C
N      0.46758  0.35798  0.53176     N
C       0.4683   0.0314   0.7972     C
H       0.4693   0.0737   0.8614     H
C        0.471   0.6179   0.7496     C
H        0.473   0.7246    0.443     H
C       0.4766    0.661   0.4088     C
C       0.4766   0.6892   0.7632     C
C      0.48087  0.32717  0.53974     C
H       0.4846   0.5943   0.7504     H
N       0.4873    0.999   0.1424     N
C       0.4938    0.655   0.7586     C
H       0.4949   0.7176   0.7744     H
C       0.4995   0.9968    0.183     C
C       0.5005   0.0032    0.817     C
H       0.5051   0.2824   0.2256     H
C       0.5062    0.345   0.2414     C
N       0.5127    0.001   0.8576     N
H       0.5154   0.4057   0.2496     H
C      0.51913  0.67283  0.46026     C
C       0.5234   0.3108   0.2368     C
C       0.5234    0.339   0.5912     C
H        0.527   0.2754    0.557     H
C        0.529   0.3821   0.2504     C
H       0.5307   0.9263   0.1386     H
C       0.5317   0.9686   0.2028     C
N      0.53242  0.64202  0.46824     N
C       0.5339   0.9911   0.8076     C
H        0.537   0.4069   0.6322     H
H        0.537   0.9912   0.7824     H
C       0.5408   0.3053   0.5894     C
H       0.5413   0.0084   0.2706     H
C       0.5426    0.656   0.7684     C
C       0.5445    0.937   0.1742     C
H       0.5461   0.7434   0.5122     H
C       0.5465   0.3816   0.6334     C
C      0.54834  0.71362  0.50528     C
N       0.5485    0.988   0.8706     N
C       0.5498   0.9847   0.2504     C
N       0.5583   0.6239   0.7564     N
N      0.56046  0.97948  0.83896     N
C        0.566   0.3149    0.247     C
N      0.57047  0.66197  0.51294     N
C       0.5752   0.3859   0.2614     C
H       0.5752   0.7284   0.8126     H
C      0.57639  0.69749  0.79518     C
H       0.5784   0.2903   0.2462     H
C       0.5791   0.9194   0.1974     C
H       0.5793   0.8875   0.2894     H
C       0.5795   0.3139   0.6354     C
N      0.57976  0.70637  0.53752     N
C       0.5812   0.9674   0.2714     C
C       0.5842   0.3902   0.6794     C
H       0.5867   0.3227   0.7294     H
H       0.5883   0.8965   0.1774     H
H       0.5891   0.2809   0.1774     H
H       0.5911    0.289    0.635     H
C       0.5924   0.3521   0.2588     C
H       0.5931   0.9048   0.3678     H
H       0.5931   0.9783   0.3068     H
H       0.5933   0.4133   0.2706     H
H       0.5943   0.2658   0.7504     H
H       0.5972   0.9699   0.7872     H
H       0.5981   0.4207   0.7106     H
C       0.5985   0.9354   0.2476     C
N      0.59961   0.6398   0.7686     N
C      0.60002  0.96616  0.84452     C
C       0.6012   0.3568   0.6808     C
H       0.6079   0.2123   0.1386     H
N      0.60912  0.68503  0.79126     N
C       0.6098   0.9048   0.3206     C
H       0.6114   0.7984   0.5936     H
H       0.6134   0.9527   0.9004     H
C       0.6141   0.3138   0.7386     C
C      0.61469  0.96372  0.81324     C
C       0.6179   0.2786   0.7496     C
C       0.6183    0.278   0.1974     C
C       0.6184   0.9131   0.3666     C
C      0.62347  0.73907  0.58794     C
N       0.6239   0.1981   0.7564     N
C      0.62504  0.95424  0.88168     C
N      0.62907   0.9078    0.265     N
C       0.6297   0.2372   0.1742     C
C      0.63249  0.78634   0.6111     C
N      0.63593   0.3572    0.265     N
N       0.6398  0.16899   0.7686     N
N      0.64202  0.93582  0.46824     N
O      0.64266  0.95186  0.74848     O
N       0.6428  0.37093    0.735     N
C       0.6432   0.9204   0.3192     C
C       0.6479   0.3336   0.7412     C
C       0.6491   0.3122   0.2476     C
H       0.6499   0.6876   0.5958     H
O      0.65007  0.88235  0.66944     O
H        0.654   0.4089    0.365     H
H       0.6541     0.77   0.8758     H
C      0.65414  0.95244     0.82     C
C        0.655   0.2648   0.7586     C
N       0.6551   0.1434   0.1424     N
C       0.6551  0.71506  0.81632     C
C        0.656   0.2258   0.7684     C
C      0.65612  0.72037   0.6129     C
Cu     0.65823   0.9492  0.70104    Cu
C        0.661   0.9322   0.4088     C
N      0.66197  0.94247  0.51294     N
C      0.66606  0.94511  0.88988     C
C       0.6664   0.9067   0.2588     C
H       0.6678   0.9559   0.2462     H
H       0.6686   0.6719   0.7612     H
C       0.6711   0.2342   0.2028     C
C      0.67118  0.94997  0.78696     C
C      0.67122  0.76025   0.8603     C
H       0.6715   0.4069   0.6932     H
H       0.6719   0.0926   0.7612     H
C      0.67283  0.94113  0.46026     C
C      0.67345  0.81599  0.66094     C
O      0.67436  0.92483  0.94644     O
C        0.676   0.3988   0.3192     C
H       0.6773   0.8573   0.2706     H
N       0.6779   0.1174   0.1294     N
C       0.6785   0.4205   0.3646     C
O      0.67929  0.01751  0.74292     O
C      0.68036  0.70203  0.79268     C
C       0.6807   0.9452  0.85936     C
C        0.681   0.9321    0.247     C
C      0.68346  0.86991  0.69036     C
C       0.6835   0.1862    0.183     C
N      0.68503  0.18214  0.79126     N
C       0.6851    0.319    0.753     C
C       0.6861   0.9441   0.3646     C
C       0.6862   0.8755   0.2614     C
O      0.68738  0.94896  0.66562     O
H       0.6876   0.9459   0.5958     H
C       0.6878   0.4015   0.7524     C
C       0.6892   0.2866   0.7632     C
C       0.6902    0.304   0.2714     C
C       0.6947   0.9514   0.4106     C
C      0.69512  0.93421  0.93016     C
C      0.69535  0.74974   0.6606     C
C        0.696   0.4188   0.7286     C
C      0.69749  0.21879  0.79518     C
C       0.7006   0.2657   0.2504     C
O      0.70155   0.8492   0.9448     O
C      0.70203  0.11232  0.79268     C
C      0.70503  0.79793   0.6848     C
N      0.70637  0.95776  0.53752     N
H       0.7096   0.9402   0.8658     H
H       0.7097   0.3322   0.7538     H
Cu     0.70979  0.91138      0.0    Cu
H       0.7101   0.4019   0.2894     H
C       0.7108   0.4158   0.3206     C
H        0.711   0.9561    0.365     H
C      0.71177  0.79037  0.88084     C
O      0.71277  0.95377  0.80526     O
H        0.713   0.0523   0.0996     H
C       0.7134    0.926   0.2368     C
C      0.71362  0.95694  0.50528     C
H       0.7137   0.3285   0.3068     H
C      0.71506  0.16122  0.81632     C
C       0.7159   0.4592   0.4106     C
O      0.71666  0.68738  0.66562     O
H       0.7176   0.2795   0.7744     H
H       0.7184    0.473    0.443     H
H       0.7191   0.4117   0.8226     H
C      0.71945  0.04078  0.78576     C
C      0.72037  0.95678   0.6129     C
H       0.7205   0.9432   0.2256     H
C      0.72097  0.73236  0.81488     C
C       0.7214   0.8683   0.2504     C
N       0.7215  0.14052  0.16104     N
C        0.722   0.4209   0.8026     C
H       0.7246     0.97    0.443     H
O      0.72495  0.89244   0.7281     O
O      0.72541  0.67929  0.74292     O
C       0.7263   0.1835   0.1924     C
C      0.72664  0.84171    0.928     C
O      0.72792  0.97839  0.05356     O
H       0.7284   0.2374   0.8126     H
C      0.72888  0.73136  0.68946     C
H       0.7293   0.2622   0.2706     H
C      0.73136  0.96058  0.68946     C
C      0.73236  0.09391  0.81488     C
H       0.7336   0.8185    0.718     H
H       0.7342   0.8439   0.2496     H
C       0.7343   0.4502   0.7496     C
C       0.7352   0.8964   0.2414     C
O      0.73651  0.94116   0.9452     O
C      0.73722  0.77737  0.85954     C
H       0.7378   0.4587   0.7294     H
C      0.73907  0.96447  0.58794     C
C      0.74336  0.07256  0.11832     C
H       0.7434   0.9661   0.5122     H
Cu     0.74347  0.96042  0.77438    Cu
C      0.74498  0.71945  0.78576     C
C       0.7478   0.4766   0.4088     C
C       0.7482   0.4535   0.3666     C
O      0.74871  0.02631  0.80938     O
C      0.74974  0.96525   0.6606     C
Cu     0.75184  0.65823  0.70104    Cu
H       0.7546   0.2088   0.2176     H
C       0.7555  0.12164  0.15548     C
O      0.75675   0.9044   0.0552     O
C      0.76025  0.18908   0.8603     C
O      0.76076  0.96656  0.73188     O
H       0.7626   0.9158   0.1874     H
C       0.7628   0.4555   0.8258     C
O      0.76405  0.86724  0.94508     O
C      0.76496  0.00405  0.06984     C
O      0.76532  0.76076  0.73188     O
C       0.7658   0.4683   0.7972     C
H       0.7658   0.7988    0.875     H
H       0.7688   0.5461   0.5122     H
H         0.77   0.2217   0.8758     H
C       0.7742   0.8876   0.2316     C
H       0.7747    0.463   0.3678     H
C      0.77618  0.05523  0.11012     C
C      0.77737  0.12232  0.85954     C
H       0.7783   0.8942   0.1242     H
C      0.78121  0.90231  0.20482     C
O      0.78307  0.74871  0.80938     O
Cu     0.78327  0.93339      0.0    Cu
C      0.78634  0.97861   0.6111     C
O      0.78709  0.65007  0.66944     O
C      0.78743  0.51913  0.46026     C
H       0.7877   0.4693   0.8614     H
C      0.79037  0.16907  0.88084     C
H       0.7912    0.537   0.7824     H
O      0.79131  0.99596   0.0548     O
C      0.79166  0.54834  0.50528     C
H       0.7952   0.6114   0.5936     H
O      0.79662  0.64266  0.74848     O
C      0.79793  0.97977   0.6848     C
H       0.7984   0.9822   0.5936     H
C      0.79864  0.91371    0.072     C
H       0.7988   0.1092    0.875     H
C      0.80145  0.15048  0.18676     C
N       0.8019   0.8675   0.2436     N
H         0.81   0.1827   0.2128     H
C      0.81092  0.89995   0.1397     C
C       0.8138   0.5005    0.817     C
Cu     0.81396  0.74347  0.77438    Cu
C      0.81599  0.98749  0.66094     C
C       0.8165   0.5339   0.8076     C
H       0.8173   0.5972   0.7872     H
N      0.81786  0.89377  0.20874     N
H       0.8185   0.9844    0.718     H
O      0.81897  0.92216  0.05492     O
C      0.82045  0.68346  0.69036     C
C      0.82134  0.08584  0.14064     C
C      0.82476  0.63249   0.6111     C
N      0.82622  0.53242  0.46824     N
C      0.83093  0.90953  0.11916     C
N      0.83101   0.8712   0.2314     N
N      0.83115  0.57976  0.53752     N
C      0.83414  0.13244     0.18     C
O      0.83566  0.72495   0.7281     O
C      0.83699  0.67118  0.78696     C
C      0.83878  0.89874  0.18368     C
C      0.84171  0.20136    0.928     C
H       0.8438   0.0744   0.1342     H
H       0.8439   0.5154   0.2496     H
C      0.84495  0.67345  0.66094     C
C      0.84887  0.62347  0.58794     C
O       0.8492  0.24325   0.9448     O
C      0.84952  0.61469  0.81324     C
N      0.85097  0.57047  0.51294     N
O      0.85149  0.71277  0.80526     O
N       0.8566   0.5127   0.8576     N
H       0.8573   0.5933   0.2706     H
N      0.85948  0.56046  0.83896     N
O      0.86724  0.18103  0.94508     O
N       0.8675   0.4417   0.2436     N
C      0.86756  0.65414     0.82     C
C       0.8683    0.529   0.2504     C
C      0.86991   0.0069  0.69036     C
N       0.8712  0.40039   0.2314     N
C       0.8755   0.5752   0.2614     C
C      0.87768  0.91783  0.14046     C
C      0.87836  0.60002  0.84452     C
O      0.88235  0.01937  0.66944     O
N       0.8826   0.5485   0.8706     N
C      0.88422  0.16301  0.21304     C
C      0.88687  0.70503   0.6848     C
H       0.8875   0.7101   0.2894     H
C       0.8876   0.4574   0.2316     C
C      0.88768  0.90935  0.20732     C
H       0.8908   0.9238    0.125     H
O      0.89244  0.00315   0.7281     O
C      0.89253  0.65612   0.6129     C
N      0.89377  0.39088  0.20874     N
O      0.89418  0.20338  0.25152     O
H       0.8942   0.3459   0.1242     H
C       0.8964   0.5062   0.2414     C
H       0.8965   0.5891   0.1774     H
C      0.89874   0.3449  0.18368     C
H       0.8995   0.7336    0.718     H
C      0.89995  0.32878   0.1397     C
C      0.90231  0.42361  0.20482     C
O       0.9044  0.29845   0.0552     O
C       0.9048   0.7108   0.3206     C
H       0.9048   0.7747   0.3678     H
C      0.90609  0.91748  0.18512     C
C       0.9067   0.5924   0.2588     C
H       0.9074   0.9107   0.2388     H
O      0.90751  0.14851  0.19474     O
N       0.9078  0.63593    0.265     N
H       0.9082   0.6499   0.5958     H
C      0.90935  0.31964  0.20732     C
C      0.90953  0.28823  0.11916     C
H       0.9107   0.3314   0.2388     H
C      0.91086  0.69535   0.6606     C
Cu     0.91138  0.29021      0.0    Cu
C       0.9131   0.7482   0.3666     C
C      0.91371  0.27336    0.072     C
C      0.91416   0.6807  0.85936     C
H       0.9158   0.4248   0.1874     H
C      0.91748  0.27903  0.18512     C
C      0.91783  0.26278  0.14046     C
C       0.9194   0.6183   0.1974     C
C       0.9204    0.676   0.3192     C
O      0.92216  0.23595  0.05492     O
H       0.9238   0.2342    0.125     H
O      0.92483  0.27208  0.94644     O
H       0.9256   0.7096   0.8658     H
C        0.926   0.5234   0.2368     C
H       0.9263   0.6079   0.1386     H
C      0.92744  0.62504  0.88168     C
C       0.9321    0.566    0.247     C
C       0.9322   0.7478   0.4088     C
Cu     0.93339  0.21673      0.0    Cu
C      0.93369  0.25502  0.21424     C
C      0.93421  0.23504  0.93016     C
C       0.9354   0.6491   0.2476     C
N      0.93582  0.82622  0.46824     N
O      0.93637  0.27459  0.25708     O
C        0.937   0.6297   0.1742     C
O      0.93933  0.21693  0.19062     O
H       0.9402   0.1562   0.8658     H
C      0.94113  0.78743  0.46026     C
O      0.94116  0.20869   0.9452     O
N      0.94247  0.85097  0.51294     N
H       0.9432   0.5051   0.2256     H
C       0.9441   0.6785   0.3646     C
C      0.94477  0.66606  0.88988     C
C      0.94511  0.22382  0.88988     C
C       0.9452  0.17866  0.85936     C
H       0.9459   0.9082   0.5958     H
H       0.9477   0.6134   0.9004     H
O      0.94896  0.97824  0.66562     O
Cu      0.9492  0.04281  0.70104    Cu
C      0.94997  0.11578  0.78696     C
C       0.9514   0.7159   0.4106     C
O      0.95186  0.10582  0.74848     O
C      0.95244  0.16586     0.82     C
H       0.9527    0.287   0.9004     H
O      0.95377  0.09249  0.80526     O
C      0.95424  0.25664  0.88168     C
H       0.9559   0.5784   0.2462     H
H       0.9561    0.654    0.365     H
C      0.95678  0.89253   0.6129     C
C      0.95694  0.79166  0.50528     C
Cu     0.95719  0.24816  0.29896    Cu
N      0.95776  0.83115  0.53752     N
C       0.9581  0.72888  0.68946     C
C      0.95922  0.93369  0.21424     C
Cu     0.96042  0.03091  0.77438    Cu
C      0.96058   0.9581  0.68946     C
C      0.96372  0.19855  0.81324     C
C      0.96447  0.84887  0.58794     C
C      0.96525  0.91086   0.6606     C
H       0.9661   0.7688   0.5122     H
C      0.96616   0.2445  0.84452     C
O      0.96656  0.97112  0.73188     O
C       0.9674   0.6902   0.2714     C
C       0.9686   0.6711   0.2028     C
Cu     0.96909  0.18604  0.22562    Cu
H       0.9699     0.19   0.7872     H
H         0.97   0.7184    0.443     H
O      0.97112  0.76532  0.73188     O
O      0.97369  0.93933  0.19062     O
O      0.97824  0.71666  0.66562     O
H       0.9783   0.7137   0.3068     H
O      0.97839  0.32564  0.05356     O
C      0.97861  0.82476   0.6111     C
N      0.97948   0.2785  0.83896     N
C      0.97977  0.88687   0.6848     C
O      0.98063  0.21291  0.33056     O
H       0.9822   0.7952   0.5936     H
O      0.98249  0.93637  0.25708     O
H       0.9844   0.8995    0.718     H
C       0.9847   0.7006   0.2504     C
C      0.98749  0.84495  0.66094     C
N        0.988   0.3221   0.8706     N
C       0.9911   0.2737   0.8076     C
H       0.9912   0.2454   0.7824     H
H       0.9916   0.2707   0.7294     H
C       0.9931  0.17955  0.30964     C
C      0.99595  0.69512  0.93016     C
O      0.99596  0.26349   0.0548     O
C       0.9968   0.6835    0.183     C
O      0.99685  0.16434   0.2719     O
N        0.999   0.6551   0.1424     N
