data_I
_chemical_name_common  '/home/zhangsd/repos/MofS-CGCNN/ML/data/TSD/clean_cifs/POHLOP_clean'
_cell_length_a  8.82100
_cell_length_b  9.28800
_cell_length_c 18.95500
_cell_angle_alpha 90.00000
_cell_angle_beta  90.00000
_cell_angle_gamma 109.55700
_space_group_name_H-M_alt      'P 1'


loop_
_space_group_symop_operation_xyz
  'x, y, z' 

loop_
_atom_site_label
_atom_site_fract_x
_atom_site_fract_y
_atom_site_fract_z
_atom_site_type_symbol
O       0.0311   0.3871   0.9085     O
O       0.0311   0.8871   0.5915     O
H       0.0861   0.0785   0.2897     H
H       0.0861   0.5785   0.2103     H
C       0.1163   0.1605   0.4226     C
C       0.1163   0.6605   0.0774     C
O        0.175   0.1616    0.483     O
O        0.175   0.6616    0.017     O
C       0.1819   0.1598   0.2945     C
C       0.1819   0.6598   0.2055     C
C       0.2284    0.225   0.3611     C
C       0.2284    0.725   0.1389     C
H       0.2448   0.1691   0.1923     H
H       0.2448   0.6691   0.3077     H
O       0.2609   0.2277   0.9251     O
O       0.2609   0.7277   0.5749     O
C       0.2759   0.2145   0.2361     C
C       0.2759   0.7145   0.2639     C
Eu     0.28973  0.01552  0.55321    Eu
Eu     0.28973  0.51552  0.94679    Eu
H       0.2977   0.0586    0.059     H
H       0.2977   0.5586    0.441     H
O       0.3481   0.4974   0.8172     O
O       0.3481   0.9974   0.6828     O
C       0.3735   0.3456   0.3676     C
C       0.3735   0.8456   0.1324     C
C       0.3788   0.0346   0.0356     C
C       0.3788   0.5346   0.4644     C
C       0.3944   0.2449   0.9511     C
C       0.3944   0.7449   0.5489     C
C       0.4176   0.3378   0.2427     C
C       0.4176   0.8378   0.2573     C
C       0.4337   0.4218   0.4381     C
C       0.4337   0.9218   0.0619     C
H       0.4384   0.0174   0.8135     H
H       0.4384   0.5174   0.6865     H
C       0.4449   0.1117   0.9742     C
C       0.4449   0.6117   0.5258     C
O       0.4628   0.3448  0.11871     O
O       0.4628   0.8448  0.38129     O
C       0.4657   0.4013   0.3089     C
C       0.4657   0.9013   0.1911     C
C       0.4823   0.0995   0.6781     C
C       0.4823   0.5995   0.8219     C
O       0.4943   0.3788   0.9638     O
O       0.4943   0.8788   0.5362     O
O       0.5057   0.1212   0.4638     O
O       0.5057   0.6212   0.0362     O
C       0.5177   0.4005   0.1781     C
C       0.5177   0.9005   0.3219     C
C       0.5343   0.0987   0.8089     C
C       0.5343   0.5987   0.6911     C
O       0.5372   0.1552  0.61871     O
O       0.5372   0.6552  0.88129     O
C       0.5551   0.3883   0.4742     C
C       0.5551   0.8883   0.0258     C
H       0.5616   0.4826   0.3135     H
H       0.5616   0.9826   0.1865     H
C       0.5663   0.0782   0.9381     C
C       0.5663   0.5782   0.5619     C
C       0.5824   0.1622   0.7427     C
C       0.5824   0.6622   0.7573     C
C       0.6056   0.2551   0.4511     C
C       0.6056   0.7551   0.0489     C
C       0.6212   0.4654   0.5356     C
C       0.6212   0.9654   0.9644     C
C       0.6265   0.1544   0.8676     C
C       0.6265   0.6544   0.6324     C
O       0.6519   0.0026   0.3172     O
O       0.6519   0.5026   0.1828     O
H       0.7023   0.4414    0.559     H
H       0.7023   0.9414    0.941     H
Eu     0.71027  0.48448  0.05321    Eu
Eu     0.71027  0.98448  0.44679    Eu
C       0.7241   0.2855   0.7361     C
C       0.7241   0.7855   0.7639     C
O       0.7391   0.2723   0.4251     O
O       0.7391   0.7723   0.0749     O
H       0.7552   0.3309   0.6923     H
H       0.7552   0.8309   0.8077     H
C       0.7716    0.275   0.8611     C
C       0.7716    0.775   0.6389     C
C       0.8181   0.3402   0.7945     C
C       0.8181   0.8402   0.7055     C
O        0.825   0.3384    0.983     O
O        0.825   0.8384    0.517     O
C       0.8837   0.3395   0.9226     C
C       0.8837   0.8395   0.5774     C
H       0.9139   0.4215   0.7897     H
H       0.9139   0.9215   0.7103     H
O       0.9689   0.1129   0.4085     O
O       0.9689   0.6129   0.0915     O
