data_I
_chemical_name_common  '/home/zhangsd/repos/MofS-CGCNN/ML/data/TSD/clean_cifs/POSFOU_clean'
_cell_length_a 10.14590
_cell_length_b 10.14590
_cell_length_c 23.86340
_cell_angle_alpha 90.00000
_cell_angle_beta  90.00000
_cell_angle_gamma 90.00000
_space_group_name_H-M_alt      'P 1'


loop_
_space_group_symop_operation_xyz
  'x, y, z' 

loop_
_atom_site_label
_atom_site_fract_x
_atom_site_fract_y
_atom_site_fract_z
_atom_site_type_symbol
Cd         0.0      0.0      0.0    Cd
Cd         0.0      0.5     0.75    Cd
H       0.0176   0.3434   0.8737     H
H       0.0224    0.844   0.3275     H
C       0.0275   0.7996   0.3615     C
C       0.0441   0.6656    0.461     C
H       0.0479   0.6191   0.4946     H
C       0.0712   0.6545  0.86421     C
C        0.076   0.2853   0.4421     C
C       0.0853    0.222  0.39202     C
H       0.0967   0.8093    0.708     H
O       0.0992   0.7976   0.9998     O
O       0.1038   0.8744  0.08512     O
N       0.1063   0.6169  0.68263     N
N       0.1169   0.6063  0.81737     N
H       0.1191   0.5479   0.0054     H
C       0.1217   0.7506  0.68001     C
O       0.1256   0.1038  0.91488     O
C       0.1267   0.7848  0.05084     C
C       0.1482    0.756   0.3808     C
H       0.1511   0.2959    0.464     H
C       0.1545   0.5712  0.63579     C
H        0.156   0.0224   0.6725     H
H       0.1566   0.4824   0.6263     H
C       0.1576   0.6856  0.43026     C
H       0.1581   0.7369    0.929     H
C       0.1656   0.5441    0.039     C
N        0.168   0.7005  0.89676     N
C       0.1798   0.7859  0.62991     C
C       0.1856   0.6576  0.06974     C
H       0.1907   0.0967    0.292     H
C       0.2004   0.0275   0.6385     C
N       0.2005    0.668  0.60324     N
O       0.2024   0.0992   0.0002     O
H       0.2041   0.3489    0.036     H
C       0.2141   0.1798  0.37009     C
C       0.2147    0.424   0.0579     C
C       0.2152   0.1267  0.94916     C
C        0.222   0.9147  0.60798     C
H        0.224   0.7742   0.3603     H
H       0.2258    0.224   0.6397     H
H       0.2369   0.6581    0.571     H
C        0.244   0.1482   0.6192     C
C       0.2494   0.1217  0.31999     C
C       0.2506   0.6217  0.81999     C
C        0.256   0.6482   0.1192     C
H       0.2631   0.1581    0.071     H
H       0.2742    0.724   0.1397     H
H        0.276   0.2742   0.8603     H
C        0.278   0.4147  0.10798     C
C       0.2848   0.6267  0.44916     C
C       0.2853    0.924   0.5579     C
C       0.2859   0.6798  0.87009     C
H       0.2959   0.8489    0.536     H
O       0.2976   0.5992   0.5002     O
N       0.2995    0.168  0.10324     N
C       0.2996   0.5275   0.1385     C
H       0.3093   0.5967    0.792     H
C       0.3144   0.1576  0.56974     C
C       0.3202   0.2859  0.12991     C
N        0.332   0.2005  0.39676     N
C       0.3344   0.0441    0.539     C
H       0.3419   0.2369    0.429     H
C       0.3424   0.1856  0.93026     C
H       0.3434   0.9824   0.1263     H
H        0.344   0.5224   0.1725     H
C       0.3455   0.0712  0.13579     C
H       0.3489   0.7959    0.964     H
C       0.3518    0.256   0.8808     C
C       0.3733   0.2848  0.55084     C
O       0.3744   0.6038  0.41488     O
C       0.3783   0.2506  0.18001     C
H       0.3809   0.0479   0.5054     H
N       0.3831   0.1063  0.31737     N
N       0.3937   0.1169  0.18263     N
O       0.3962   0.3744  0.58512     O
O       0.4008   0.2976   0.4998     O
H       0.4033   0.3093    0.208     H
C       0.4147    0.722  0.89202     C
C        0.424   0.7853   0.9421     C
C       0.4288   0.1545  0.36421     C
H       0.4521   0.1191   0.9946     H
C       0.4559   0.1656    0.961     C
C       0.4725   0.2996   0.8615     C
H       0.4776    0.344   0.8275     H
H       0.4824   0.8434   0.3737     H
Cd         0.5      0.0     0.25    Cd
Cd         0.5      0.5      0.5    Cd
H       0.5176   0.1566   0.3737     H
H       0.5224    0.656   0.8275     H
C       0.5275   0.7004   0.8615     C
C       0.5441   0.8344    0.961     C
H       0.5479   0.8809   0.9946     H
C       0.5712   0.8455  0.36421     C
C        0.576   0.2147   0.9421     C
C       0.5853    0.278  0.89202     C
H       0.5967   0.6907    0.208     H
O       0.5992   0.7024   0.4998     O
O       0.6038   0.6256  0.58512     O
N       0.6063   0.8831  0.18263     N
N       0.6169   0.8937  0.31737     N
H       0.6191   0.9521   0.5054     H
C       0.6217   0.7494  0.18001     C
O       0.6256   0.3962  0.41488     O
C       0.6267   0.7152  0.55084     C
C       0.6482    0.744   0.8808     C
H       0.6511   0.2041    0.964     H
C       0.6545   0.9288  0.13579     C
H        0.656   0.4776   0.1725     H
H       0.6566   0.0176   0.1263     H
C       0.6576   0.8144  0.93026     C
H       0.6581   0.7631    0.429     H
C       0.6656   0.9559    0.539     C
N        0.668   0.7995  0.39676     N
C       0.6798   0.7141  0.12991     C
C       0.6856   0.8424  0.56974     C
H       0.6907   0.4033    0.792     H
C       0.7004   0.4725   0.1385     C
N       0.7005    0.832  0.10324     N
O       0.7024   0.4008   0.5002     O
H       0.7041   0.1511    0.536     H
C       0.7141   0.3202  0.87009     C
C       0.7147    0.076   0.5579     C
C       0.7152   0.3733  0.44916     C
C        0.722   0.5853  0.10798     C
H        0.724   0.7258   0.8603     H
H       0.7258    0.276   0.1397     H
H       0.7369   0.8419    0.071     H
C        0.744   0.3518   0.1192     C
C       0.7494   0.3783  0.81999     C
C       0.7506   0.8783  0.31999     C
C        0.756   0.8518   0.6192     C
H       0.7631   0.3419    0.571     H
H       0.7742    0.776   0.6397     H
H        0.776   0.2258   0.3603     H
C        0.778   0.0853  0.60798     C
C       0.7848   0.8733  0.94916     C
C       0.7853    0.576   0.0579     C
C       0.7859   0.8202  0.37009     C
H       0.7959   0.6511    0.036     H
O       0.7976   0.9008   0.0002     O
N       0.7995    0.332  0.60324     N
C       0.7996   0.9725   0.6385     C
H       0.8093   0.9033    0.292     H
C       0.8144   0.3424  0.06974     C
C       0.8202   0.2141  0.62991     C
N        0.832   0.2995  0.89676     N
C       0.8344   0.4559    0.039     C
H       0.8419   0.2631    0.929     H
C       0.8424   0.3144  0.43026     C
H       0.8434   0.5176   0.6263     H
H        0.844   0.9776   0.6725     H
C       0.8455   0.4288  0.63579     C
H       0.8489   0.7041    0.464     H
C       0.8518    0.244   0.3808     C
C       0.8733   0.2152  0.05084     C
O       0.8744   0.8962  0.91488     O
C       0.8783   0.2494  0.68001     C
H       0.8809   0.4521   0.0054     H
N       0.8831   0.3937  0.81737     N
N       0.8937   0.3831  0.68263     N
O       0.8962   0.1256  0.08512     O
O       0.9008   0.2024   0.9998     O
H       0.9033   0.1907    0.708     H
C       0.9147    0.778  0.39202     C
C        0.924   0.7147   0.4421     C
C       0.9288   0.3455  0.86421     C
H       0.9521   0.3809   0.4946     H
C       0.9559   0.3344    0.461     C
C       0.9725   0.2004   0.3615     C
H       0.9776    0.156   0.3275     H
H       0.9824   0.6566   0.8737     H
