data_I
_chemical_name_common  '/home/zhangsd/repos/MofS-CGCNN/ML/data/TSD/clean_cifs/POSFIO_clean'
_cell_length_a 13.44250
_cell_length_b 14.42040
_cell_length_c 20.44690
_cell_angle_alpha 90.00000
_cell_angle_beta  108.16800
_cell_angle_gamma 90.00000
_space_group_name_H-M_alt      'P 1'


loop_
_space_group_symop_operation_xyz
  'x, y, z' 

loop_
_atom_site_label
_atom_site_fract_x
_atom_site_fract_y
_atom_site_fract_z
_atom_site_type_symbol
C       0.0113    0.027   0.1317     C
C       0.0113    0.473   0.6317     C
N       0.0224   0.0804   0.0768     N
N       0.0224   0.4196   0.5768     N
H       0.0277    0.589   0.7319     H
H       0.0277    0.911   0.2319     H
C       0.0738   0.5771   0.4729     C
C       0.0738   0.9229   0.9729     C
H       0.0775    0.109   0.0749     H
H       0.0775    0.391   0.5749     H
C       0.0833   0.0087   0.8917     C
C       0.0833   0.4913   0.3917     C
C        0.085   0.5493    0.744     C
C        0.085   0.9507    0.244     C
H       0.0916   0.6114   0.5135     H
H       0.0916   0.8886   0.0135     H
C       0.0936   0.0188   0.1982     C
C       0.0936   0.4812   0.6982     C
H       0.1105   0.0495   0.8664     H
H       0.1105   0.4505   0.3664     H
N       0.1371   0.5197   0.4561     N
N       0.1371   0.9803   0.9561     N
H       0.1539   0.6057   0.8366     H
H       0.1539   0.8943   0.3366     H
C       0.1604   0.5588   0.8069     C
C       0.1604   0.9412   0.3069     C
C       0.1795   0.0768   0.2172     C
C       0.1795   0.4232   0.7172     C
H       0.1874    0.122   0.1867     H
H       0.1874    0.378   0.6867     H
H        0.198   0.2242   0.7812     H
H        0.198   0.2758   0.2812     H
H       0.2248   0.2157   0.6755     H
H       0.2248   0.2843   0.1755     H
O       0.2344   0.1927   0.9133     O
O       0.2344   0.3073   0.4133     O
C       0.2456   0.0001   0.3267     C
C       0.2456   0.4999   0.8267     C
C       0.2491   0.1846   0.7753     C
C       0.2491   0.3154   0.2753     C
C       0.2545   0.0681   0.2817     C
C       0.2545   0.4319   0.7817     C
C       0.2661   0.1807   0.7121     C
C       0.2661   0.3193   0.2121     C
O       0.2706   0.5544  0.59258     O
O       0.2706   0.9456  0.09258     O
H       0.2757   0.2128   0.5758     H
H       0.2757   0.2872   0.0758     H
Cu     0.28011  0.01715   0.0123    Cu
Cu     0.28011  0.48285   0.5123    Cu
H       0.2827   0.6179    0.708     H
H       0.2827   0.8821    0.208     H
C       0.2835    0.128   0.8972     C
C       0.2835    0.372   0.3972     C
C       0.3065   0.1308   0.8297     C
C       0.3065   0.3692   0.3297     C
H       0.3111   0.1086   0.2945     H
H       0.3111   0.3914   0.7945     H
O        0.315   0.0551  0.93177     O
O        0.315   0.4449  0.43177     O
N       0.3202   0.1688   0.5793     N
N       0.3202   0.3312   0.0793     N
O       0.3242   0.5786   0.9325     O
O       0.3242   0.9214   0.4325     O
C       0.3281   0.6244   0.5911     C
C       0.3281   0.8756   0.0911     C
C       0.3287   0.5124   0.8955     C
C       0.3287   0.9876   0.3955     C
C       0.3301   0.6656     0.71     C
C       0.3301   0.8344     0.21     C
H       0.3373   0.1634   0.4847     H
H       0.3373   0.3366   0.9847     H
C       0.3449   0.1247   0.7033     C
C       0.3449   0.3753   0.2033     C
H       0.3481   0.7029   0.8081     H
H       0.3481   0.7971   0.3081     H
C       0.3572   0.1395   0.5292     C
C       0.3572   0.3605   0.0292     C
O       0.3573   0.6414  0.53999     O
O       0.3573   0.8586  0.03999     O
C       0.3609   0.6853   0.6531     C
C       0.3609   0.8147   0.1531     C
C       0.3659   0.1164   0.6373     C
C       0.3659   0.3836   0.1373     C
C       0.3695   0.7164   0.7701     C
C       0.3695   0.7836   0.2701     C
H       0.3779   0.0972   0.1657     H
H       0.3779   0.4028   0.6657     H
C        0.386   0.0741   0.8209     C
C        0.386   0.4259   0.3209     C
H       0.3961   0.6918   0.3945     H
H       0.3961   0.8082   0.8945     H
O       0.4022   0.0468  0.41184     O
O       0.4022   0.4532  0.91184     O
N       0.4029   0.0853   0.0721     N
N       0.4029   0.4147   0.5721     N
C       0.4056   0.0723   0.7588     C
C       0.4056   0.4277   0.2588     C
C       0.4205   0.1119   0.1391     C
C       0.4205   0.3881   0.6391     C
N       0.4255   0.0725  0.55145     N
N       0.4255   0.4275  0.05145     N
H       0.4256   0.0375   0.8571     H
H       0.4256   0.4625   0.3571     H
C       0.4307   0.7427   0.1564     C
C       0.4307   0.7573   0.6564     C
C       0.4317   0.0579   0.6188     C
C       0.4317   0.4421   0.1188     C
C       0.4409   0.7124   0.2737     C
C       0.4409   0.7876   0.7737     C
H       0.4509   0.7284   0.1181     H
H       0.4509   0.7716   0.6181     H
N       0.4529    0.665   0.3938     N
N       0.4529    0.835   0.8938     N
H       0.4599   0.0359   0.7537     H
H       0.4599   0.4641   0.2537     H
C       0.4706   0.6921   0.2162     C
C       0.4706   0.8079   0.7162     C
H       0.4746   0.0142   0.6476     H
H       0.4746   0.4858   0.1476     H
C       0.4814   0.1188   0.0541     C
C       0.4814   0.3812   0.5541     C
H       0.4824   0.1442   0.2821     H
H       0.4824   0.3558   0.7821     H
H       0.4899   0.1114    0.011     H
H       0.4899   0.3886    0.511     H
C       0.4903   0.6628   0.3393     C
C       0.4903   0.8372   0.8393     C
Cu         0.5      0.0      0.5    Cu
Cu         0.5      0.5      0.0    Cu
C       0.5097   0.1628   0.1607     C
C       0.5097   0.3372   0.6607     C
H       0.5101   0.6114    0.489     H
H       0.5101   0.8886    0.989     H
H       0.5176   0.6442   0.2179     H
H       0.5176   0.8558   0.7179     H
C       0.5186   0.6188   0.4459     C
C       0.5186   0.8812   0.9459     C
H       0.5254   0.5142   0.8524     H
H       0.5254   0.9858   0.3524     H
C       0.5294   0.1921   0.2838     C
C       0.5294   0.3079   0.7838     C
H       0.5401   0.5359   0.7463     H
H       0.5401   0.9641   0.2463     H
N       0.5471    0.165   0.1062     N
N       0.5471    0.335   0.6062     N
H       0.5491   0.2284   0.3819     H
H       0.5491   0.2716   0.8819     H
C       0.5591   0.2124   0.2263     C
C       0.5591   0.2876   0.7263     C
C       0.5683   0.5579   0.8812     C
C       0.5683   0.9421   0.3812     C
C       0.5693   0.2427   0.3436     C
C       0.5693   0.2573   0.8436     C
H       0.5744   0.5375   0.6429     H
H       0.5744   0.9625   0.1429     H
N       0.5745   0.5725  0.94855     N
N       0.5745   0.9275  0.44855     N
C       0.5795   0.6119   0.3609     C
C       0.5795   0.8881   0.8609     C
C       0.5944   0.5723   0.7412     C
C       0.5944   0.9277   0.2412     C
N       0.5971   0.5853   0.4279     N
N       0.5971   0.9147   0.9279     N
O       0.5978   0.5468  0.08816     O
O       0.5978   0.9532  0.58816     O
H       0.6039   0.1918   0.1055     H
H       0.6039   0.3082   0.6055     H
C        0.614   0.5741   0.6791     C
C        0.614   0.9259   0.1791     C
H       0.6221   0.5972   0.3343     H
H       0.6221   0.9028   0.8343     H
C       0.6305   0.2164   0.7299     C
C       0.6305   0.2836   0.2299     C
C       0.6341   0.6164   0.8627     C
C       0.6341   0.8836   0.3627     C
C       0.6391   0.1853   0.8469     C
C       0.6391   0.3147   0.3469     C
O       0.6427   0.1414  0.96001     O
O       0.6427   0.3586  0.46001     O
C       0.6428   0.6395   0.9708     C
C       0.6428   0.8605   0.4708     C
H       0.6519   0.2029   0.6919     H
H       0.6519   0.2971   0.1919     H
C       0.6551   0.6247   0.7967     C
C       0.6551   0.8753   0.2967     C
H       0.6627   0.6634   0.0153     H
H       0.6627   0.8366   0.5153     H
C       0.6699   0.1656     0.79     C
C       0.6699   0.3344     0.29     C
C       0.6713   0.0124   0.6045     C
C       0.6713   0.4876   0.1045     C
C       0.6719   0.1244   0.9089     C
C       0.6719   0.3756   0.4089     C
O       0.6758   0.0786   0.5675     O
O       0.6758   0.4214   0.0675     O
N       0.6798   0.6688   0.9207     N
N       0.6798   0.8312   0.4207     N
O        0.685   0.5551  0.56823     O
O        0.685   0.9449  0.06823     O
H       0.6889   0.6086   0.2055     H
H       0.6889   0.8914   0.7055     H
C       0.6935   0.6308   0.6703     C
C       0.6935   0.8692   0.1703     C
C       0.7165    0.628   0.6028     C
C       0.7165    0.872   0.1028     C
H       0.7173   0.1179    0.792     H
H       0.7173   0.3821    0.292     H
Cu     0.71989  0.51715   0.4877    Cu
Cu     0.71989  0.98285   0.9877    Cu
H       0.7243   0.7128   0.9242     H
H       0.7243   0.7872   0.4242     H
O       0.7294   0.0544  0.90742     O
O       0.7294   0.4456  0.40742     O
C       0.7339   0.6807   0.7879     C
C       0.7339   0.8193   0.2879     C
C       0.7455   0.5681   0.2183     C
C       0.7455   0.9319   0.7183     C
C       0.7509   0.6846   0.7247     C
C       0.7509   0.8154   0.2247     C
C       0.7544   0.5001   0.1733     C
C       0.7544   0.9999   0.6733     C
O       0.7656   0.6927   0.5867     O
O       0.7656   0.8073   0.0867     O
H       0.7752   0.7157   0.8245     H
H       0.7752   0.7843   0.3245     H
H        0.802   0.7242   0.7188     H
H        0.802   0.7758   0.2188     H
H       0.8126    0.622   0.3133     H
H       0.8126    0.878   0.8133     H
C       0.8205   0.5768   0.2828     C
C       0.8205   0.9232   0.7828     C
C       0.8396   0.0588   0.6931     C
C       0.8396   0.4412   0.1931     C
H       0.8461   0.1057   0.6634     H
H       0.8461   0.3943   0.1634     H
N       0.8629   0.0197   0.0439     N
N       0.8629   0.4803   0.5439     N
H       0.8895   0.5495   0.6336     H
H       0.8895   0.9505   0.1336     H
C       0.9064   0.5188   0.3018     C
C       0.9064   0.9812   0.8018     C
H       0.9084   0.1114   0.9865     H
H       0.9084   0.3886   0.4865     H
C        0.915   0.0493    0.756     C
C        0.915   0.4507    0.256     C
C       0.9167   0.5087   0.6083     C
C       0.9167   0.9913   0.1083     C
H       0.9225    0.609   0.4251     H
H       0.9225    0.891   0.9251     H
C       0.9262   0.0771   0.0271     C
C       0.9262   0.4229   0.5271     C
H       0.9723    0.089   0.7681     H
H       0.9723    0.411   0.2681     H
N       0.9776   0.5804   0.4232     N
N       0.9776   0.9196   0.9232     N
C       0.9887    0.527   0.3683     C
C       0.9887    0.973   0.8683     C
