data_I
_chemical_name_common  '/home/zhangsd/repos/MofS-CGCNN/ML/data/TSD/clean_cifs/POSGAH_clean'
_cell_length_a 16.13220
_cell_length_b 15.79810
_cell_length_c 11.60420
_cell_angle_alpha 90.00000
_cell_angle_beta  90.00000
_cell_angle_gamma 90.00000
_space_group_name_H-M_alt      'P 1'


loop_
_space_group_symop_operation_xyz
  'x, y, z' 

loop_
_atom_site_label
_atom_site_fract_x
_atom_site_fract_y
_atom_site_fract_z
_atom_site_type_symbol
C      0.00876   0.6203   0.9864     C
C      0.00876   0.8797   0.5136     C
H       0.0191   0.5687   0.9505     H
H       0.0191   0.9313   0.5495     H
C      0.02162   0.2267   0.9023     C
C      0.02162   0.2733   0.5977     C
H       0.0321   0.1761   0.8639     H
H       0.0321   0.3239   0.6361     H
C      0.06033  0.74632   0.0812     C
C      0.06033  0.75368   0.4188     C
C      0.07298   0.1485   0.5006     C
C      0.07298   0.3515   0.9994     C
C       0.0746   0.6695   0.0263     C
C       0.0746   0.8305   0.4737     C
H       0.0815   0.5962   0.2975     H
H       0.0815   0.9038   0.2025     H
C       0.0873   0.2246    0.557     C
C       0.0873   0.2754    0.943     C
O      0.12562  0.03375  0.39141     O
O      0.12562  0.46625  0.10859     O
C      0.12866  0.62614   0.3191     C
C      0.12866  0.87386   0.1809     C
H       0.1287   0.6506   0.0159     H
H       0.1287   0.8494   0.4841     H
C      0.12973  0.70214   0.3782     C
C      0.12973  0.79786   0.1218     C
H       0.1414   0.2433   0.5676     H
H       0.1414   0.2567   0.9324     H
C      0.14334   0.0987   0.4485     C
C      0.14334   0.4013   0.0515     C
H       0.1857    0.168   0.1698     H
H       0.1857    0.332   0.3302     H
N      0.20984  0.60222   0.2975     N
N      0.20984  0.89778   0.2025     N
N      0.21176  0.72415   0.3892     N
N      0.21176  0.77585   0.1108     N
O       0.2171   0.1232  0.46347     O
O       0.2171   0.3768  0.03653     O
H       0.2304   0.7316   0.0764     H
H       0.2304   0.7684   0.4236     H
C        0.243   0.1656   0.1623     C
C        0.243   0.3344   0.3377     C
Cd        0.25      0.0  0.32528    Cd
Cd        0.25      0.5  0.17472    Cd
C        0.257   0.6656   0.3377     C
C        0.257   0.8344   0.1623     C
H       0.2696   0.2316   0.4236     H
H       0.2696   0.2684   0.0764     H
O       0.2829   0.6232  0.03653     O
O       0.2829   0.8768  0.46347     O
N      0.28824  0.22415   0.1108     N
N      0.28824  0.27585   0.3892     N
N      0.29016  0.10222   0.2025     N
N      0.29016  0.39778   0.2975     N
H       0.3143    0.668   0.3302     H
H       0.3143    0.832   0.1698     H
C      0.35666   0.5987   0.0515     C
C      0.35666   0.9013   0.4485     C
H       0.3586   0.7433   0.9324     H
H       0.3586   0.7567   0.5676     H
C      0.37027  0.20214   0.1218     C
C      0.37027  0.29786   0.3782     C
H       0.3713   0.1506   0.4841     H
H       0.3713   0.3494   0.0159     H
C      0.37134  0.12614   0.1809     C
C      0.37134  0.37386   0.3191     C
O      0.37438  0.53375  0.10859     O
O      0.37438  0.96625  0.39141     O
C       0.4127   0.7246    0.943     C
C       0.4127   0.7754    0.557     C
H       0.4185   0.0962   0.2025     H
H       0.4185   0.4038   0.2975     H
C       0.4254   0.1695   0.4737     C
C       0.4254   0.3305   0.0263     C
C      0.42702   0.6485   0.9994     C
C      0.42702   0.8515   0.5006     C
C      0.43967  0.24632   0.4188     C
C      0.43967  0.25368   0.0812     C
H       0.4679   0.6761   0.6361     H
H       0.4679   0.8239   0.8639     H
C      0.47838   0.7267   0.5977     C
C      0.47838   0.7733   0.9023     C
H       0.4809   0.0687   0.5495     H
H       0.4809   0.4313   0.9505     H
C      0.49124   0.1203   0.5136     C
C      0.49124   0.3797   0.9864     C
C      0.50876   0.6203   0.0136     C
C      0.50876   0.8797   0.4864     C
H       0.5191   0.5687   0.0495     H
H       0.5191   0.9313   0.4505     H
C      0.52162   0.2267   0.0977     C
C      0.52162   0.2733   0.4023     C
H       0.5321   0.1761   0.1361     H
H       0.5321   0.3239   0.3639     H
C      0.56033  0.74632   0.9188     C
C      0.56033  0.75368   0.5812     C
C      0.57298   0.1485   0.4994     C
C      0.57298   0.3515   0.0006     C
C       0.5746   0.6695   0.9737     C
C       0.5746   0.8305   0.5263     C
H       0.5815   0.5962   0.7025     H
H       0.5815   0.9038   0.7975     H
C       0.5873   0.2246    0.443     C
C       0.5873   0.2754    0.057     C
O      0.62562  0.03375  0.60859     O
O      0.62562  0.46625  0.89141     O
C      0.62866  0.62614   0.6809     C
C      0.62866  0.87386   0.8191     C
H       0.6287   0.6506   0.9841     H
H       0.6287   0.8494   0.5159     H
C      0.62973  0.70214   0.6218     C
C      0.62973  0.79786   0.8782     C
H       0.6414   0.2433   0.4324     H
H       0.6414   0.2567   0.0676     H
C      0.64334   0.0987   0.5515     C
C      0.64334   0.4013   0.9485     C
H       0.6857    0.168   0.8302     H
H       0.6857    0.332   0.6698     H
N      0.70984  0.60222   0.7025     N
N      0.70984  0.89778   0.7975     N
N      0.71176  0.72415   0.6108     N
N      0.71176  0.77585   0.8892     N
O       0.7171   0.1232  0.53653     O
O       0.7171   0.3768  0.96347     O
H       0.7304   0.7316   0.9236     H
H       0.7304   0.7684   0.5764     H
C        0.743   0.1656   0.8377     C
C        0.743   0.3344   0.6623     C
Cd        0.75      0.0  0.67472    Cd
Cd        0.75      0.5  0.82528    Cd
C        0.757   0.6656   0.6623     C
C        0.757   0.8344   0.8377     C
H       0.7696   0.2316   0.5764     H
H       0.7696   0.2684   0.9236     H
O       0.7829   0.6232  0.96347     O
O       0.7829   0.8768  0.53653     O
N      0.78824  0.22415   0.8892     N
N      0.78824  0.27585   0.6108     N
N      0.79016  0.10222   0.7975     N
N      0.79016  0.39778   0.7025     N
H       0.8143    0.668   0.6698     H
H       0.8143    0.832   0.8302     H
C      0.85666   0.5987   0.9485     C
C      0.85666   0.9013   0.5515     C
H       0.8586   0.7433   0.0676     H
H       0.8586   0.7567   0.4324     H
C      0.87027  0.20214   0.8782     C
C      0.87027  0.29786   0.6218     C
H       0.8713   0.1506   0.5159     H
H       0.8713   0.3494   0.9841     H
C      0.87134  0.12614   0.8191     C
C      0.87134  0.37386   0.6809     C
O      0.87438  0.53375  0.89141     O
O      0.87438  0.96625  0.60859     O
C       0.9127   0.7246    0.057     C
C       0.9127   0.7754    0.443     C
H       0.9185   0.0962   0.7975     H
H       0.9185   0.4038   0.7025     H
C       0.9254   0.1695   0.5263     C
C       0.9254   0.3305   0.9737     C
C      0.92702   0.6485   0.0006     C
C      0.92702   0.8515   0.4994     C
C      0.93967  0.24632   0.5812     C
C      0.93967  0.25368   0.9188     C
H       0.9679   0.6761   0.3639     H
H       0.9679   0.8239   0.1361     H
C      0.97838   0.7267   0.4023     C
C      0.97838   0.7733   0.0977     C
H       0.9809   0.0687   0.4505     H
H       0.9809   0.4313   0.0495     H
C      0.99124   0.1203   0.4864     C
C      0.99124   0.3797   0.0136     C
