data_I
_chemical_name_common  '/home/zhangsd/repos/MofS-CGCNN/ML/data/TSD/clean_cifs/POWBIO_clean'
_cell_length_a 11.32200
_cell_length_b 12.13900
_cell_length_c 23.31100
_cell_angle_alpha 83.58600
_cell_angle_beta  81.75300
_cell_angle_gamma 71.16900
_space_group_name_H-M_alt      'P 1'


loop_
_space_group_symop_operation_xyz
  'x, y, z' 

loop_
_atom_site_label
_atom_site_fract_x
_atom_site_fract_y
_atom_site_fract_z
_atom_site_type_symbol
C          0.0   0.2451   0.4104     C
C          0.0   0.7549   0.5896     C
C       0.0002   0.2443   0.3522     C
C       0.0035   0.2243   0.1254     C
C       0.0113   0.2011   0.0685     C
O       0.0132   0.3487   0.2329     O
W       0.0134  0.84185  0.13138     W
O       0.0171   0.0435   0.8132     O
W      0.01865  0.48595  0.24556     W
O       0.0213   0.6503   0.2796     O
O       0.0302   0.5214   0.6716     O
W      0.03331  0.87031  0.38876     W
O       0.0528   0.2402   0.6142     O
O       0.0605   0.0599   0.2636     O
H       0.0612   0.3685   0.4852     H
W      0.06957  0.38322  0.63285     W
H       0.0735   0.2392   0.3274     H
H       0.0743   0.2294   0.1395     H
O        0.085   0.8408   0.2887     O
W      0.08515  0.01179   0.7354     W
H       0.0853   0.8295   0.9912     H
O       0.0873   0.0142   0.6526     O
C       0.0905   0.8101   0.9532     C
H       0.0955   0.2918   0.9578     H
N       0.1029   0.7601   0.8388     N
O       0.1037   0.2146   0.8302     O
O       0.1047   0.5277   0.1765     O
N       0.1064   0.7489   0.6693     N
C       0.1072   0.7461   0.5516     C
O       0.1075   0.7014    0.094     O
Cu     0.10768  0.74422  0.75484    Cu
H       0.1083   0.7419   0.5119     H
O       0.1095   0.5551   0.3885     O
N       0.1157   0.2404   0.4305     N
C       0.1276   0.3096   0.4681     C
N       0.1284   0.1845   0.0343     N
Si      0.1307   0.7133   0.2624    Si
O       0.1348   0.4259   0.7683     O
O       0.1353    0.432   0.5664     O
O       0.1498   0.9545   0.3614     O
C       0.1529    0.237   0.9798     C
O       0.1631   0.7306   0.1931     O
O       0.1764   0.7358   0.4022     O
O       0.1801   0.8821   0.1086     O
O       0.1803   0.1019   0.7312     O
O        0.193     0.87   0.7426     O
O       0.1941   0.4247   0.2705     O
C       0.2004   0.7914   0.9165     C
C       0.2046   0.7662   0.8595     C
O       0.2082   0.3128    0.667     O
C       0.2101   0.7435    0.633     C
C       0.2115   0.7437    0.575     C
W       0.2148  0.96647  0.28099     W
C       0.2319    0.168   0.4148     C
W      0.23697  0.57908  0.13061     W
C       0.2382   0.1079   0.0489     C
N       0.2463   0.2839   0.4784     N
H        0.247   0.0608   0.0833     H
H       0.2486   0.8955   0.4829     H
H       0.2496   0.9661   0.9636     H
H       0.2531   0.1107   0.3882     H
O       0.2554   0.6319   0.2914     O
Ce     0.25618  0.23642  0.75883    Ce
W      0.26055   0.5756  0.39177     W
O        0.261   0.9236   0.2028     O
C       0.2775    0.192   0.9655     C
H       0.2797   0.7532   0.8352     H
H       0.2833   0.7394    0.648     H
O       0.2962   0.5236   0.4616     O
Cu      0.3081   0.3697  0.52783    Cu
N       0.3106   0.8027   0.9351     N
C        0.311    0.194   0.4451     C
C        0.317    0.832   0.4924     C
C       0.3175      0.9   0.9563     C
W      0.31911  0.81499  0.14462     W
N       0.3203   0.7489   0.5366     N
H       0.3216   0.2135   0.9317     H
N       0.3313   0.1088   0.0076     N
O       0.3368   0.4975   0.1897     O
O       0.3449   0.4346   0.3513     O
O       0.3462   0.8206   0.2988     O
O       0.3466   0.6703   0.1081     O
W      0.35263  0.43296  0.26886     W
H       0.3968    0.156   0.4434     H
O       0.4045   0.3285   0.7197     O
H        0.411   0.2615   0.0488     H
O       0.4148   0.6175   0.3621     O
O       0.4174   0.7142   0.2043     O
C        0.427    0.724    0.931     C
N       0.4362   0.8862   0.9655     N
C       0.4371   0.6774   0.5379     C
W      0.44112  0.66786   0.2822     W
C       0.4413    0.802   0.4641     C
H       0.4503   0.6493    0.918     H
H       0.4612   0.6135   0.5644     H
H       0.4681   0.8387   0.4299     H
O       0.4833   0.5088   0.2642     O
N       0.4843   0.2898   0.5045     N
C        0.497    0.226   0.0506     C
Cu         0.5     -0.0      0.0    Cu
C        0.503    0.774   0.9494     C
N       0.5157   0.7102   0.4955     N
O       0.5167   0.4912   0.7358     O
H       0.5319   0.1613   0.5701     H
H       0.5388   0.3865   0.4356     H
H       0.5497   0.3507    0.082     H
C       0.5587    0.198   0.5359     C
W      0.55888  0.33214   0.7178     W
C       0.5629   0.3226   0.4621     C
N       0.5638   0.1138   0.0345     N
C        0.573    0.276    0.069     C
O       0.5826   0.2858   0.7957     O
O       0.5852   0.3825   0.6379     O
H        0.589   0.7385   0.9512     H
O       0.5955   0.6715   0.2803     O
H       0.6032    0.844   0.5566     H
W      0.64737  0.56704  0.73114     W
O       0.6534   0.3297   0.8919     O
O       0.6538   0.1794   0.7012     O
O       0.6551   0.5654   0.6487     O
O       0.6632   0.5025   0.8103     O
N       0.6687   0.8912   0.9924     N
H       0.6784   0.7865   0.0683     H
N       0.6797   0.2511   0.4634     N
W      0.68089  0.18501  0.85538     W
C       0.6825      0.1   0.0437     C
C        0.683    0.168   0.5076     C
C        0.689    0.806   0.5549     C
N       0.6894   0.1973   0.0649     N
Cu      0.6919   0.6303  0.47217    Cu
O       0.7038   0.4764   0.5384     O
H       0.7167   0.2606    0.352     H
H       0.7203   0.2468   0.1648     H
C       0.7225    0.808   0.0345     C
O        0.739   0.0764   0.7972     O
W      0.73945   0.4244  0.60823     W
Ce     0.74382  0.76358  0.24117    Ce
O       0.7446   0.3681   0.7086     O
H       0.7469   0.8893   0.6118     H
H       0.7504   0.0339   0.0364     H
H       0.7514   0.1045   0.5171     H
H        0.753   0.9392   0.9167     H
N       0.7537   0.7161   0.5216     N
C       0.7618   0.8921   0.9511     C
W      0.76303  0.42092  0.86939     W
C       0.7681    0.832   0.5852     C
W       0.7852  0.03353  0.71901     W
C       0.7885   0.2563    0.425     C
C       0.7899   0.2565    0.367     C
O       0.7918   0.6872    0.333     O
C       0.7954   0.2338   0.1405     C
C       0.7996   0.2086   0.0835     C
O       0.8059   0.5753   0.7295     O
O        0.807     0.13   0.2574     O
O       0.8197   0.8981   0.2688     O
O       0.8199   0.1179   0.8914     O
O       0.8236   0.2642   0.5978     O
O       0.8369   0.2694   0.8069     O
C       0.8471    0.763   0.0202     C
O       0.8502   0.0455   0.6386     O
O       0.8647    0.568   0.4336     O
O       0.8652   0.5741   0.2317     O
Si      0.8693   0.2867   0.7376    Si
N       0.8716   0.8155   0.9657     N
C       0.8724   0.6904   0.5319     C
N       0.8843   0.7596   0.5695     N
O       0.8905   0.4449   0.6115     O
H       0.8917   0.2581   0.4881     H
Cu     0.89232  0.25578  0.24516    Cu
O       0.8925   0.2986    0.906     O
C       0.8928   0.2539   0.4484     C
N       0.8936   0.2511   0.3307     N
O       0.8953   0.4723   0.8235     O
O       0.8963   0.7854   0.1698     O
N       0.8971   0.2399   0.1612     N
H       0.9045   0.7082   0.0422     H
C       0.9095   0.1899   0.0468     C
O       0.9127   0.9858   0.3474     O
H       0.9147   0.1705   0.0088     H
W      0.91485  0.98821   0.2646     W
O        0.915   0.1592   0.7113     O
H       0.9257   0.7706   0.8605     H
H       0.9265   0.7608   0.6726     H
W      0.93043  0.61678  0.36715     W
H       0.9388   0.6315   0.5148     H
O       0.9395   0.9401   0.7364     O
O       0.9472   0.7598   0.3858     O
W      0.96669  0.12969  0.61124     W
O       0.9698   0.4786   0.3284     O
O       0.9787   0.3497   0.7204     O
W      0.98135  0.51405  0.75444     W
O       0.9829   0.9565   0.1868     O
W       0.9866  0.15815  0.86862     W
O       0.9868   0.6513   0.7671     O
C       0.9887   0.7989   0.9315     C
C       0.9965   0.7757   0.8746     C
C       0.9998   0.7557   0.6478     C
