data_I
_chemical_name_common  '/home/zhangsd/repos/MofS-CGCNN/ML/data/TSD/clean_cifs/PUGSER_clean'
_cell_length_a 10.31600
_cell_length_b 26.09600
_cell_length_c 27.88900
_cell_angle_alpha 90.00000
_cell_angle_beta  93.78000
_cell_angle_gamma 90.00000
_space_group_name_H-M_alt      'P 1'


loop_
_space_group_symop_operation_xyz
  'x, y, z' 

loop_
_atom_site_label
_atom_site_fract_x
_atom_site_fract_y
_atom_site_fract_z
_atom_site_type_symbol
H       0.0066   0.5305   0.4626     H
O       0.0116   0.2894  0.73539     O
C       0.0138  0.16425  0.68558     C
C        0.016  0.01203  0.74683     C
C       0.0162  0.11073  0.70664     C
C       0.0175  0.96052   0.7671     C
H         0.02   0.8285   0.8207     H
C         0.02  0.86201  0.80823     C
C       0.0236   0.2905   0.8347     C
C       0.0244   0.2911   0.8845     C
Zn     0.03212  0.64077  0.34087    Zn
O       0.0337  0.70983  0.36651     O
H       0.0384   0.5664   0.5077     H
O       0.0412  0.59619  0.40031     O
H       0.0468   0.7343   0.9046     H
Zn      0.0478  0.71499  0.43435    Zn
C        0.051  0.73582  0.93831     C
C       0.0555   0.2662  0.98882     C
C       0.0556   0.6035   0.4436     C
O       0.0596  0.64644  0.46385     O
C       0.0615  0.26488  0.03805     C
C       0.0618   0.7339  0.03822     C
C       0.0641   0.5571    0.476     C
C       0.0674   0.7335  0.09148     C
C       0.0779   0.7311  0.19263     C
C       0.0812   0.7302   0.2463     C
O       0.0846  0.82086  0.33884     O
C       0.0874   0.9212   0.3019     C
C       0.0903     0.97   0.2818     C
H       0.0907    0.309   0.9021     H
H       0.0933    0.305   0.8194     H
C       0.0961  0.06268  0.22015     C
C       0.0966  0.11068  0.19922     C
O        0.104  0.25442  0.53831     O
O       0.1157  0.19181  0.69478     O
Zn     0.11818  0.25819  0.66561    Zn
C        0.119   0.0464   0.7553     C
C       0.1196   0.0938   0.7351     C
H       0.1331   0.2673    0.973     H
C       0.1343  0.93415  0.77762     C
C       0.1352  0.88504  0.79699     C
O       0.1364  0.38278  0.68729     O
H       0.1527   0.5444   0.4785     H
H       0.1587     0.91   0.3219     H
H       0.1639   0.9908   0.2876     H
C       0.1679   0.7563    0.119     C
C       0.1698  0.73866  0.96362     C
C       0.1737   0.7552   0.1683     C
H       0.1752   0.0452   0.2259     H
O       0.1759  0.61149  0.30845     O
O        0.176  0.75164  0.26871     O
Zn     0.17611  0.74696  0.33895    Zn
C       0.1762    0.737  0.01264     C
H       0.1907   0.0364   0.7757     H
C       0.1916  0.26163  0.06686     C
H       0.1923   0.1152   0.7409     H
O       0.1923  0.26959  0.11069     O
O       0.2075  0.17847  0.16388     O
C       0.2076  0.24317  0.56328     C
O       0.2124  0.74802  0.45679     O
H       0.2134   0.9499   0.7715     H
C       0.2172  0.13618  0.18335     C
O       0.2189  0.23664  0.60716     O
H       0.2342    0.773   0.1035     H
C       0.2416  0.35767  0.69099     C
H       0.2423   0.2379   0.4702     H
H       0.2437    0.771   0.1859     H
O       0.2499  0.80901  0.81449     O
O       0.2501  0.30901  0.68551     O
H       0.2563    0.271   0.3141     H
H       0.2577   0.7379   0.0298     H
C       0.2584  0.85767  0.80901     C
H       0.2658    0.273   0.3965     H
O       0.2811  0.73664  0.89284     O
C       0.2828  0.63618  0.31665     C
H       0.2866   0.4499   0.7285     H
O       0.2876  0.24802  0.04321     O
C       0.2924  0.74317  0.93672     C
O       0.2925  0.67847  0.33612     O
H       0.3077   0.6152   0.7591     H
O       0.3077  0.76959  0.38931     O
C       0.3084  0.76163  0.43314     C
H       0.3093   0.5364   0.7243     H
C       0.3238    0.237  0.48736     C
Zn     0.32389  0.24696  0.16105    Zn
O        0.324  0.25164  0.23129     O
O       0.3241  0.11149  0.19155     O
H       0.3248   0.5452   0.2741     H
C       0.3263   0.2552   0.3317     C
C       0.3302  0.23866  0.53638     C
C       0.3321   0.2563    0.381     C
H       0.3361   0.4908   0.2124     H
H       0.3413     0.41   0.1781     H
H       0.3473   0.0444   0.0215     H
O       0.3636  0.88278  0.81271     O
C       0.3648  0.38504  0.70301     C
C       0.3657  0.43415  0.72238     C
H       0.3669   0.7673    0.527     H
C       0.3804   0.5938   0.7649     C
C        0.381   0.5464   0.7447     C
Zn     0.38182  0.75819  0.83439    Zn
O       0.3843  0.69181  0.80522     O
O        0.396  0.75442  0.96169     O
C       0.4034  0.61068  0.30078     C
C       0.4039  0.56268  0.27985     C
H       0.4067    0.805   0.6806     H
H       0.4093    0.809   0.5979     H
C       0.4097     0.47   0.2182     C
C       0.4126   0.4212   0.1981     C
O       0.4154  0.32086  0.16116     O
C       0.4188   0.2302   0.2537     C
C       0.4221   0.2311  0.30737     C
C       0.4326   0.2335  0.40852     C
C       0.4359   0.0571    0.024     C
C       0.4382   0.2339  0.46178     C
C       0.4385  0.76488  0.46195     C
O       0.4404  0.14644  0.03615     O
C       0.4444   0.1035   0.0564     C
C       0.4445   0.7662  0.51118     C
C        0.449  0.23582  0.56169     C
Zn      0.4522  0.21499  0.06565    Zn
H       0.4532   0.2343   0.5954     H
O       0.4588  0.09619  0.09969     O
H       0.4616   0.0664   0.9923     H
O       0.4663  0.20983  0.13349     O
Zn     0.46788  0.14077  0.15913    Zn
C       0.4756   0.7911   0.6155     C
C       0.4764   0.7905   0.6653     C
H         0.48   0.3285   0.6793     H
C         0.48  0.36201  0.69177     C
C       0.4825  0.46052   0.7329     C
C       0.4838  0.61073  0.79336     C
C        0.484  0.51203  0.75317     C
C       0.4862  0.66425  0.81442     C
O       0.4884   0.7894  0.76461     O
H       0.4934   0.0305   0.0374     H
H       0.5066   0.9695   0.9626     H
O       0.5116   0.2106  0.23539     O
C       0.5138  0.33575  0.18558     C
C        0.516  0.48797  0.24683     C
C       0.5162  0.38927  0.20664     C
C       0.5175  0.53948   0.2671     C
C         0.52  0.63799  0.30823     C
H         0.52   0.6715   0.3207     H
C       0.5236   0.2095   0.3347     C
C       0.5244   0.2089   0.3845     C
Zn     0.53212  0.85923  0.84087    Zn
O       0.5337  0.79017  0.86651     O
H       0.5384   0.9336   0.0077     H
O       0.5412  0.90381  0.90031     O
H       0.5468   0.7657   0.4046     H
Zn      0.5478  0.78501  0.93435    Zn
C        0.551  0.76418  0.43831     C
C       0.5555   0.2338  0.48882     C
C       0.5556   0.8965   0.9436     C
O       0.5596  0.85356  0.96385     O
C       0.5615  0.23512  0.53805     C
C       0.5618   0.7661  0.53822     C
C       0.5641   0.9429    0.976     C
C       0.5674   0.7665  0.59148     C
C       0.5779   0.7689  0.69263     C
C       0.5812   0.7698   0.7463     C
O       0.5846  0.67914  0.83884     O
C       0.5874   0.5788   0.8019     C
C       0.5903     0.53   0.7818     C
H       0.5907    0.191   0.4021     H
H       0.5933    0.195   0.3194     H
C       0.5961  0.43732  0.72015     C
C       0.5966  0.38932  0.69922     C
O        0.604  0.24558  0.03831     O
O       0.6157  0.30819  0.19478     O
Zn     0.61818  0.24181  0.16561    Zn
C        0.619   0.4536   0.2553     C
C       0.6196   0.4062   0.2351     C
H       0.6331   0.2327    0.473     H
C       0.6343  0.56585  0.27762     C
C       0.6352  0.61496  0.29699     C
O       0.6364  0.11722  0.18729     O
H       0.6527   0.9556   0.9785     H
H       0.6587     0.59   0.8219     H
H       0.6639   0.5092   0.7876     H
C       0.6679   0.7437    0.619     C
C       0.6698  0.76134  0.46362     C
C       0.6737   0.7448   0.6683     C
H       0.6752   0.4548   0.7259     H
O       0.6759  0.88851  0.80845     O
O        0.676  0.74836  0.76871     O
Zn     0.67611  0.75304  0.83895    Zn
C       0.6762    0.763  0.51264     C
H       0.6907   0.4636   0.2757     H
C       0.6916  0.23837  0.56686     C
O       0.6923  0.23041  0.61069     O
H       0.6923   0.3848   0.2409     H
O       0.7075  0.32153  0.66388     O
C       0.7076  0.25683  0.06328     C
O       0.7124  0.75198  0.95679     O
H       0.7134   0.5501   0.2715     H
C       0.7172  0.36382  0.68335     C
O       0.7189  0.26336  0.10716     O
H       0.7342    0.727   0.6035     H
C       0.7416  0.14233  0.19099     C
H       0.7423   0.2621   0.9702     H
H       0.7437    0.729   0.6859     H
O       0.7499  0.69099  0.31449     O
O       0.7501  0.19099  0.18551     O
H       0.7563    0.229   0.8141     H
H       0.7577   0.7621   0.5298     H
C       0.7584  0.64233  0.30901     C
H       0.7658    0.227   0.8965     H
O       0.7811  0.76336  0.39284     O
C       0.7828  0.86382  0.81665     C
H       0.7866   0.0501   0.2285     H
O       0.7876  0.25198  0.54321     O
C       0.7924  0.75683  0.43672     C
O       0.7925  0.82153  0.83612     O
O       0.8077  0.73041  0.88931     O
H       0.8077   0.8848   0.2591     H
C       0.8084  0.73837  0.93314     C
H       0.8093   0.9636   0.2243     H
C       0.8238    0.263  0.98736     C
Zn     0.82389  0.25304  0.66105    Zn
O        0.824  0.24836  0.73129     O
O       0.8241  0.38851  0.69155     O
H       0.8248   0.9548   0.7741     H
C       0.8263   0.2448   0.8317     C
C       0.8302  0.26134  0.03638     C
C       0.8321   0.2437    0.881     C
H       0.8361   0.0092   0.7124     H
H       0.8413     0.09   0.6781     H
H       0.8473   0.4556   0.5215     H
O       0.8636  0.61722  0.31271     O
C       0.8648  0.11496  0.20301     C
C       0.8657  0.06585  0.22238     C
H       0.8669   0.7327    0.027     H
C       0.8804   0.9062   0.2649     C
C        0.881   0.9536   0.2447     C
Zn     0.88182  0.74181  0.33439    Zn
O       0.8843  0.80819  0.30522     O
O        0.896  0.74558  0.46169     O
C       0.9034  0.88932  0.80078     C
C       0.9039  0.93732  0.77985     C
H       0.9067    0.695   0.1806     H
H       0.9093    0.691   0.0979     H
C       0.9097     0.03   0.7182     C
C       0.9126   0.0788   0.6981     C
O       0.9154  0.17914  0.66116     O
C       0.9188   0.2698   0.7537     C
C       0.9221   0.2689  0.80737     C
C       0.9326   0.2665  0.90852     C
C       0.9359   0.4429    0.524     C
C       0.9382   0.2661  0.96178     C
C       0.9385  0.73512  0.96195     C
O       0.9404  0.35356  0.53615     O
C       0.9444   0.3965   0.5564     C
C       0.9445   0.7338  0.01118     C
C        0.949  0.26418  0.06169     C
Zn      0.9522  0.28501  0.56565    Zn
H       0.9532   0.2657   0.0954     H
O       0.9588  0.40381  0.59969     O
H       0.9616   0.4336   0.4923     H
O       0.9663  0.29017  0.63349     O
Zn     0.96788  0.35923  0.65913    Zn
C       0.9756   0.7089   0.1155     C
C       0.9764   0.7095   0.1653     C
C         0.98  0.13799  0.19177     C
H         0.98   0.1715   0.1793     H
C       0.9825  0.03948   0.2329     C
C       0.9838  0.88927  0.29336     C
C        0.984  0.98797  0.25317     C
C       0.9862  0.83575  0.31442     C
O       0.9884   0.7106  0.26461     O
H       0.9934   0.4695   0.5374     H
