data_I
_chemical_name_common  '/home/zhangsd/repos/MofS-CGCNN/ML/data/TSD/clean_cifs/PUMNIV_clean'
_cell_length_a  9.25150
_cell_length_b 14.16700
_cell_length_c 16.58980
_cell_angle_alpha 90.00000
_cell_angle_beta  93.03200
_cell_angle_gamma 90.00000
_space_group_name_H-M_alt      'P 1'


loop_
_space_group_symop_operation_xyz
  'x, y, z' 

loop_
_atom_site_label
_atom_site_fract_x
_atom_site_fract_y
_atom_site_fract_z
_atom_site_type_symbol
Hg     0.02003  0.20431  0.08183    Hg
Cd     0.02684  0.15683  0.75583    Cd
S      0.03656  0.22186  0.23248     S
N       0.0529   0.7439   0.1445     N
C        0.057   0.7047   0.0846     C
S      0.06034  0.64743  0.99806     S
N       0.0725   0.7499   0.3441     N
N       0.1033   0.0536   0.8559     N
C       0.1332   0.9944   0.8979     C
C       0.1353   0.7486   0.7575     C
C       0.1411   0.7108   0.3929     C
S      0.18187  0.90793  0.96081     S
S      0.23573  0.65489  0.46509     S
N       0.2491   0.2279   0.7529     N
N       0.2509   0.7279   0.7471     N
S      0.26427  0.15489  0.03491     S
S      0.31813  0.40793  0.53919     S
C       0.3589   0.2108   0.1071     C
C       0.3647   0.2486   0.7425     C
C       0.3668   0.4944   0.6021     C
N       0.3967   0.5536   0.6441     N
N       0.4275   0.2499   0.1559     N
S      0.43966  0.14743  0.50194     S
C        0.443   0.2047   0.4154     C
N       0.4471   0.2439   0.3555     N
S      0.46344  0.72186  0.26752     S
Cd     0.47316  0.65683  0.74417    Cd
Hg     0.47997  0.70431  0.41817    Hg
Hg     0.52003  0.29569  0.58183    Hg
Cd     0.52684  0.34317  0.25583    Cd
S      0.53656  0.27814  0.73248     S
N       0.5529   0.7561   0.6445     N
C        0.557   0.7953   0.5846     C
S      0.56034  0.85257  0.49806     S
N       0.5725   0.7501   0.8441     N
N       0.6033   0.4464   0.3559     N
C       0.6332   0.5056   0.3979     C
C       0.6353   0.7514   0.2575     C
C       0.6411   0.7892   0.8929     C
S      0.68187  0.59207  0.46081     S
S      0.73573  0.84511  0.96509     S
N       0.7491   0.2721   0.2529     N
N       0.7509   0.7721   0.2471     N
S      0.76427  0.34511  0.53491     S
S      0.81813  0.09207  0.03919     S
C       0.8589   0.2892   0.6071     C
C       0.8647   0.2514   0.2425     C
C       0.8668   0.0056   0.1021     C
N       0.8967   0.9464   0.1441     N
N       0.9275   0.2501   0.6559     N
S      0.93966  0.35257  0.00194     S
C        0.943   0.2953   0.9154     C
N       0.9471   0.2561   0.8555     N
S      0.96344  0.77814  0.76752     S
Cd     0.97316  0.84317  0.24417    Cd
Hg     0.97997  0.79569  0.91817    Hg
