data_I
_chemical_name_common  '/home/zhangsd/repos/MofS-CGCNN/ML/data/TSD/clean_cifs/PUMZAZ_clean'
_cell_length_a 10.58700
_cell_length_b 26.04880
_cell_length_c 11.76310
_cell_angle_alpha 90.00000
_cell_angle_beta  98.32600
_cell_angle_gamma 90.00000
_space_group_name_H-M_alt      'P 1'


loop_
_space_group_symop_operation_xyz
  'x, y, z' 

loop_
_atom_site_label
_atom_site_fract_x
_atom_site_fract_y
_atom_site_fract_z
_atom_site_type_symbol
C       0.0004   0.1606   0.6486     C
C       0.0004   0.3394   0.1486     C
C       0.0045   0.1688   0.7769     C
C       0.0045   0.3312   0.2769     C
C       0.0046  0.51664   0.5557     C
C       0.0046  0.98336   0.0557     C
H         0.01    0.248   0.7782     H
H         0.01    0.252   0.2782     H
H        0.037   0.6273   0.8726     H
H        0.037   0.8727   0.3726     H
O       0.0468  0.16796   0.0919     O
O       0.0468  0.33204   0.5919     O
H       0.0529   0.6867   0.8931     H
H       0.0529   0.8133   0.3931     H
O       0.0536  0.58177    0.071     O
O       0.0536  0.91823    0.571     O
H       0.0538   0.1416   0.8185     H
H       0.0538   0.3584   0.3185     H
O       0.0617  0.05632   0.9496     O
O       0.0617  0.44368   0.4496     O
C       0.0643   0.2206   0.8129     C
C       0.0643   0.2794   0.3129     C
H       0.0709   0.1762   0.4471     H
H       0.0709   0.3238   0.9471     H
C       0.0721   0.6729   0.4203     C
C       0.0721   0.8271   0.9203     C
H       0.0724   0.2242   0.8958     H
H       0.0724   0.2758   0.3958     H
O       0.0783   0.5001   0.6406     O
O       0.0783   0.9999   0.1406     O
H       0.0815   0.6675   0.7039     H
H       0.0815   0.8325   0.2039     H
P      0.08939  0.08721  0.43997     P
P      0.08939  0.41279  0.93997     P
O       0.0897  0.58459   0.3727     O
O       0.0897  0.91541   0.8727     O
C       0.1308  0.15269   0.4901     C
C       0.1308  0.34731   0.9901     C
N       0.1318  0.16307    0.616     N
N       0.1318  0.33693    0.116     N
O        0.133  0.71366    0.442     O
O        0.133  0.78634    0.942     O
H       0.1388   0.2413   0.6041     H
H       0.1388   0.2587   0.1041     H
O       0.1397  0.08556   0.3269     O
O       0.1397  0.41444   0.8269     O
Gd     0.14721  0.08868  0.13736    Gd
Gd     0.14721  0.41132  0.63736    Gd
C       0.1512  0.62387   0.4071     C
C       0.1512  0.87613   0.9071     C
O       0.1574  0.05055   0.5289     O
O       0.1574  0.44945   0.0289     O
H       0.1808   0.1388   0.6568     H
H       0.1808   0.3612   0.1568     H
C       0.1893  0.21488   0.6473     C
C       0.1893  0.28512   0.1473     C
C       0.1937   0.2245   0.7754     C
C       0.1937   0.2755   0.2754     C
H       0.2148   0.1607   0.4712     H
H       0.2148   0.3393   0.9712     H
Gd     0.22517  0.53433  0.03903    Gd
Gd     0.22517  0.96567  0.53903    Gd
H       0.2283   0.2415   0.2938     H
H       0.2283   0.2585   0.7938     H
H       0.2505   0.1997   0.8179     H
H       0.2505   0.3003   0.3179     H
O       0.2639  0.69157   0.2416     O
O       0.2639  0.80843   0.7416     O
O       0.2706  0.62744   0.4322     O
O       0.2706  0.87256   0.9322     O
H       0.2751   0.2163   0.6275     H
H       0.2751   0.2837   0.1275     H
O       0.2862  0.11625   0.0045     O
O       0.2862  0.38375   0.5045     O
C       0.2913  0.72286    0.168     C
C       0.2913  0.77714    0.668     C
O        0.293  0.71499   0.0639     O
O        0.293  0.78501   0.5639     O
O        0.307  0.15288   0.2173     O
O        0.307  0.34712   0.7173     O
C       0.3298  0.72253   0.7147     C
C       0.3298  0.77747   0.2147     C
O       0.3358    0.715     0.82     O
O       0.3358    0.785     0.32     O
O       0.3527  0.69041   0.6419     O
O       0.3527  0.80959   0.1419     O
Gd     0.36022  0.71329   0.4454    Gd
Gd     0.36022  0.78671   0.9454    Gd
O       0.3643  0.50979   0.8992     O
O       0.3643  0.99021   0.3992     O
C       0.3806  0.14479    0.037     C
C       0.3806  0.35521    0.537     C
C       0.3878  0.16812   0.1578     C
C       0.3878  0.33188   0.6578     C
O       0.4344  0.50494   0.1265     O
O       0.4344  0.99506   0.6265     O
O       0.4672  0.15553   0.9806     O
O       0.4672  0.34447   0.4806     O
O       0.4751  0.20017   0.1855     O
O       0.4751  0.29983   0.6855     O
C       0.4803  0.50135   0.9344     C
C       0.4803  0.99865   0.4344     C
C       0.5197  0.00135   0.5656     C
C       0.5197  0.49865   0.0656     C
O       0.5249  0.70017   0.3145     O
O       0.5249  0.79983   0.8145     O
O       0.5328  0.65553   0.5194     O
O       0.5328  0.84447   0.0194     O
O       0.5656  0.00494   0.3735     O
O       0.5656  0.49506   0.8735     O
C       0.6122  0.66812   0.3422     C
C       0.6122  0.83188   0.8422     C
C       0.6194  0.64479    0.463     C
C       0.6194  0.85521    0.963     C
O       0.6357  0.00979   0.6008     O
O       0.6357  0.49021   0.1008     O
Gd     0.63978  0.21329   0.0546    Gd
Gd     0.63978  0.28671   0.5546    Gd
O       0.6473  0.19041   0.8581     O
O       0.6473  0.30959   0.3581     O
O       0.6642    0.215     0.68     O
O       0.6642    0.285     0.18     O
C       0.6702  0.22253   0.7853     C
C       0.6702  0.27747   0.2853     C
O        0.693  0.65288   0.2827     O
O        0.693  0.84712   0.7827     O
O        0.707  0.21499   0.4361     O
O        0.707  0.28501   0.9361     O
C       0.7087  0.22286    0.332     C
C       0.7087  0.27714    0.832     C
O       0.7138  0.61625   0.4955     O
O       0.7138  0.88375   0.9955     O
H       0.7249   0.7163   0.8725     H
H       0.7249   0.7837   0.3725     H
O       0.7294  0.12744   0.0678     O
O       0.7294  0.37256   0.5678     O
O       0.7361  0.19157   0.2584     O
O       0.7361  0.30843   0.7584     O
H       0.7495   0.6997   0.6821     H
H       0.7495   0.8003   0.1821     H
H       0.7717   0.7415   0.2062     H
H       0.7717   0.7585   0.7062     H
Gd     0.77483  0.03433  0.46097    Gd
Gd     0.77483  0.46567  0.96097    Gd
H       0.7852   0.6607   0.0288     H
H       0.7852   0.8393   0.5288     H
C       0.8063   0.7245   0.7246     C
C       0.8063   0.7755   0.2246     C
C       0.8107  0.71488   0.8527     C
C       0.8107  0.78512   0.3527     C
H       0.8192   0.6388   0.8432     H
H       0.8192   0.8612   0.3432     H
O       0.8426  0.55055   0.9711     O
O       0.8426  0.94945   0.4711     O
C       0.8488  0.12387   0.0929     C
C       0.8488  0.37613   0.5929     C
Gd     0.85279  0.58868  0.36264    Gd
Gd     0.85279  0.91132  0.86264    Gd
O       0.8603  0.58556   0.1731     O
O       0.8603  0.91444   0.6731     O
H       0.8612   0.7413   0.8959     H
H       0.8612   0.7587   0.3959     H
O        0.867  0.21366    0.058     O
O        0.867  0.28634    0.558     O
N       0.8682  0.66307    0.884     N
N       0.8682  0.83693    0.384     N
C       0.8692  0.65269   0.0099     C
C       0.8692  0.84731   0.5099     C
O       0.9103  0.08459   0.1273     O
O       0.9103  0.41541   0.6273     O
P      0.91061  0.58721  0.06003     P
P      0.91061  0.91279  0.56003     P
H       0.9185   0.1675   0.7961     H
H       0.9185   0.3325   0.2961     H
O       0.9217   0.0001   0.8594     O
O       0.9217   0.4999   0.3594     O
H       0.9276   0.7242   0.6042     H
H       0.9276   0.7758   0.1042     H
C       0.9279   0.1729   0.0797     C
C       0.9279   0.3271   0.5797     C
H       0.9291   0.6762   0.0529     H
H       0.9291   0.8238   0.5529     H
C       0.9357   0.7206   0.6871     C
C       0.9357   0.7794   0.1871     C
O       0.9383  0.55632   0.5504     O
O       0.9383  0.94368   0.0504     O
H       0.9462   0.6416   0.6815     H
H       0.9462   0.8584   0.1815     H
O       0.9464  0.08177    0.429     O
O       0.9464  0.41823    0.929     O
H       0.9471   0.1867   0.6069     H
H       0.9471   0.3133   0.1069     H
O       0.9532  0.66796   0.4081     O
O       0.9532  0.83204   0.9081     O
H        0.963   0.1273   0.6274     H
H        0.963   0.3727   0.1274     H
H         0.99    0.748   0.7218     H
H         0.99    0.752   0.2218     H
C       0.9954  0.01664   0.9443     C
C       0.9954  0.48336   0.4443     C
C       0.9955   0.6688   0.7231     C
C       0.9955   0.8312   0.2231     C
C       0.9996   0.6606   0.8514     C
C       0.9996   0.8394   0.3514     C
