data_I
_chemical_name_common  '/home/zhangsd/repos/MofS-CGCNN/ML/data/TSD/clean_cifs/PUPNAQ_clean'
_cell_length_a  6.88900
_cell_length_b 11.60600
_cell_length_c 23.85100
_cell_angle_alpha 90.00000
_cell_angle_beta  90.00000
_cell_angle_gamma 96.08200
_space_group_name_H-M_alt      'P 1'


loop_
_space_group_symop_operation_xyz
  'x, y, z' 

loop_
_atom_site_label
_atom_site_fract_x
_atom_site_fract_y
_atom_site_fract_z
_atom_site_type_symbol
O       0.0239   0.3418  0.91492     O
O       0.0239   0.8418  0.58508     O
C       0.0242   0.2933  0.27788     C
C       0.0242   0.7933  0.22212     C
H       0.0322   0.1434    0.701     H
H       0.0322   0.6434    0.799     H
O       0.0411   0.3463  0.04723     O
O       0.0411   0.8463  0.45277     O
C        0.057   0.2621  0.82503     C
C        0.057   0.7621  0.67497     C
C       0.0674   0.2105  0.37415     C
C       0.0674   0.7105  0.12585     C
C       0.0889   0.0641  0.95676     C
C       0.0889   0.5641  0.54324     C
C       0.0915   0.1814  0.73293     C
C       0.0915   0.6814  0.76707     C
C       0.0938   0.4957   0.4487     C
C       0.0938   0.9957   0.0513     C
Zn     0.13126   0.1418  0.48184    Zn
Zn     0.13126   0.6418  0.01815    Zn
H       0.1496   0.1082   0.9268     H
H       0.1496   0.6082   0.5732     H
H       0.1568   0.4922   0.4134     H
H       0.1568   0.9922   0.0866     H
H       0.1593   0.2368   0.1273     H
H       0.1593   0.7368   0.3727     H
H       0.1612   0.3143   0.2763     H
H       0.1612   0.8143   0.2237     H
C       0.1857    0.061  0.00803     C
C       0.1857    0.561  0.49197     C
C       0.2008   0.4089   0.0535     C
C       0.2008   0.9089   0.4465     C
H       0.2253   0.3197   0.5772     H
H       0.2253   0.8197   0.9228     H
H       0.2393    0.047   0.6549     H
H       0.2393    0.547   0.8451     H
O       0.2466   0.2385  0.37321     O
O       0.2466   0.7385  0.12679     O
O       0.2527  0.49862  0.02499     O
O       0.2527  0.99862  0.47501     O
C       0.2577   0.2915  0.82617     C
C       0.2577   0.7915  0.67383     C
C       0.2812   0.2817  0.13306     C
C       0.2812   0.7817  0.36694     C
C        0.293   0.2104  0.73363     C
C        0.293   0.7104  0.76637     C
H       0.3162    0.329   0.8583     H
H       0.3162    0.829   0.6417     H
C       0.3334   0.3238  0.55226     C
C       0.3334   0.8238  0.94774     C
C       0.3359   0.3748  0.09845     C
C       0.3359   0.8748  0.40155     C
N        0.342   0.2595  0.50686     N
N        0.342   0.7595  0.99314     N
H       0.3614   0.1885   0.1994     H
H       0.3614   0.6885   0.3006     H
C       0.3624    0.091  0.64976     C
C       0.3624    0.591  0.85024     C
C        0.374    0.267   0.7813     C
C        0.374    0.767   0.7187     C
C        0.379   0.1247   0.0147     C
C        0.379   0.6247   0.4853     C
C       0.4016    0.253  0.17605     C
C       0.4016    0.753  0.32395     C
C       0.4185   0.1828   0.6857     C
C       0.4185   0.6828   0.8143     C
H       0.4301   0.2414     0.95     H
H       0.4301   0.7414     0.55     H
H       0.4418   0.4999   0.9177     H
H       0.4418   0.9999   0.5823     H
C       0.4779   0.2091   0.9832     C
C       0.4779   0.7091   0.5168     C
H       0.4786   0.0536   0.0855     H
H       0.4786   0.5536   0.4145     H
C       0.4831   0.0626  0.60654     C
C       0.4831   0.5626  0.89346     C
H       0.4892   0.2111   0.2829     H
H       0.4892   0.7111   0.2171     H
N       0.4969   0.3954  0.55843     N
N       0.4969   0.8954  0.94157     N
N       0.5031   0.1046  0.05843     N
N       0.5031   0.6046  0.44157     N
H       0.5108   0.2889   0.7829     H
H       0.5108   0.7889   0.7171     H
C       0.5169   0.4374  0.10654     C
C       0.5169   0.9374  0.39346     C
H       0.5214   0.4464   0.5855     H
H       0.5214   0.9464   0.9145     H
C       0.5221   0.2909   0.4832     C
C       0.5221   0.7909   0.0168     C
H       0.5582   0.0001   0.4177     H
H       0.5582   0.5001   0.0823     H
H       0.5699   0.2586     0.45     H
H       0.5699   0.7586     0.05     H
C       0.5815   0.3172   0.1857     C
C       0.5815   0.8172   0.3143     C
C       0.5984    0.247  0.67605     C
C       0.5984    0.747  0.82395     C
C        0.621   0.3753   0.5147     C
C        0.621   0.8753   0.9853     C
C        0.626    0.233   0.2813     C
C        0.626    0.733   0.2187     C
C       0.6376    0.409  0.14976     C
C       0.6376    0.909  0.35024     C
H       0.6386   0.3115   0.6994     H
H       0.6386   0.8115   0.8006     H
N        0.658   0.2405  0.00686     N
N        0.658   0.7405  0.49314     N
C       0.6641   0.1252  0.59845     C
C       0.6641   0.6252  0.90155     C
C       0.6666   0.1762  0.05226     C
C       0.6666   0.6762  0.44774     C
H       0.6838    0.171   0.3583     H
H       0.6838    0.671   0.1417     H
C        0.707   0.2896  0.23363     C
C        0.707   0.7896  0.26637     C
C       0.7188   0.2183  0.63306     C
C       0.7188   0.7183  0.86694     C
C       0.7423   0.2085  0.32617     C
C       0.7423   0.7085  0.17383     C
O       0.7473  0.00138  0.52499     O
O       0.7473  0.50138  0.97501     O
O       0.7534   0.2615  0.87321     O
O       0.7534   0.7615  0.62679     O
H       0.7607    0.453   0.1549     H
H       0.7607    0.953   0.3451     H
H       0.7747   0.1803   0.0772     H
H       0.7747   0.6803   0.4228     H
C       0.7992   0.0911   0.5535     C
C       0.7992   0.5911   0.9465     C
C       0.8143    0.439  0.50803     C
C       0.8143    0.939  0.99197     C
H       0.8388   0.1857   0.7763     H
H       0.8388   0.6857   0.7237     H
H       0.8407   0.2632   0.6273     H
H       0.8407   0.7632   0.8727     H
H       0.8432   0.0078   0.9134     H
H       0.8432   0.5078   0.5866     H
H       0.8504   0.3918   0.4268     H
H       0.8504   0.8918   0.0732     H
Zn     0.86874   0.3582  0.98184    Zn
Zn     0.86874   0.8582  0.51815    Zn
C       0.9062   0.0043   0.9487     C
C       0.9062   0.5043   0.5513     C
C       0.9085   0.3186  0.23293     C
C       0.9085   0.8186  0.26707     C
C       0.9111   0.4359  0.45676     C
C       0.9111   0.9359  0.04324     C
C       0.9326   0.2895  0.87415     C
C       0.9326   0.7895  0.62585     C
C        0.943   0.2379  0.32503     C
C        0.943   0.7379  0.17497     C
O       0.9589   0.1537  0.54723     O
O       0.9589   0.6537  0.95277     O
H       0.9678   0.3566    0.201     H
H       0.9678   0.8566    0.299     H
C       0.9758   0.2067  0.77788     C
C       0.9758   0.7067  0.72212     C
O       0.9761   0.1582  0.41492     O
O       0.9761   0.6582  0.08508     O
