data_I
_chemical_name_common  '/home/zhangsd/repos/MofS-CGCNN/ML/data/TSD/clean_cifs/PUQHIT_SL'
_cell_length_a  9.84010
_cell_length_b 11.06170
_cell_length_c 13.53070
_cell_angle_alpha 66.18100
_cell_angle_beta  85.82300
_cell_angle_gamma 69.89000
_space_group_name_H-M_alt      'P 1'


loop_
_space_group_symop_operation_xyz
  'x, y, z' 

loop_
_atom_site_label
_atom_site_fract_x
_atom_site_fract_y
_atom_site_fract_z
_atom_site_type_symbol
C       0.0051   0.3492   0.4172     C
N       0.0096   0.5309   0.6687     N
H       0.0257  0.31998  0.14293     H
O       0.0257   0.4188   0.1103     O
H       0.0611   0.7526   0.4387     H
C       0.0795    0.664   0.4981     C
H       0.0806   0.2667   0.4192     H
O       0.1093   0.1431   0.1175     O
Zn     0.11134  0.47295   0.2042    Zn
C       0.1178   0.4156   0.6709     C
H       0.1228   0.9063   0.1039     H
H       0.1311   0.3281   0.7306     H
O       0.1421   0.6541   0.1475     O
C       0.1552   0.1643   0.0256     C
O       0.1593   0.2793   0.9564     O
Zn     0.16858   0.4459  0.98252    Zn
C       0.1797   0.9175   0.0432     C
C       0.1906   0.5495   0.4991     C
C        0.191   0.6816   0.0546     C
H       0.2043   0.6731   0.7679     H
O       0.2111   0.6082   0.0016     O
C       0.2116   0.4211   0.5877     C
C        0.215    0.041   0.9911     C
C       0.2294   0.8137   0.0043     C
H       0.2514   0.6531   0.3446     H
C       0.2853   0.5669   0.4068     C
C       0.2863   0.5946   0.7708     C
H       0.2886   0.3386   0.5913     H
O       0.2985   0.3179    0.261     O
C       0.3035   0.0525   0.9063     C
N       0.3096   0.4733   0.8562     N
C        0.319   0.8241     0.92     C
H       0.3271   0.1356   0.8713     H
O       0.3457   0.2928   0.1038     O
H       0.3523   0.7017   0.6259     H
H       0.3534   0.7506   0.8952     H
C       0.3585   0.9435   0.8717     C
C       0.3713   0.2571   0.2006     C
C       0.3749   0.6129   0.6857     C
H       0.3972   0.7064   0.2189     H
C       0.4082   0.4775   0.4027     C
H       0.4181   0.8372    0.732     H
C       0.4277   0.3637   0.8587     C
H       0.4407   0.3897   0.4636     H
O       0.4453   0.9686   0.7868     O
H       0.4472    0.276   0.9192     H
H       0.4774    0.081   0.3359     H
C       0.4784   0.6264   0.2233     C
C       0.4962   0.5015    0.688     C
C       0.4974   0.8702   0.7384     C
C       0.5026   0.1298   0.2616     C
C       0.5038   0.4985    0.312     C
C       0.5216   0.3736   0.7767     C
H       0.5226    0.919   0.6641     H
H       0.5528    0.724   0.0808     H
O       0.5547   0.0314   0.2132     O
H       0.5593   0.6103   0.5364     H
C       0.5723   0.6363   0.1413     C
H       0.5819   0.1628    0.268     H
C       0.5918   0.5225   0.5973     C
H       0.6028   0.2936   0.7811     H
C       0.6251   0.3871   0.3143     C
C       0.6287   0.7429   0.7994     C
C       0.6415   0.0565   0.1283     C
H       0.6466   0.2494   0.1048     H
H       0.6477   0.2983   0.3741     H
O       0.6543   0.7072   0.8962     O
H       0.6729   0.8644   0.1287     H
C        0.681   0.1759     0.08     C
N       0.6904   0.5267   0.1438     N
C       0.6965   0.9475   0.0937     C
O       0.7015   0.6821    0.739     O
H       0.7114   0.6614   0.4087     H
C       0.7137   0.4054   0.2292     C
C       0.7147   0.4331   0.5932     C
H       0.7486   0.3469   0.6554     H
C       0.7706   0.1863   0.9957     C
C        0.785    0.959   0.0089     C
C       0.7884   0.5789   0.4123     C
O       0.7889   0.3918   0.9984     O
H       0.7957   0.3269   0.2321     H
C        0.809   0.3184   0.9454     C
C       0.8094   0.4505   0.5009     C
C       0.8203   0.0825   0.9568     C
Zn     0.83142   0.5541  0.01748    Zn
O       0.8407   0.7207   0.0436     O
C       0.8448   0.8357   0.9744     C
O       0.8579   0.3459   0.8525     O
H       0.8689   0.6719   0.2694     H
H       0.8772   0.0937   0.8961     H
C       0.8822   0.5844   0.3291     C
Zn     0.88866  0.52705   0.7958    Zn
O       0.8907   0.8569   0.8825     O
H       0.9194   0.7333   0.5808     H
C       0.9205    0.336   0.5019     C
H       0.9389   0.2474   0.5613     H
O       0.9743   0.5812   0.8897     O
H       0.9743  0.68002  0.85707     H
N       0.9904   0.4691   0.3313     N
C       0.9949   0.6508   0.5828     C
