data_I
_chemical_name_common  '/home/zhangsd/repos/MofS-CGCNN/ML/data/TSD/clean_cifs/PUSXIL_charged'
_cell_length_a 17.39090
_cell_length_b 17.39090
_cell_length_c 17.39090
_cell_angle_alpha 63.52840
_cell_angle_beta  83.77160
_cell_angle_gamma 116.47200
_space_group_name_H-M_alt      'P 1'


loop_
_space_group_symop_operation_xyz
  'x, y, z' 

loop_
_atom_site_label
_atom_site_fract_x
_atom_site_fract_y
_atom_site_fract_z
_atom_site_type_symbol
Zn     0.00255  0.94437  0.50284    Zn
O       0.0096   0.8612    0.462     O
C       0.0105   0.3939     0.81     C
C       0.0219   0.3478   0.7663     C
H       0.0219   0.7655   0.2824     H
P      0.03826  0.87964   0.3666     P
O      0.04117   0.1639  0.26573     O
O       0.0477   0.9761   0.2922     O
H        0.062   0.4496   0.8036     H
O       0.0658   0.6131   0.9707     O
C       0.1192   0.3849   0.7135     C
O      0.12273   0.6931  0.04117     O
O       0.1241   0.8788   0.3433     O
Zn       0.125  0.11793  0.25707    Zn
O       0.1259   0.0326   0.4953     O
O      0.12727   0.3361  0.67963     O
C       0.1308   0.6673   0.9843     C
O       0.1842   0.4635   0.7027     O
H        0.188   0.6344   0.8624     H
O       0.2023   0.1601   0.3216     O
O      0.20883   0.1931  0.12727     O
P      0.21174  0.09514  0.40862     P
H       0.2281   0.1957   0.5064     H
C       0.2281   0.7118   0.9241     C
C       0.2395   0.6795   0.8666     C
O       0.2404   0.0284   0.3984     O
Zn     0.24745  0.99461  0.30818    Zn
Zn     0.25707  0.38207    0.625    Zn
C       0.2657   0.1673   0.1192     C
O      0.26573   0.3069  0.57037     O
O       0.2723   0.6143   0.7542     O
O       0.2793   0.1131   0.1842     O
O       0.2807   0.8594   0.4219     O
H       0.2824   0.3043   0.9521     H
C       0.2883   0.2176   0.4759     C
O       0.2922   0.3399   0.7317     O
H       0.2979   0.8043   0.9676     H
C        0.303   0.1812   0.4236     C
C       0.3065   0.7824   0.9293     C
Zn     0.30818  0.55563  0.69721    Zn
C       0.3207   0.2824   0.9435     C
O       0.3216   0.5239   0.5183     O
C       0.3259   0.2118   0.0219     C
C       0.3271   0.7143   0.8156     C
C       0.3334   0.9005   0.3429     C
O        0.342   0.9735   0.2723     O
H       0.3428   0.7484   0.4648     H
C       0.3429   0.6763   0.7566     C
O       0.3433   0.4674   0.7779     O
C       0.3484   0.3327   0.5365     C
C       0.3641   0.2882   0.4837     C
P       0.3666  0.40486  0.75376     P
C       0.3718   0.3188   0.8548     C
C       0.3787   0.7731   0.4056     C
C       0.3834   0.1795   0.0105     C
C       0.3872   0.8573   0.3271     C
H       0.3876   0.1344    0.062     H
C       0.3944   0.2157   0.3787     C
C       0.3952   0.8188   0.8782     C
O       0.3984   0.6388   0.5732     O
H       0.4056   0.1924   0.3428     H
C       0.4056   0.7843   0.8213     C
P      0.40862  0.62036  0.49624     P
O       0.4162   0.3869   0.5473     O
O       0.4219   0.7026   0.7187     O
C       0.4236   0.7266   0.3952     C
C       0.4287   0.2843   0.8444     C
C       0.4344   0.2143   0.9229     C
C         0.44   0.8939   0.2395     C
H       0.4464   0.9496    0.188     H
C       0.4539   0.3205     0.44     C
O        0.462   0.4716   0.6768     O
H       0.4632   0.3076   0.7852     H
H       0.4648   0.8076   0.7868     H
C       0.4701   0.2857   0.3872     C
O       0.4721   0.9674   0.9067     O
C       0.4759   0.7642   0.3065     C
C       0.4837   0.8478   0.2281     C
C       0.4934   0.1763   0.9071     C
O       0.4953   0.6212   0.4721     O
O       0.4958   0.1143   0.9777     O
P      0.49624  0.90486   0.8834     P
Zn     0.50284  0.50539  0.55279    Zn
H       0.5032   0.3656   0.4464     H
H       0.5064   0.7345   0.2979     H
O       0.5183   0.8399   0.9578     O
O       0.5313   0.2026   0.8281     O
C       0.5365   0.8849   0.1308     C
O       0.5473   0.9635   0.0658     O
Zn     0.55279  0.05563  0.94182    Zn
C       0.5671   0.3237   0.3334     C
O      0.57037   0.8361  0.12273     O
O       0.5732   0.9716    0.788     O
O       0.5787   0.2974   0.2807     O
O       0.6185   0.5265   0.4958     O
Zn       0.625  0.88207  0.99293    Zn
O       0.6315   0.3857    0.342     O
O       0.6713   0.6406   0.5313     O
O       0.6768   0.1388   0.8516     O
O      0.67963   0.8069  0.98427     O
C       0.6829   0.5995   0.4934     C
Zn     0.69721  0.00539  0.74716    Zn
O       0.7027   0.8869   0.8338     O
C       0.7135   0.8327   0.9016     C
O       0.7187   0.1406   0.5787     O
O       0.7317   0.0239   0.9284     O
H       0.7436   0.6957   0.0219     H
H       0.7468   0.5504   0.3876     H
Zn     0.74716  0.44437  0.24745    Zn
P      0.75376  0.12036  0.84138     P
O       0.7542   0.0265   0.6315     O
O       0.7547   0.5326   0.1241     O
C       0.7566   0.0995   0.5671     C
C       0.7663   0.7882   0.8859     C
C       0.7741   0.7176   0.9617     C
O       0.7779   0.1212   0.7547     O
C       0.7799   0.6427   0.4344     C
H       0.7852   0.2484   0.9072     H
H       0.7868   0.2516   0.4056     H
O        0.788   0.3612   0.2404     O
C       0.7961   0.6061   0.3834     C
H       0.8036   0.8656   0.7468     H
C         0.81   0.8205   0.7961     C
C       0.8156   0.1427   0.4701     C
C       0.8213   0.2269   0.3944     C
C       0.8264   0.6812    0.947     C
O       0.8281   0.3594   0.9693     O
O       0.8338   0.5365   0.2793     O
P      0.84138  0.59514  0.03826     P
C       0.8444   0.2731   0.8713     C
H       0.8444   0.7516   0.4632     H
O       0.8516   0.5284   0.0096     O
C       0.8548   0.2266   0.8264     C
C       0.8556   0.7269   0.4287     C
H       0.8624   0.0504   0.5032     H
C       0.8628   0.7857   0.7799     C
C       0.8666   0.1061   0.4539     C
C       0.8713   0.7157   0.8556     C
C       0.8782   0.2734    0.303     C
P       0.8834  0.37964  0.21174     P
C       0.8859   0.6522   0.3259     C
C       0.9016   0.6151   0.2657     C
O       0.9067   0.3788   0.1259     O
C       0.9071   0.4005   0.9166     C
H       0.9072   0.6924   0.8444     H
O        0.908   0.8857   0.6185     O
C       0.9166   0.8237   0.6829     C
C       0.9229   0.3573   0.8628     C
C       0.9241   0.1522   0.3641     C
O       0.9284   0.6601   0.0477     O
C       0.9293   0.2358   0.2883     C
Zn     0.94182  0.49461  0.00255    Zn
C       0.9435   0.2642   0.7741     C
C        0.947   0.7734   0.3718     C
H       0.9521   0.2345   0.7436     H
O       0.9578   0.4761   0.2023     O
C       0.9617   0.7358   0.3207     C
H       0.9676   0.2655   0.2281     H
O       0.9693   0.7974   0.6713     O
O       0.9707   0.0365   0.4162     O
O       0.9777   0.4735    0.908     O
O      0.98427   0.6639  0.20883     O
C       0.9843   0.1151   0.3484     C
Zn     0.99293  0.61793    0.125    Zn
