data_I
_chemical_name_common  '/home/zhangsd/repos/MofS-CGCNN/ML/data/TSD/clean_cifs/PUZKUS_clean'
_cell_length_a 10.04830
_cell_length_b 13.49690
_cell_length_c 16.73460
_cell_angle_alpha 90.00000
_cell_angle_beta  93.68300
_cell_angle_gamma 90.00000
_space_group_name_H-M_alt      'P 1'


loop_
_space_group_symop_operation_xyz
  'x, y, z' 

loop_
_atom_site_label
_atom_site_fract_x
_atom_site_fract_y
_atom_site_fract_z
_atom_site_type_symbol
O       0.0155  0.09248  0.44457     O
Mg      0.0293  0.39711  0.55125    Mg
O      0.06693  0.54549  0.56118     O
O        0.077   0.2032  0.58853     O
O      0.07938  0.70499  0.54372     O
C       0.0818  0.04935  0.39635     C
Mg     0.09225  0.84378   0.4743    Mg
H       0.0939   0.2515   0.3593     H
C       0.1086  0.62987   0.5848     C
O       0.1136  0.96066  0.39852     O
O       0.1226  0.34113  0.65495     O
C        0.123   0.2489  0.64897     C
C        0.128   0.2093  0.32167     C
C       0.1291  0.10942  0.32861     C
H       0.1389    0.048    0.689     H
O      0.14369  0.60059  0.39329     O
C       0.1833   0.0907  0.72533     C
C       0.1839   0.2427  0.25145     C
C       0.1842   0.1903  0.71697     C
C       0.1886  0.63606  0.66091     C
H       0.1898   0.3092   0.2374     H
O        0.199  0.76129  0.39861     O
C       0.1992   0.6774  0.36814     C
S      0.20146  0.05461  0.24992     S
S      0.22793  0.74797   0.7052     S
C       0.2281   0.1676  0.20657     C
H       0.2328   0.4925   0.6904     H
C       0.2432   0.5587  0.70499     C
C       0.2568   0.0587  0.79501     C
H       0.2672   0.9925   0.8096     H
C       0.2719   0.6676  0.29343     C
S      0.27207  0.24797   0.7948     S
S      0.29854  0.55461  0.25008     S
C       0.3008   0.1774  0.13186     C
O        0.301  0.26129  0.10139     O
H       0.3102   0.8092   0.2626     H
C       0.3114  0.13606  0.83909     C
C       0.3158   0.6903  0.78303     C
C       0.3161   0.7427  0.24855     C
C       0.3167   0.5907  0.77467     C
O      0.35631  0.10059  0.10671     O
H       0.3611    0.548    0.811     H
C       0.3709  0.60942  0.17139     C
C        0.372   0.7093  0.17833     C
C        0.377   0.7489  0.85103     C
O       0.3774  0.84113  0.84505     O
O       0.3864  0.46066  0.10148     O
C       0.3914  0.12987   0.9152     C
H       0.4061   0.7515   0.1407     H
Mg     0.40775  0.34378   0.0257    Mg
C       0.4182  0.54935  0.10365     C
O      0.42062  0.20499  0.95628     O
O        0.423   0.7032  0.91147     O
O      0.43307  0.04549  0.93882     O
Mg      0.4707  0.89711  0.94875    Mg
O       0.4845  0.59248  0.05543     O
O       0.5155  0.40752  0.94457     O
Mg      0.5293  0.10289  0.05125    Mg
O      0.56693  0.95451  0.06118     O
O        0.577   0.2968  0.08853     O
O      0.57938  0.79501  0.04372     O
C       0.5818  0.45065  0.89635     C
Mg     0.59225  0.65622   0.9743    Mg
H       0.5939   0.2485   0.8593     H
C       0.6086  0.87013   0.0848     C
O       0.6136  0.53934  0.89852     O
O       0.6226  0.15887  0.15495     O
C        0.623   0.2511  0.14897     C
C        0.628   0.2907  0.82167     C
C       0.6291  0.39058  0.82861     C
H       0.6389    0.452    0.189     H
O      0.64369  0.89941  0.89329     O
C       0.6833   0.4093  0.22533     C
C       0.6839   0.2573  0.75145     C
C       0.6842   0.3097  0.21697     C
C       0.6886  0.86394  0.16091     C
H       0.6898   0.1908   0.7374     H
O        0.699  0.73871  0.89861     O
C       0.6992   0.8226  0.86814     C
S      0.70146  0.44539  0.74992     S
S      0.72793  0.75203   0.2052     S
C       0.7281   0.3324  0.70657     C
H       0.7328   0.0075   0.1904     H
C       0.7432   0.9413  0.20499     C
C       0.7568   0.4413  0.29501     C
H       0.7672   0.5075   0.3096     H
C       0.7719   0.8324  0.79343     C
S      0.77207  0.25203   0.2948     S
S      0.79854  0.94539  0.75008     S
C       0.8008   0.3226  0.63186     C
O        0.801  0.23871  0.60139     O
H       0.8102   0.6908   0.7626     H
C       0.8114  0.36394  0.33909     C
C       0.8158   0.8097  0.28303     C
C       0.8161   0.7573  0.74855     C
C       0.8167   0.9093  0.27467     C
O      0.85631  0.39941  0.60671     O
H       0.8611    0.952    0.311     H
C       0.8709  0.89058  0.67139     C
C        0.872   0.7907  0.67833     C
C        0.877   0.7511  0.35103     C
O       0.8774  0.65887  0.34505     O
O       0.8864  0.03934  0.60148     O
C       0.8914  0.37013   0.4152     C
H       0.9061   0.7485   0.6407     H
Mg     0.90775  0.15622   0.5257    Mg
C       0.9182  0.95065  0.60365     C
O      0.92062  0.29501  0.45628     O
O        0.923   0.7968  0.41147     O
O      0.93307  0.45451  0.43882     O
Mg      0.9707  0.60289  0.44875    Mg
O       0.9845  0.90752  0.55543     O
