data_I
_chemical_name_common  '/home/zhangsd/repos/MofS-CGCNN/ML/data/TSD/clean_cifs/QABKIQ_clean'
_cell_length_a 10.50140
_cell_length_b 10.50140
_cell_length_c 21.47000
_cell_angle_alpha 90.00000
_cell_angle_beta  90.00000
_cell_angle_gamma 90.00000
_space_group_name_H-M_alt      'P 1'


loop_
_space_group_symop_operation_xyz
  'x, y, z' 

loop_
_atom_site_label
_atom_site_fract_x
_atom_site_fract_y
_atom_site_fract_z
_atom_site_type_symbol
N          0.0     0.25    0.022     N
Li         0.0     0.25    0.125    Li
N          0.0     0.25    0.228     N
C          0.0     0.25  0.28144     C
P          0.0     0.25  0.36727     P
F          0.0     0.25  0.44076     F
F          0.0     0.25  0.80924     F
P          0.0     0.25  0.88273     P
C          0.0     0.25  0.96856     C
C          0.0     0.75  0.03144     C
P          0.0     0.75  0.11727     P
F          0.0     0.75  0.19076     F
F          0.0     0.75  0.55924     F
P          0.0     0.75  0.63273     P
C          0.0     0.75  0.71856     C
N          0.0     0.75    0.772     N
Li         0.0     0.75    0.875    Li
N          0.0     0.75    0.978     N
C      0.00333  0.42594  0.88199     C
C      0.00333  0.92594  0.11801     C
F      0.00346  0.40117  0.36558     F
F      0.00346  0.90117  0.63442     F
N       0.0052  0.03515  0.11981     N
N       0.0052  0.53515  0.88019     N
F      0.15117  0.24654  0.88442     F
F      0.15117  0.74654  0.11558     F
C      0.17594  0.24667  0.36801     C
C      0.17594  0.74667  0.63199     C
N      0.21485   0.2552  0.13019     N
N      0.21485   0.7552  0.86981     N
N      0.28515   0.2448  0.36981     N
N      0.28515   0.7448  0.63019     N
C      0.32406  0.25333  0.13199     C
C      0.32406  0.75333  0.86801     C
F      0.34883  0.25346  0.61558     F
F      0.34883  0.75346  0.38442     F
N       0.4948  0.46485  0.38019     N
N       0.4948  0.96485  0.61981     N
F      0.49654  0.09883  0.13442     F
F      0.49654  0.59883  0.86558     F
C      0.49667  0.07406  0.61801     C
C      0.49667  0.57406  0.38199     C
F          0.5     0.25  0.05924     F
P          0.5     0.25  0.13273     P
C          0.5     0.25  0.21856     C
N          0.5     0.25    0.272     N
Li         0.5     0.25    0.375    Li
N          0.5     0.25    0.478     N
C          0.5     0.25  0.53144     C
P          0.5     0.25  0.61727     P
F          0.5     0.25  0.69076     F
F          0.5     0.75  0.30924     F
P          0.5     0.75  0.38273     P
C          0.5     0.75  0.46856     C
N          0.5     0.75    0.522     N
Li         0.5     0.75    0.625    Li
N          0.5     0.75    0.728     N
C          0.5     0.75  0.78144     C
P          0.5     0.75  0.86727     P
F          0.5     0.75  0.94076     F
C      0.50333  0.42594  0.61801     C
C      0.50333  0.92594  0.38199     C
F      0.50346  0.40117  0.13442     F
F      0.50346  0.90117  0.86558     F
N       0.5052  0.03515  0.38019     N
N       0.5052  0.53515  0.61981     N
F      0.65117  0.24654  0.61558     F
F      0.65117  0.74654  0.38442     F
C      0.67594  0.24667  0.13199     C
C      0.67594  0.74667  0.86801     C
N      0.71485   0.2552  0.36981     N
N      0.71485   0.7552  0.63019     N
N      0.78515   0.2448  0.13019     N
N      0.78515   0.7448  0.86981     N
C      0.82406  0.25333  0.36801     C
C      0.82406  0.75333  0.63199     C
F      0.84883  0.25346  0.88442     F
F      0.84883  0.75346  0.11558     F
N       0.9948  0.46485  0.11981     N
N       0.9948  0.96485  0.88019     N
F      0.99654  0.09883  0.36558     F
F      0.99654  0.59883  0.63442     F
C      0.99667  0.07406  0.88199     C
C      0.99667  0.57406  0.11801     C
