data_I
_chemical_name_common  '/home/zhangsd/repos/MofS-CGCNN/ML/data/TSD/clean_cifs/QADWEA_clean'
_cell_length_a  9.75580
_cell_length_b 10.55490
_cell_length_c 16.51110
_cell_angle_alpha 90.00000
_cell_angle_beta  112.44700
_cell_angle_gamma 90.00000
_space_group_name_H-M_alt      'P 1'


loop_
_space_group_symop_operation_xyz
  'x, y, z' 

loop_
_atom_site_label
_atom_site_fract_x
_atom_site_fract_y
_atom_site_fract_z
_atom_site_type_symbol
O       0.0391   0.7457  0.28961     O
O       0.0391   0.7543  0.78961     O
H       0.0418   0.1648   0.8847     H
H       0.0418   0.3352   0.3847     H
O       0.0602   0.0407  0.28972     O
O       0.0602   0.4593  0.78972     O
O       0.0618   0.0908   0.5946     O
O       0.0618   0.4092   0.0946     O
C        0.067   0.0724   0.1292     C
C        0.067   0.4276   0.6292     C
C       0.0717   0.0327   0.5319     C
C       0.0717   0.4673   0.0319     C
P      0.07484  0.14356  0.23056     P
P      0.07484  0.35644  0.73056     P
C       0.0789   0.5165   0.4232     C
C       0.0789   0.9835   0.9232     C
H       0.0904   0.1364   0.0943     H
H       0.0904   0.3636   0.5943     H
C       0.1126   0.1098   0.9216     C
C       0.1126   0.3902   0.4216     C
H       0.1421   0.0068   0.1426     H
H       0.1421   0.4932   0.6426     H
O        0.156   0.7166   0.4822     O
O        0.156   0.7834   0.9822     O
Eu     0.17947  0.61176  0.89335    Eu
Eu     0.17947  0.88824  0.39335    Eu
N       0.1856   0.5947   0.4773     N
N       0.1856   0.9053   0.9773     N
O       0.1858   0.0196   0.5153     O
O       0.1858   0.4804   0.0153     O
O       0.2346   0.2043   0.2702     O
O       0.2346   0.2957   0.7702     O
C       0.2505   0.1559   0.9742     C
C       0.2505   0.3441   0.4742     C
H       0.2725   0.2414   0.9729     H
H       0.2725   0.2586   0.4729     H
H       0.2862   0.1643   0.3138     H
H       0.2862   0.3357   0.8138     H
C       0.3214    0.551   0.5291     C
C       0.3214    0.949   0.0291     C
C       0.3538   0.0752    0.028     C
C       0.3538   0.4248    0.528     C
O       0.3605   0.0592  0.40711     O
O       0.3605   0.4408  0.90711     O
H       0.3926   0.6064   0.5654     H
H       0.3926   0.8936   0.0654     H
O       0.4265   0.6482   0.0068     O
O       0.4265   0.8518   0.5068     O
H       0.4466   0.1056    0.064     H
H       0.4466   0.3944    0.564     H
C       0.4823   0.0599   0.4716     C
C       0.4823   0.4401   0.9716     C
C       0.5177   0.5599   0.0284     C
C       0.5177   0.9401   0.5284     C
H       0.5534   0.6056    0.436     H
H       0.5534   0.8944    0.936     H
O       0.5735   0.1482   0.4932     O
O       0.5735   0.3518   0.9932     O
H       0.6074   0.1064   0.9346     H
H       0.6074   0.3936   0.4346     H
O       0.6395   0.5592  0.09289     O
O       0.6395   0.9408  0.59289     O
C       0.6462   0.5752    0.472     C
C       0.6462   0.9248    0.972     C
C       0.6786    0.051   0.9709     C
C       0.6786    0.449   0.4709     C
H       0.7138   0.6643   0.1862     H
H       0.7138   0.8357   0.6862     H
H       0.7275   0.7414   0.5271     H
H       0.7275   0.7586   0.0271     H
C       0.7495   0.6559   0.5258     C
C       0.7495   0.8441   0.0258     C
O       0.7654   0.7043   0.2298     O
O       0.7654   0.7957   0.7298     O
O       0.8142   0.5196   0.9847     O
O       0.8142   0.9804   0.4847     O
N       0.8144   0.0947   0.0227     N
N       0.8144   0.4053   0.5227     N
Eu     0.82053  0.11176  0.60665    Eu
Eu     0.82053  0.38824  0.10665    Eu
O        0.844   0.2166   0.0178     O
O        0.844   0.2834   0.5178     O
H       0.8579   0.5068   0.3574     H
H       0.8579   0.9932   0.8574     H
C       0.8874   0.6098   0.5784     C
C       0.8874   0.8902   0.0784     C
H       0.9096   0.6364   0.4057     H
H       0.9096   0.8636   0.9057     H
C       0.9211   0.0165   0.0768     C
C       0.9211   0.4835   0.5768     C
P      0.92516  0.64356  0.26944     P
P      0.92516  0.85644  0.76944     P
C       0.9283   0.5327   0.9681     C
C       0.9283   0.9673   0.4681     C
C        0.933   0.5724   0.3708     C
C        0.933   0.9276   0.8708     C
O       0.9382   0.5908   0.9054     O
O       0.9382   0.9092   0.4054     O
O       0.9398   0.5407  0.21028     O
O       0.9398   0.9593  0.71028     O
H       0.9582   0.6648   0.6153     H
H       0.9582   0.8352   0.1153     H
O       0.9609   0.2457  0.21039     O
O       0.9609   0.2543  0.71039     O
