data_I
_chemical_name_common  '/home/zhangsd/repos/MofS-CGCNN/ML/data/TSD/clean_cifs/QADWEY_clean'
_cell_length_a 15.10850
_cell_length_b  8.84030
_cell_length_c 17.26280
_cell_angle_alpha 90.00000
_cell_angle_beta  114.53700
_cell_angle_gamma 90.00000
_space_group_name_H-M_alt      'P 1'


loop_
_space_group_symop_operation_xyz
  'x, y, z' 

loop_
_atom_site_label
_atom_site_fract_x
_atom_site_fract_y
_atom_site_fract_z
_atom_site_type_symbol
Zn     0.01457  0.08024  0.27667    Zn
Zn     0.01457  0.91976  0.77667    Zn
P       0.0166   0.3189  0.41565     P
P       0.0166   0.6811  0.91565     P
O       0.0257   0.2715   0.3349     O
O       0.0257   0.7285   0.8349     O
O       0.0481   0.0916   0.8543     O
O       0.0481   0.9084   0.3543     O
H       0.0496   0.4669   0.8988     H
H       0.0496   0.5331   0.3988     H
O       0.0625    0.213   0.4902     O
O       0.0625    0.787   0.9902     O
O       0.0737   0.4741   0.4388     O
O       0.0737   0.5259   0.9388     O
O       0.0791   0.0648    0.201     O
O       0.0791   0.9352    0.701     O
H       0.1159   0.3153   0.9619     H
H       0.1159   0.6847   0.4619     H
O       0.1485   0.2402   0.9839     O
O       0.1485   0.7598   0.4839     O
P      0.15288   0.1333  0.91213     P
P      0.15288   0.8667  0.41213     P
O        0.161   0.0573   0.1038     O
O        0.161   0.9427   0.6038     O
P      0.17099   0.1137  0.19112     P
P      0.17099   0.8863  0.69112     P
O       0.1842   0.2833   0.1959     O
O       0.1842   0.7167   0.6959     O
Zn     0.19028  0.11151  0.54451    Zn
Zn     0.19028  0.88849  0.04451    Zn
O       0.1977   0.2258   0.8629     O
O       0.1977   0.7742   0.3629     O
H       0.2044   0.4317   0.1359     H
H       0.2044   0.5683   0.6359     H
O       0.2067   0.4957   0.6072     O
O       0.2067   0.5043   0.1072     O
O       0.2136   0.0044   0.4549     O
O       0.2136   0.9956   0.9549     O
O       0.2588   0.3271   0.7347     O
O       0.2588   0.6729   0.2347     O
O       0.2606   0.0409   0.2624     O
O       0.2606   0.9591   0.7624     O
Zn     0.28325  0.15857  0.81074    Zn
Zn     0.28325  0.84143  0.31074    Zn
P      0.28723   0.3807  0.66538     P
P      0.28723   0.6193  0.16538     P
O       0.2885   0.2524   0.6061     O
O       0.2885   0.7476   0.1061     O
O       0.3817   0.4666   0.6996     O
O       0.3817   0.5334   0.1996     O
O        0.412   0.1504   0.9005     O
O        0.412   0.8496   0.4005     O
Zn     0.51457  0.41976  0.77667    Zn
Zn     0.51457  0.58024  0.27667    Zn
P       0.5166   0.1811  0.91565     P
P       0.5166   0.8189  0.41565     P
O       0.5257   0.2285   0.8349     O
O       0.5257   0.7715   0.3349     O
O       0.5481   0.4084   0.3543     O
O       0.5481   0.5916   0.8543     O
H       0.5496   0.0331   0.3988     H
H       0.5496   0.9669   0.8988     H
O       0.5625    0.287   0.9902     O
O       0.5625    0.713   0.4902     O
O       0.5737   0.0259   0.9388     O
O       0.5737   0.9741   0.4388     O
O       0.5791   0.4352    0.701     O
O       0.5791   0.5648    0.201     O
H       0.6159   0.1847   0.4619     H
H       0.6159   0.8153   0.9619     H
O       0.6485   0.2598   0.4839     O
O       0.6485   0.7402   0.9839     O
P      0.65288   0.3667  0.41213     P
P      0.65288   0.6333  0.91213     P
O        0.661   0.4427   0.6038     O
O        0.661   0.5573   0.1038     O
P      0.67099   0.3863  0.69112     P
P      0.67099   0.6137  0.19112     P
O       0.6842   0.2167   0.6959     O
O       0.6842   0.7833   0.1959     O
Zn     0.69028  0.38849  0.04451    Zn
Zn     0.69028  0.61151  0.54451    Zn
O       0.6977   0.2742   0.3629     O
O       0.6977   0.7258   0.8629     O
H       0.7044   0.0683   0.6359     H
H       0.7044   0.9317   0.1359     H
O       0.7067   0.0043   0.1072     O
O       0.7067   0.9957   0.6072     O
O       0.7136   0.4956   0.9549     O
O       0.7136   0.5044   0.4549     O
O       0.7588   0.1729   0.2347     O
O       0.7588   0.8271   0.7347     O
O       0.7606   0.4591   0.7624     O
O       0.7606   0.5409   0.2624     O
Zn     0.78325  0.34143  0.31074    Zn
Zn     0.78325  0.65857  0.81074    Zn
P      0.78723   0.1193  0.16538     P
P      0.78723   0.8807  0.66538     P
O       0.7885   0.2476   0.1061     O
O       0.7885   0.7524   0.6061     O
O       0.8817   0.0334   0.1996     O
O       0.8817   0.9666   0.6996     O
O        0.912   0.3496   0.4005     O
O        0.912   0.6504   0.9005     O
