data_I
_chemical_name_common  '/home/zhangsd/repos/MofS-CGCNN/ML/data/TSD/clean_cifs/QADWOK_clean'
_cell_length_a  9.72840
_cell_length_b 10.47170
_cell_length_c 16.45940
_cell_angle_alpha 90.00000
_cell_angle_beta  112.51100
_cell_angle_gamma 90.00000
_space_group_name_H-M_alt      'P 1'


loop_
_space_group_symop_operation_xyz
  'x, y, z' 

loop_
_atom_site_label
_atom_site_fract_x
_atom_site_fract_y
_atom_site_fract_z
_atom_site_type_symbol
O       0.0404   0.7499  0.79007     O
O       0.0404   0.7501  0.29007     O
H       0.0444   0.1628   0.8861     H
H       0.0444   0.3372   0.3861     H
O         0.06   0.0452  0.29084     O
O         0.06   0.4548  0.79084     O
O       0.0626   0.0877  0.59669     O
O       0.0626   0.4123  0.09669     O
C       0.0677   0.0756   0.1297     C
C       0.0677   0.4244   0.6297     C
C       0.0716   0.0317   0.5327     C
C       0.0716   0.4683   0.0327     C
P      0.07489  0.14779  0.23106     P
P      0.07489  0.35221  0.73106     P
C       0.0793   0.5206    0.424     C
C       0.0793   0.9794    0.924     C
H       0.0929   0.1397   0.0951     H
H       0.0929   0.3603   0.5951     H
C       0.1147   0.1066    0.923     C
C       0.1147   0.3934    0.423     C
H       0.1421   0.0087   0.1436     H
H       0.1421   0.4913   0.6436     H
O       0.1542   0.7221  0.48224     O
O       0.1542   0.7779  0.98224     O
Tb     0.17873  0.60748  0.89314    Tb
Tb     0.17873  0.89252  0.39314    Tb
N       0.1854   0.5994   0.4778     N
N       0.1854   0.9006   0.9778     N
O       0.1857   0.0202   0.5153     O
O       0.1857   0.4798   0.0153     O
O       0.2349   0.2092    0.271     O
O       0.2349   0.2908    0.771     O
C       0.2536   0.1516   0.9762     C
C       0.2536   0.3484   0.4762     C
H       0.2763   0.2376    0.975     H
H       0.2763   0.2624    0.475     H
H       0.2867   0.1691   0.3148     H
H       0.2867   0.3309   0.8148     H
C       0.3216   0.5573   0.5309     C
C       0.3216   0.9427   0.0309     C
C       0.3566   0.0702   0.0301     C
C       0.3566   0.4298   0.5301     C
O       0.3593   0.0633   0.4083     O
O       0.3593   0.4367   0.9083     O
H       0.3913    0.614   0.5677     H
H       0.3913    0.886   0.0677     H
O       0.4238   0.6487   0.0052     O
O       0.4238   0.8513   0.5052     O
H       0.4501   0.1001   0.0663     H
H       0.4501   0.3999   0.5663     H
C       0.4823   0.0613   0.4726     C
C       0.4823   0.4387   0.9726     C
C       0.5177   0.5613   0.0274     C
C       0.5177   0.9387   0.5274     C
H       0.5499   0.6001   0.4337     H
H       0.5499   0.8999   0.9337     H
O       0.5762   0.1487   0.4948     O
O       0.5762   0.3513   0.9948     O
H       0.6087    0.114   0.9323     H
H       0.6087    0.386   0.4323     H
O       0.6407   0.5633   0.0917     O
O       0.6407   0.9367   0.5917     O
C       0.6434   0.5702   0.4699     C
C       0.6434   0.9298   0.9699     C
C       0.6784   0.0573   0.9691     C
C       0.6784   0.4427   0.4691     C
H       0.7133   0.6691   0.1852     H
H       0.7133   0.8309   0.6852     H
H       0.7237   0.7376    0.525     H
H       0.7237   0.7624    0.025     H
C       0.7464   0.6516   0.5238     C
C       0.7464   0.8484   0.0238     C
O       0.7651   0.7092    0.229     O
O       0.7651   0.7908    0.729     O
O       0.8143   0.5202   0.9847     O
O       0.8143   0.9798   0.4847     O
N       0.8146   0.0994   0.0222     N
N       0.8146   0.4006   0.5222     N
Tb     0.82127  0.10748  0.60686    Tb
Tb     0.82127  0.39252  0.10686    Tb
O       0.8458   0.2221  0.01776     O
O       0.8458   0.2779  0.51776     O
H       0.8579   0.5087   0.3564     H
H       0.8579   0.9913   0.8564     H
C       0.8853   0.6066    0.577     C
C       0.8853   0.8934    0.077     C
H       0.9071   0.6397   0.4049     H
H       0.9071   0.8603   0.9049     H
C       0.9207   0.0206    0.076     C
C       0.9207   0.4794    0.576     C
P      0.92511  0.64779  0.26894     P
P      0.92511  0.85221  0.76894     P
C       0.9284   0.5317   0.9673     C
C       0.9284   0.9683   0.4673     C
C       0.9323   0.5756   0.3703     C
C       0.9323   0.9244   0.8703     C
O       0.9374   0.5877  0.90331     O
O       0.9374   0.9123  0.40331     O
O         0.94   0.5452  0.20916     O
O         0.94   0.9548  0.70916     O
H       0.9556   0.6628   0.6139     H
H       0.9556   0.8372   0.1139     H
O       0.9596   0.2499  0.70993     O
O       0.9596   0.2501  0.20993     O
