data_I
_chemical_name_common  '/home/zhangsd/repos/MofS-CGCNN/ML/data/TSD/clean_cifs/QADWIE_clean'
_cell_length_a  9.73060
_cell_length_b 10.53000
_cell_length_c 16.41600
_cell_angle_alpha 90.00000
_cell_angle_beta  112.13000
_cell_angle_gamma 90.00000
_space_group_name_H-M_alt      'P 1'


loop_
_space_group_symop_operation_xyz
  'x, y, z' 

loop_
_atom_site_label
_atom_site_fract_x
_atom_site_fract_y
_atom_site_fract_z
_atom_site_type_symbol
O       0.0385   0.7463  0.28952     O
O       0.0385   0.7537  0.78952     O
H       0.0489   0.1668   0.8844     H
H       0.0489   0.3332   0.3844     H
O       0.0619    0.091  0.59524     O
O       0.0619    0.409  0.09524     O
O        0.062    0.042  0.29066     O
O        0.062    0.458  0.79066     O
C        0.066   0.0714    0.128     C
C        0.066   0.4286    0.628     C
C       0.0715   0.0326    0.532     C
C       0.0715   0.4674    0.032     C
P      0.07588  0.14354  0.23021     P
P      0.07588  0.35646  0.73021     P
C       0.0817   0.5171    0.424     C
C       0.0817   0.9829    0.924     C
H       0.0903   0.1349   0.0928     H
H       0.0903   0.3651   0.5928     H
C       0.1183   0.1109   0.9217     C
C       0.1183   0.3891   0.4217     C
H       0.1398   0.0046    0.141     H
H       0.1398   0.4954    0.641     H
O       0.1546   0.7179  0.48293     O
O       0.1546   0.7821  0.98293     O
Gd     0.18022  0.61196  0.89342    Gd
Gd     0.18022  0.88804  0.39342    Gd
O       0.1857   0.0206  0.51459     O
O       0.1857   0.4794  0.01459     O
N       0.1867   0.5962   0.4785     N
N       0.1867   0.9038   0.9785     N
O       0.2371   0.2032  0.26798     O
O       0.2371   0.2968  0.76798     O
C       0.2558   0.1542   0.9743     C
C       0.2558   0.3458   0.4743     C
H       0.2798   0.2394   0.9724     H
H       0.2798   0.2606   0.4724     H
H        0.284    0.173   0.3166     H
H        0.284    0.327   0.8166     H
C       0.3229   0.5539   0.5307     C
C       0.3229   0.9461   0.0307     C
C       0.3579   0.0729   0.0295     C
C       0.3579   0.4271   0.5295     C
O       0.3627   0.0568  0.40512     O
O       0.3627   0.4432  0.90512     O
H       0.3926   0.6102   0.5673     H
H       0.3926   0.8898   0.0673     H
O       0.4262    0.648  0.00717     O
O       0.4262    0.852  0.50717     O
H       0.4506   0.1028   0.0661     H
H       0.4506   0.3972   0.5661     H
C       0.4835   0.0601   0.4709     C
C       0.4835   0.4399   0.9709     C
C       0.5165   0.5601   0.0291     C
C       0.5165   0.9399   0.5291     C
H       0.5494   0.6028   0.4339     H
H       0.5494   0.8972   0.9339     H
O       0.5738    0.148  0.49283     O
O       0.5738    0.352  0.99283     O
H       0.6074   0.1102   0.9327     H
H       0.6074   0.3898   0.4327     H
O       0.6373   0.5568  0.09488     O
O       0.6373   0.9432  0.59488     O
C       0.6421   0.5729   0.4705     C
C       0.6421   0.9271   0.9705     C
C       0.6771   0.0539   0.9693     C
C       0.6771   0.4461   0.4693     C
H        0.716    0.673   0.1834     H
H        0.716    0.827   0.6834     H
H       0.7202   0.7394   0.5276     H
H       0.7202   0.7606   0.0276     H
C       0.7442   0.6542   0.5257     C
C       0.7442   0.8458   0.0257     C
O       0.7629   0.7032  0.23202     O
O       0.7629   0.7968  0.73202     O
N       0.8133   0.0962   0.0215     N
N       0.8133   0.4038   0.5215     N
O       0.8143   0.5206  0.98541     O
O       0.8143   0.9794  0.48541     O
Gd     0.81978  0.11196  0.60658    Gd
Gd     0.81978  0.38804  0.10658    Gd
O       0.8454   0.2179  0.01707     O
O       0.8454   0.2821  0.51707     O
H       0.8602   0.5046    0.359     H
H       0.8602   0.9954    0.859     H
C       0.8817   0.6109   0.5783     C
C       0.8817   0.8891   0.0783     C
H       0.9097   0.6349   0.4072     H
H       0.9097   0.8651   0.9072     H
C       0.9183   0.0171    0.076     C
C       0.9183   0.4829    0.576     C
P      0.92412  0.64354  0.26979     P
P      0.92412  0.85646  0.76979     P
C       0.9285   0.5326    0.968     C
C       0.9285   0.9674    0.468     C
C        0.934   0.5714    0.372     C
C        0.934   0.9286    0.872     C
O        0.938    0.542  0.20934     O
O        0.938    0.958  0.70934     O
O       0.9381    0.591  0.90476     O
O       0.9381    0.909  0.40476     O
H       0.9511   0.6668   0.6156     H
H       0.9511   0.8332   0.1156     H
O       0.9615   0.2463  0.21048     O
O       0.9615   0.2537  0.71048     O
