data_I
_chemical_name_common  '/home/zhangsd/repos/MofS-CGCNN/ML/data/TSD/clean_cifs/QAQNOO_clean'
_cell_length_a 19.69930
_cell_length_b 19.69930
_cell_length_c 29.29830
_cell_angle_alpha 90.00000
_cell_angle_beta  90.00000
_cell_angle_gamma 120.00000
_space_group_name_H-M_alt      'P 1'


loop_
_space_group_symop_operation_xyz
  'x, y, z' 

loop_
_atom_site_label
_atom_site_fract_x
_atom_site_fract_y
_atom_site_fract_z
_atom_site_type_symbol
N       0.0013   0.4034  0.08213     N
H       0.0089   0.6788  0.28907     H
H       0.0156   0.3955  0.01843     H
O       0.0167   0.5081   0.5054     O
H       0.0176   0.6935  0.58473     H
H       0.0192   0.5719    0.391     H
H         0.02   0.7413  0.95333     H
C        0.024    0.392  0.62403     C
C        0.025     0.65  0.57373     C
C        0.027    0.676   0.4012     C
Ni     0.02843  0.51195   0.0937    Ni
H       0.0346   0.3477  0.62223     H
H       0.0352   0.6185  0.63863     H
H       0.0417   0.4131  0.56243     H
H       0.0456   0.7856   0.4257     H
C       0.0458    0.619    0.408     C
H        0.049   0.3531  0.11283     H
N       0.0549   0.6307  0.09993     N
H       0.0549   0.6655  0.54503     H
C         0.06    0.747   0.4288     C
H       0.0601   0.6562  0.93183     H
H       0.0621   0.5373  0.66873     H
C        0.064    0.626  0.60953     C
H       0.0641   0.6659  0.16103     H
C        0.065    0.745  0.96843     C
C        0.067    0.406  0.10023     C
N       0.0709   0.5605  0.60343     N
O       0.0777   0.5459  0.02773     O
H        0.084   0.8399  0.00683     H
H       0.0853    0.657  0.07173     H
C        0.086   0.5231   0.4965     C
C        0.087    0.692  0.95623     C
H       0.0932   0.5213   0.4238     H
C        0.097    0.544  0.64303     C
C        0.097    0.677  0.13373     C
H       0.0978    0.449  0.16713     H
C          0.1    0.469  0.63463     C
C       0.1004    0.803  0.00063     C
H       0.1008   0.4117  0.07383     H
C       0.1032   0.6288   0.4394     C
H       0.1134   0.5753  0.58033     H
H       0.1167   0.7324  0.12483     H
C       0.1167   0.7527   0.4608     C
H       0.1173   0.6708  0.61403     H
C       0.1201    0.562   0.4479     C
C       0.1225    0.464  0.13643     C
H       0.1239   0.4598  0.66193     H
H       0.1328   0.5693  0.18763     H
H       0.1329   0.5931  0.94323     H
O        0.133   0.5116   0.5202     O
N       0.1341   0.5358  0.12383     N
H       0.1363   0.4792  0.60883     H
C       0.1393   0.6961   0.4646     C
H         0.14   0.7969   0.4805     H
C       0.1432   0.6891  0.97813     C
C       0.1466   0.5786  0.01163     C
H       0.1507   0.5879  0.65053     H
H       0.1579   0.3446   0.7112     H
C       0.1592   0.8035  0.02183     C
H       0.1601   0.2441   0.6735     H
C       0.1647   0.6269  0.96923     C
C        0.165    0.591  0.16003     C
C        0.169    0.669  0.14633     C
H       0.1724   0.4637  0.13713     H
H       0.1742   0.5553  0.09903     H
H       0.1803   0.7045   0.4849     H
C        0.183   0.7472  0.01193     C
H       0.1867   0.8421  0.04453     H
H       0.1947   0.7051  0.17223     H
C       0.1965   0.3557   0.6885     C
C        0.197   0.2974   0.6673     C
N       0.2024   0.5858    0.448     N
O       0.2025   0.5729  0.03153     O
H       0.2031   0.3431  0.14717     H
H       0.2052   0.6897  0.12043     H
H       0.2144     0.26  0.09237     H
H       0.2191   0.6019  0.16733     H
H       0.2257   0.7489  0.02803     H
O       0.2382   0.6351   0.3745     O
Cu     0.24382   0.5653  0.50181    Cu
H       0.2441   0.1601   0.3265     H
C       0.2473    0.364  0.12747     C
N       0.2492   0.6594  0.95973     N
C        0.251   0.6171   0.4136     C
H       0.2511   0.4768   0.6947     H
C       0.2528   0.4358   0.6786     C
C        0.253    0.313  0.09547     C
O       0.2538   0.7095  0.88863     O
C        0.255     0.32   0.6351     C
O       0.2575   0.6657   0.5527     O
H       0.2587   0.2787     0.62     H
H         0.26   0.2144  0.90763     H
H       0.2676   0.3843   0.7915     H
O       0.2712   0.6553  0.79993     O
O       0.2741   0.6149  0.72893     O
H       0.2787   0.2587     0.38     H
C       0.2839   0.6922  0.92333     C
C        0.285   0.6567    0.587     C
O       0.2905   0.5443   0.5553     O
H       0.2913   0.8276  0.47047     H
H       0.2949   0.4896   0.8389     H
H       0.2955   0.4758  0.15157     H
O       0.2968   0.6065  0.28997     O
C       0.2974    0.197   0.3327     C
C        0.298   0.6643  0.75863     C
C       0.3039   0.4432  0.13127     C
H       0.3041    0.951  0.44617     H
H       0.3065   0.3241   0.2514     H
C       0.3078   0.5917     0.59     C
C        0.308    0.395   0.6229     C
Cu     0.30825   0.6369  0.00266    Cu
O       0.3097   0.7032   0.6233     O
H       0.3103   0.5155   0.7871     H
C       0.3109   0.4541   0.6448     C
H       0.3109   0.8992  0.40717     H
C        0.313    0.253  0.90453     C
H       0.3131   0.9654  0.95557     H
C         0.32    0.255   0.3649     C
H       0.3212   0.3301  0.95573     H
Cu     0.32148  0.75618  0.83514    Cu
C        0.323     0.42   0.8004     C
C        0.324    0.351  0.06787     C
H       0.3241   0.3065   0.7486     H
Cu     0.32865  0.69175    0.336    Cu
H       0.3292   0.4465   0.2807     H
H       0.3301   0.3212  0.04427     H
C        0.331      0.5    0.813     C
H       0.3341   0.3982   0.8277     H
O       0.3343   0.5918  0.21937     O
H       0.3345   0.3894   0.2117     H
C       0.3357   0.6337   0.4253     C
H       0.3359   0.8761  0.99527     H
C        0.339    0.933  0.43357     C
N       0.3406   0.5898   0.6264     N
O       0.3408   0.7259  0.06227     O
C       0.3415   0.8775  0.46977     C
H       0.3429   0.8637  0.94217     H
H        0.343   0.4283   0.7384     H
H       0.3431   0.2031  0.85283     H
C       0.3433   0.6283  0.25367     C
H       0.3438   0.4039   0.5985     H
H       0.3446   0.1579   0.2888     H
O       0.3447   0.6159   0.4666     O
H       0.3477   0.0346  0.37777     H
C         0.35    0.375   0.2404     C
C        0.351    0.324  0.93213     C
H       0.3512   0.9022  0.50047     H
H       0.3531    0.049  0.88717     H
C       0.3557   0.1965   0.3115     C
Cu      0.3631  0.67135  0.66933    Cu
C        0.364   0.2473  0.87253     C
O       0.3649   0.6031  0.04117     O
C       0.3661    0.749  0.74693     C
C       0.3663    0.702  0.09197     C
C        0.368    0.976  0.95737     C
C        0.369      0.9  0.96797     C
N       0.3693   0.4242   0.7666     N
O       0.3704   0.7975  0.36487     O
C       0.3712   0.4744  0.10607     C
H       0.3714   0.9583  0.89577     H
C       0.3717    0.715  0.92033     C
C       0.3731   0.5378   0.6359     C
C        0.374    0.438   0.2762     C
C        0.375     0.35   0.7596     C
O       0.3786    0.867  0.85353     O
H       0.3799   0.9844  0.35177     H
C        0.381   0.4268  0.07467     C
H       0.3811   0.8258  0.43237     H
H       0.3815   0.4167   0.3053     H
H       0.3828   0.7809  0.50067     H
C       0.3829   0.6339  0.08027     C
N       0.3834   0.7976  0.78133     N
O       0.3841   0.7288  0.13327     O
H       0.3843   0.2676   0.2085     H
O       0.3851   0.6592   0.3956     O
H       0.3894   0.3345   0.7883     H
C        0.392    0.024  0.37597     C
O       0.3935   0.6903  0.95663     O
C        0.395    0.308   0.3771     C
H       0.3955   0.0156  0.98157     H
O       0.3969   0.7618  0.70783     O
H       0.3981   0.6172    0.834     H
H       0.3982   0.3341   0.1723     H
N       0.4017   0.8659  0.45717     N
N       0.4021   0.9987  0.41547     N
N       0.4034   0.0013  0.91787     N
H       0.4039   0.3438   0.4015     H
C        0.406    0.067  0.89977     C
H       0.4069   0.5398   0.6099     H
O       0.4082   0.7425  0.88603     O
C       0.4083   0.7161  0.25667     C
C        0.409    0.574   0.8267     C
N       0.4102   0.7508  0.29307     N
H       0.4117   0.1008  0.92617     H
H       0.4121   0.5628   0.3172     H
H       0.4131   0.0417  0.43757     H
N       0.4142   0.6166  0.11467     N
H       0.4167   0.3815   0.6947     H
C         0.42    0.323   0.1996     C
C       0.4214    0.568   0.6783     C
N       0.4242   0.3693   0.2334     N
H       0.4247   0.5381    0.247     H
C        0.426    0.835  0.49337     C
C       0.4268    0.381  0.92533     C
O       0.4271   0.6296   0.6982     O
H       0.4281   0.4473  0.05767     H
H       0.4281   0.9068  0.75713     H
H       0.4283    0.343   0.2616     H
H       0.4307   0.5635   0.8543     H
C        0.432   0.8534  0.34497     C
Cu      0.4347  0.67852  0.16848    Cu
C       0.4358   0.2528   0.3214     C
H       0.4365   0.8672  0.52097     H
C       0.4371    0.914  0.82983     C
H       0.4372   0.8493  0.98387     H
C        0.438    0.374   0.7238     C
C        0.438   0.5581  0.11457     C
N       0.4395   0.5104   0.2701     N
C       0.4419   0.8799  0.78123     C
C       0.4432   0.3039  0.86873     C
H       0.4447   0.6189   0.7657     H
H       0.4465   0.3292   0.7193     H
C        0.447    0.903  0.97637     C
H       0.4473   0.4281  0.94233     H
H        0.449   0.0978  0.83287     H
C       0.4541   0.3109   0.3552     C
O       0.4541   0.5318   0.6944     O
O       0.4557   0.7462  0.22197     O
C        0.456    0.553   0.3097     C
H       0.4598   0.1239  0.33807     H
H       0.4602   0.8671  0.27657     H
H       0.4619   0.8866  0.91367     H
C       0.4622   0.8353  0.30257     C
H       0.4627   0.5248   0.3354     H
H       0.4637   0.1724  0.86287     H
C        0.464   0.1225  0.86357     C
N       0.4642   0.5983   0.7905     N
O       0.4682   0.9223  0.36107     O
C        0.469      0.1  0.36537     C
C       0.4744   0.3712  0.89393     C
H       0.4752   0.9379  0.00207     H
H       0.4758   0.2955  0.84843     H
H       0.4768   0.2511   0.3053     H
C       0.4769   0.5629  0.16317     C
H       0.4787   0.5719  0.09047     H
H       0.4792   0.1363  0.39117     H
Ni     0.48352  0.97157  0.42704    Ni
H       0.4845   0.7948  0.45377     H
Ni     0.48805  0.51648  0.76037    Ni
O       0.4884   0.6214  0.18687     O
H       0.4896   0.2949   0.1611     H
N       0.4896   0.9291  0.93677     N
O       0.4914   0.9833  0.83873     O
O       0.4919   0.5086  0.17207     O
C          0.5    0.331    0.187     C
C          0.5    0.831  0.47967     C
O       0.5081   0.0167   0.4946     O
O       0.5086   0.4919  0.82793     O
N       0.5104   0.4395   0.7299     N
H       0.5104   0.8053  0.50557     H
O       0.5116    0.133   0.4798     O
Ni     0.51195  0.02843   0.9063    Ni
H       0.5155   0.3103   0.2129     H
Ni     0.51648  0.48805  0.23963    Ni
H       0.5208   0.6571   0.2755     H
H       0.5213   0.0932   0.5762     H
C       0.5231    0.086   0.5035     C
H       0.5232   0.7743  0.36137     H
H       0.5242   0.8197  0.81823     H
H       0.5248   0.4627   0.6646     H
C       0.5256   0.8968  0.77273     C
C        0.531    0.631   0.3013     C
O       0.5318   0.4541   0.3056     O
N       0.5358   0.1341  0.87617     N
C        0.536   0.6585   0.8031     C
H       0.5363   0.7087   0.8038     H
H       0.5373   0.0621  0.33127     H
C       0.5378   0.3731   0.3641     C
H       0.5381   0.4247    0.753     H
H       0.5398   0.4069   0.3901     H
H       0.5402   0.6641   0.3286     H
C        0.544    0.097  0.35697     C
O       0.5443   0.2905   0.4447     O
O       0.5459   0.0777  0.97227     O
C       0.5459   0.8568  0.31147     C
H        0.551   0.6488   0.8338     H
H       0.5527   0.9808  0.72433     H
C        0.553    0.456   0.6903     C
H       0.5535   0.8827  0.94737     H
H       0.5553   0.1742  0.90097     H
C       0.5568   0.8607  0.79793     C
C       0.5581    0.438  0.88543     C
N       0.5605   0.0709  0.39657     N
C        0.562   0.1201   0.5521     C
C        0.562    0.936  0.94287     C
H       0.5628   0.4121   0.6828     H
C       0.5629   0.4769  0.83683     C
H       0.5635   0.4307   0.1457     H
C       0.5642    0.817  0.34527     C
Cu      0.5653  0.24382  0.49819    Cu
C        0.568   0.4214   0.3217     C
H       0.5693   0.1328  0.81237     H
H       0.5717   0.9147  0.40507     H
H       0.5719   0.0192    0.609     H
H       0.5719   0.4787  0.90953     H
O       0.5729   0.2025  0.96847     O
C       0.5732   0.9542  0.74133     C
C        0.574    0.409   0.1733     C
H       0.5753   0.1134  0.41967     H
N       0.5758   0.9451  0.43327     N
C       0.5786   0.1466  0.98837     C
C         0.58    0.903  0.46707     C
H       0.5833   0.9648  0.97197     H
N       0.5858   0.2024    0.552     N
H       0.5869   0.6286   0.2291     H
H       0.5879   0.1507  0.34947     H
H       0.5883   0.6891   0.7405     H
N       0.5898   0.3406   0.3736     N
C        0.591    0.165  0.83997     C
C       0.5917   0.3078     0.41     C
O       0.5918   0.3343  0.78063     O
H       0.5931   0.1329  0.05677     H
C        0.594    0.661   0.7669     C
H       0.5961   0.9399  0.26517     H
N       0.5966   0.5979   0.7488     N
N       0.5979   0.5966   0.2512     N
N       0.5983   0.4642   0.2095     N
H       0.6018   0.9359  0.49437     H
H       0.6019   0.2191  0.83267     H
O       0.6031   0.3649  0.95883     O
H       0.6045   0.6201   0.6851     H
C        0.605    0.913  0.28957     C
O       0.6065   0.2968  0.71003     O
C        0.608    0.632   0.2907     C
H       0.6106   0.9451  0.87837     H
O       0.6149   0.2741  0.27107     O
H       0.6157   0.8833  0.45817     H
O       0.6159   0.3447   0.5334     O
N       0.6166   0.4142  0.88533     N
C       0.6171    0.251   0.5864     C
H       0.6172   0.3981    0.166     H
H       0.6185   0.0352  0.36137     H
H       0.6189   0.4447   0.2343     H
C        0.619   0.0458    0.592     C
H       0.6201   0.6045   0.3149     H
O       0.6214   0.4884  0.81313     O
C        0.625    0.975  0.90707     C
C        0.626    0.064  0.39047     C
C       0.6269   0.1647  0.03077     C
C       0.6283   0.3433  0.74633     C
H       0.6286   0.5869   0.7709     H
C       0.6288   0.1032   0.5606     C
O       0.6296   0.4271   0.3018     O
N       0.6307   0.0549  0.90007     N
C        0.631    0.531   0.6987     C
C        0.632    0.608   0.7093     C
C       0.6337   0.3357   0.5747     C
C       0.6339   0.3829  0.91973     C
O       0.6351   0.2382   0.6255     O
C        0.636   0.8833  0.79413     C
Cu      0.6369  0.30825  0.99734    Cu
C       0.6443   0.8408  0.35517     C
H       0.6469   0.6959   0.7795     H
H       0.6488    0.551   0.1662     H
C        0.649    0.973  0.73453     C
C         0.65    0.025  0.42627     C
H       0.6523   0.6869   0.2889     H
O       0.6553   0.2712  0.20007     O
H       0.6554   0.8133  0.37787     H
H       0.6562   0.0601  0.06817     H
C       0.6567    0.285    0.413     C
H       0.6569     0.86  0.81383     H
H        0.657   0.0853  0.92827     H
H       0.6571   0.5208   0.7245     H
C       0.6585    0.536   0.1969     C
O       0.6592   0.3851   0.6044     O
N       0.6594   0.2492  0.04027     N
C        0.661    0.594   0.2331     C
H       0.6641   0.5402   0.6714     H
C       0.6643    0.298  0.24137     C
H       0.6655   0.0549  0.45497     H
O       0.6657   0.2575   0.4473     O
H       0.6659   0.0641  0.83897     H
C        0.669    0.169  0.85367     C
H       0.6699   0.9911   0.6224     H
H       0.6708   0.1173  0.38597     H
Cu     0.67135   0.3631  0.33067    Cu
H       0.6759   0.9824  0.91807     H
C        0.676    0.027   0.5988     C
C        0.677    0.097  0.86627     C
Cu     0.67852   0.4347  0.83152    Cu
H       0.6788   0.0089  0.71093     H
C         0.68    0.935  0.30177     C
H       0.6869   0.6523   0.7111     H
C        0.687     0.94  0.76213     C
C       0.6891   0.1432  0.02187     C
H       0.6891   0.5883   0.2595     H
H       0.6897   0.2052  0.87957     H
O       0.6903   0.3935  0.04337     O
Cu     0.69175  0.32865    0.664    Cu
C        0.692    0.087  0.04377     C
C       0.6922   0.2839  0.07667     C
H       0.6935   0.0176  0.41527     H
H       0.6959   0.6469   0.2205     H
C       0.6961   0.1393   0.5354     C
C        0.702   0.3663  0.90803     C
C       0.7026   0.8996  0.33397     C
O       0.7032   0.3097   0.3767     O
H       0.7045   0.1803   0.5151     H
H       0.7051   0.1947  0.82777     H
H       0.7087   0.5363   0.1962     H
O       0.7095   0.2538  0.11137     O
C        0.715   0.3717  0.07967     C
C       0.7161   0.4083  0.74333     C
H       0.7213     0.98  0.28667     H
O       0.7259   0.3408  0.93773     O
O       0.7288   0.3841  0.86673     O
H       0.7324   0.1167  0.87517     H
H         0.74   0.9544  0.75903     H
H       0.7413     0.02  0.04667     H
O       0.7425   0.4082  0.11397     O
C        0.745    0.065  0.03157     C
O       0.7462   0.4557  0.77803     O
C        0.747     0.06   0.5712     C
C       0.7472    0.183  0.98807     C
H       0.7489   0.2257  0.97197     H
C        0.749   0.3661  0.25307     C
N       0.7508   0.4102  0.70693     N
C       0.7527   0.1167   0.5392     C
H       0.7559    0.916  0.34017     H
Cu     0.75618  0.32148  0.16486    Cu
O       0.7618   0.3969  0.29217     O
H       0.7743   0.5232  0.63863     H
H       0.7809   0.3828  0.49933     H
H       0.7856   0.0456   0.5743     H
H       0.7948   0.4845  0.54623     H
H       0.7969     0.14   0.5195     H
O       0.7975   0.3704  0.63513     O
N       0.7976   0.3834  0.21867     N
C        0.803   0.1004  0.99937     C
C       0.8035   0.1592  0.97817     C
H       0.8053   0.5104  0.49443     H
H       0.8133   0.6554  0.62213     H
C        0.817   0.5642  0.65473     C
H       0.8197   0.5242  0.18177     H
H       0.8258   0.3811  0.56763     H
H       0.8276   0.2913  0.52953     H
C        0.831      0.5  0.52033     C
C        0.835    0.426  0.50663     C
C       0.8353   0.4622  0.69743     C
H       0.8399    0.084  0.99317     H
C       0.8408   0.6443  0.64483     C
H       0.8421   0.1867  0.95547     H
H       0.8493   0.4372  0.01613     H
C       0.8534    0.432  0.65503     C
C       0.8568   0.5459  0.68853     C
H         0.86   0.6569  0.18617     H
C       0.8607   0.5568  0.20207     C
H       0.8637   0.3429  0.05783     H
N       0.8659   0.4017  0.54283     N
O        0.867   0.3786  0.14647     O
H       0.8671   0.4602  0.72343     H
H       0.8672   0.4365  0.47903     H
H       0.8761   0.3359  0.00473     H
C       0.8775   0.3415  0.53023     C
C       0.8799   0.4419  0.21877     C
H       0.8827   0.5535  0.05263     H
H       0.8833   0.6157  0.54183     H
C       0.8833    0.636  0.20587     C
H       0.8866   0.4619  0.08633     H
C       0.8968   0.5256  0.22727     C
H       0.8992   0.3109  0.59283     H
C       0.8996   0.7026  0.66603     C
C          0.9    0.369  0.03203     C
H       0.9022   0.3512  0.49953     H
C        0.903    0.447  0.02363     C
C        0.903     0.58  0.53293     C
H       0.9068   0.4281  0.24287     H
C        0.913    0.605  0.71043     C
C        0.914   0.4371  0.17017     C
H       0.9147   0.5717  0.59493     H
H        0.916   0.7559  0.65983     H
O       0.9223   0.4682  0.63893     O
N       0.9291   0.4896  0.06323     N
C        0.933    0.339  0.56643     C
C        0.935     0.68  0.69823     C
H       0.9359   0.6018  0.50563     H
C        0.936    0.562  0.05713     C
H       0.9379   0.4752  0.99793     H
H       0.9399   0.5961  0.73483     H
C         0.94    0.687  0.23787     C
N       0.9451   0.5758  0.56673     N
H       0.9451   0.6106  0.12163     H
H        0.951   0.3041  0.55383     H
C       0.9542   0.5732  0.25867     C
H       0.9544     0.74  0.24097     H
H       0.9583   0.3714  0.10423     H
H       0.9648   0.5833  0.02803     H
H       0.9654   0.3131  0.04443     H
Ni     0.97157  0.48352  0.57296    Ni
C        0.973    0.649  0.26547     C
C        0.975    0.625  0.09293     C
C        0.976    0.368  0.04263     C
H         0.98   0.7213  0.71333     H
H       0.9808   0.5527  0.27567     H
H       0.9824   0.6759  0.08193     H
O       0.9833   0.4914  0.16127     O
H       0.9844   0.3799  0.64823     H
H       0.9911   0.6699   0.3776     H
N       0.9987   0.4021  0.58453     N
