data_I
_chemical_name_common  '/home/zhangsd/repos/MofS-CGCNN/ML/data/TSD/clean_cifs/QAVWAN_clean'
_cell_length_a 13.01330
_cell_length_b 13.01330
_cell_length_c 13.92200
_cell_angle_alpha 106.37300
_cell_angle_beta  106.37300
_cell_angle_gamma 91.27340
_space_group_name_H-M_alt      'P 1'


loop_
_space_group_symop_operation_xyz
  'x, y, z' 

loop_
_atom_site_label
_atom_site_fract_x
_atom_site_fract_y
_atom_site_fract_z
_atom_site_type_symbol
H       0.0196   0.9106   0.1484     H
O       0.0212   0.8356   0.8012     O
O      0.02232  0.16968   0.3681     O
C       0.0455   0.1693   0.2858     C
H        0.047    0.924   0.9967     H
H        0.076    0.953   0.5033     H
C       0.0842   0.8906   0.1328     C
H       0.0894   0.9804   0.3516     H
H       0.1007   0.4629   0.5613     H
H       0.1008   0.2846   0.5488     H
C       0.1012   0.8982    0.043     C
C       0.1018   0.8988    0.457     C
C       0.1094   0.9158   0.3672     C
O      0.11111  0.66349   0.6454     O
C       0.1201   0.4419   0.6236     C
C       0.1204   0.3368   0.6161     C
H       0.1273   0.5933   0.4495     H
N       0.1291   0.8089   0.4841     N
Zn     0.13322   0.8125  0.63338    Zn
H       0.1391   0.1411   0.6385     H
H       0.1411   0.1391   0.1385     H
C        0.147   0.8374   0.2986     C
C       0.1483   0.5221   0.7222     C
C       0.1495   0.3029   0.7075     C
C       0.1502   0.6388   0.7293     C
C        0.152   0.1946   0.7045     C
C       0.1626    0.853   0.2014     C
C       0.1631   0.1725   0.2933     C
C       0.1639   0.7311   0.4167     C
O       0.1644   0.9788   0.6988     O
C       0.1693   0.0455   0.7858     C
O      0.16968  0.02232   0.8681     O
C       0.1725   0.1631   0.7933     C
C       0.1747   0.4909    0.811     C
C       0.1747   0.7451   0.3245     C
C       0.1761   0.3827   0.8067     C
Zn      0.1875  0.86678  0.86662    Zn
N       0.1911   0.8709   0.0159     N
O        0.192   0.7052   0.8189     O
C       0.1921   0.6307   0.4465     C
H       0.1923   0.5443   0.8775     H
C       0.1946    0.152   0.2045     C
C       0.1975   0.2411   0.8914     C
C        0.198   0.3492   0.8977     C
H       0.2013   0.6907   0.2792     H
H       0.2135   0.4017   0.9645     H
H       0.2142     0.22   0.9536     H
H         0.22   0.2142   0.4536     H
H       0.2205   0.5833    0.394     H
C       0.2411   0.1975   0.3914     C
H       0.2467   0.6501   0.5154     H
C       0.2549   0.8253   0.1755     C
C       0.2689   0.8361   0.0833     C
H       0.2846   0.1008   0.0488     H
O       0.2948    0.808   0.6811     O
C       0.3029   0.1495   0.2075     C
H       0.3093   0.7987   0.2208     H
O      0.33651  0.88889   0.8546     O
C       0.3368   0.1204   0.1161     C
C       0.3492    0.198   0.3977     C
H       0.3499   0.7533   0.9846     H
C       0.3612   0.8498   0.7707     C
C       0.3693   0.8079   0.0535     C
C       0.3827   0.1761   0.3067     C
H       0.4017   0.2135   0.4645     H
H       0.4067   0.8727   0.0505     H
H       0.4167   0.7795    0.106     H
C       0.4419   0.1201   0.1236     C
H       0.4557   0.8077   0.6225     H
H       0.4629   0.1007   0.0613     H
C       0.4779   0.8517   0.7778     C
C       0.4909   0.1747    0.311     C
C       0.5091   0.8253    0.689     C
C       0.5221   0.1483   0.2222     C
H       0.5371   0.8993   0.9387     H
H       0.5443   0.1923   0.3775     H
C       0.5581   0.8799   0.8764     C
H       0.5833   0.2205    0.894     H
H       0.5933   0.1273   0.9495     H
H       0.5983   0.7865   0.5355     H
C       0.6173   0.8239   0.6933     C
C       0.6307   0.1921   0.9465     C
C       0.6388   0.1502   0.2293     C
H       0.6501   0.2467   0.0154     H
C       0.6508    0.802   0.6023     C
C       0.6632   0.8796   0.8839     C
O      0.66349  0.11111   0.1454     O
H       0.6907   0.2013   0.7792     H
C       0.6971   0.8505   0.7925     C
O       0.7052    0.192   0.3189     O
H       0.7154   0.8992   0.9512     H
C       0.7311   0.1639   0.9167     C
C       0.7451   0.1747   0.8245     C
H       0.7533   0.3499   0.4846     H
C       0.7589   0.8025   0.6086     C
H       0.7795   0.4167    0.606     H
H         0.78   0.7858   0.5464     H
H       0.7858     0.78   0.0464     H
H       0.7865   0.5983   0.0355     H
H       0.7987   0.3093   0.7208     H
C        0.802   0.6508   0.1023     C
C       0.8025   0.7589   0.1086     C
C       0.8054    0.848   0.7955     C
H       0.8077   0.4557   0.1225     H
C       0.8079   0.3693   0.5535     C
O        0.808   0.2948   0.1811     O
N       0.8089   0.1291   0.9841     N
Zn      0.8125  0.13322  0.13338    Zn
C       0.8239   0.6173   0.1933     C
C       0.8253   0.2549   0.6755     C
C       0.8253   0.5091    0.189     C
C       0.8275   0.8369   0.2067     C
O      0.83032  0.97768   0.1319     O
C       0.8307   0.9545   0.2142     C
O       0.8356   0.0212   0.3012     O
C       0.8361   0.2689   0.5833     C
C       0.8369   0.8275   0.7067     C
C       0.8374    0.147   0.7986     C
C        0.848   0.8054   0.2955     C
C       0.8498   0.3612   0.2707     C
C       0.8505   0.6971   0.2925     C
C       0.8517   0.4779   0.2778     C
C        0.853   0.1626   0.7014     C
H       0.8589   0.8609   0.8615     H
H       0.8609   0.8589   0.3615     H
Zn     0.86678   0.1875  0.36662    Zn
N       0.8709   0.1911   0.5159     N
H       0.8727   0.4067   0.5505     H
C       0.8796   0.6632   0.3839     C
C       0.8799   0.5581   0.3764     C
O      0.88889  0.33651   0.3546     O
C       0.8906   0.0842   0.6328     C
C       0.8982   0.1012    0.543     C
C       0.8988   0.1018    0.957     C
H       0.8992   0.7154   0.4512     H
H       0.8993   0.5371   0.4387     H
H       0.9106   0.0196   0.6484     H
C       0.9158   0.1094   0.8672     C
H        0.924    0.047   0.4967     H
H        0.953    0.076   0.0033     H
C       0.9545   0.8307   0.7142     C
O      0.97768  0.83032   0.6319     O
O       0.9788   0.1644   0.1988     O
H       0.9804   0.0894   0.8516     H
