data_I
_chemical_name_common  '/home/zhangsd/repos/MofS-CGCNN/ML/data/TSD/clean_cifs/QEBGEL_clean'
_cell_length_a 10.09000
_cell_length_b 16.36200
_cell_length_c 24.45300
_cell_angle_alpha 106.75000
_cell_angle_beta  92.97000
_cell_angle_gamma 103.16000
_space_group_name_H-M_alt      'P 1'


loop_
_space_group_symop_operation_xyz
  'x, y, z' 

loop_
_atom_site_label
_atom_site_fract_x
_atom_site_fract_y
_atom_site_fract_z
_atom_site_type_symbol
N       0.0146   0.6486  0.45658     N
H       0.0161   0.1665   0.4327     H
C       0.0181   0.5812  0.35807     C
C        0.019   0.9185  0.13118     C
C       0.0208   0.3533  0.65765     C
C       0.0223    0.284  0.73749     C
O       0.0292   0.8635   0.3268     O
C       0.0322   0.2179  0.81893     C
H       0.0328   0.5332   0.3299     H
C       0.0358   0.5851  0.41455     C
C       0.0361   0.2893   0.5581     C
Co     0.04104  0.65138  0.54054    Co
C       0.0423   0.9108  0.93709     C
C       0.0438   0.9893  0.10337     C
C       0.0477   0.7796    0.137     C
C       0.0511   0.2876   0.6141     C
C       0.0517   0.3579  0.71807     C
C       0.0584   0.0763   0.8219     C
H       0.0615   0.2465   0.5294     H
C       0.0629   0.2934  0.79481     C
C        0.064   0.9765  0.91046     C
H       0.0647   0.5399   0.4235     H
C       0.0656   0.8462   0.5911     C
C       0.0726   0.8476   0.1132     C
C       0.0768   0.8007   0.2988     C
H       0.0814   0.2424   0.6225     H
H       0.0818   0.9761   0.6201     H
C       0.0848   0.1444   0.7972     C
H       0.0852   0.7318   0.1232     H
C       0.0879   0.1215  0.04954     C
H       0.0921    0.027   0.8074     H
H        0.102   0.1647   0.0312     H
H       0.1065   0.5979   0.8034     H
N       0.1146   0.4394  0.75367     N
N       0.1196   0.7792  0.59278     N
C       0.1238   0.9319   0.6223     C
O       0.1265  0.40946  0.43503     O
H       0.1278   0.8448   0.0837     H
C       0.1305   0.3765  0.83087     C
H       0.1367    0.141   0.7667     H
O       0.1424  0.81869  0.97761     O
H       0.1512   0.9978   0.9017     H
C       0.1531   0.4491  0.80854     C
C       0.1583   0.8756  0.95287     C
O       0.1623  0.58282  0.56054     O
C        0.173   0.0224  0.09004     C
C       0.1751   0.6093   0.8335     C
C       0.1968   0.0892  0.06358     C
O       0.1992  0.30701  0.46008     O
H       0.2059   0.7403   0.8592     H
O        0.213   0.8053   0.3013     O
C       0.2185   0.5401   0.8451     C
C       0.2223   0.3729  0.44377     C
C       0.2269   0.7979   0.6314     C
C       0.2353   0.6947   0.8675     C
H       0.2453   0.9999   0.0988     H
C       0.2499   0.9528  0.65848     C
H       0.2561   0.8533   0.3233     H
H       0.2598   0.7513   0.6361     H
O       0.2749  0.90682  0.93791     O
H       0.2762   0.6144   0.2004     H
C       0.2785   0.6116  0.54571     C
H       0.2917   0.4913   0.5983     H
C       0.2941   0.8827   0.6657     C
O       0.2953   0.6663  0.51882     O
O       0.3018    0.668   0.2154     O
H       0.3026   0.7444    0.045     H
H       0.3083   0.5002   0.3978     H
C       0.3239    0.563   0.8909     C
C       0.3242   0.0441  0.69289     C
N       0.3339   0.7154  0.91176     N
H       0.3359   0.3482   0.7349     H
C       0.3374   0.1261  0.05062     C
C       0.3431   0.1141  0.67007     C
H       0.3564    0.458   0.6924     H
H       0.3573   0.5195   0.9002     H
O       0.3601  0.18989  0.03231     O
C       0.3619   0.4133  0.43301     C
H        0.365   0.7452    0.137     H
H       0.3678   0.8919   0.6931     H
N       0.3689   0.0551  0.74775     N
H       0.3702   0.0237   0.8389     H
C       0.3728   0.7907  0.06829     C
C       0.3761   0.6491   0.9213     C
C       0.3784   0.5142  0.58979     C
C       0.3821   0.3449  0.70266     C
C       0.3827   0.4801  0.40731     C
C       0.3963   0.4116  0.67773     C
C       0.3963   0.5796  0.56258     C
Co     0.40128  0.84431  0.96218    Co
C       0.4098   0.7909   0.1239     C
C       0.4136   0.1981  0.70428     C
H       0.4178   0.6601   0.4207     H
O       0.4321  0.08958  0.06041     O
H       0.4332    0.033   0.9317     H
N       0.4337  0.85405  0.04664     N
C       0.4341   0.0738  0.86228     C
C       0.4356   0.2733  0.68038     C
C       0.4375   0.1363  0.78103     C
H       0.4467   0.6627    0.951     H
H       0.4479   0.7746   0.3803     H
C         0.45   0.7007   0.2057     C
C       0.4592   0.2096  0.76107     C
H       0.4611   0.3401   0.4658     H
C       0.4699   0.6591  0.39032     C
C       0.4703   0.4104  0.63048     C
C       0.4739   0.3842  0.44823     C
C        0.474   0.0792  0.91823     C
C        0.487   0.1411  0.84042     C
C       0.4874    0.728  0.36582     C
C       0.4884   0.4826  0.60447     C
O        0.498   0.3505   0.8341     O
O        0.502   0.6495   0.1659     O
C       0.5116   0.5174  0.39553     C
C       0.5126    0.272  0.63418     C
C        0.513   0.8589  0.15958     C
C        0.526   0.9208  0.08177     C
C       0.5261   0.6158  0.55177     C
C       0.5297   0.5896  0.36952     C
C       0.5301   0.3409  0.60968     C
H       0.5389   0.6599   0.5342     H
C       0.5408   0.7904  0.23893     C
C         0.55   0.2993   0.7943     C
H       0.5521   0.2254   0.6197     H
H       0.5533   0.3373    0.049     H
C       0.5625   0.8637  0.21897     C
C       0.5644   0.7267  0.31962     C
C       0.5659   0.9262  0.13772     C
N       0.5663  0.14595  0.95336     N
H       0.5668    0.967   0.0683     H
O       0.5679  0.91042  0.93959     O
H       0.5822   0.3399   0.5793     H
C       0.5864   0.8019  0.29572     C
C       0.5902   0.2091   0.8761     C
Co     0.59872  0.15569  0.03782    Co
C       0.6037   0.4204  0.43742     C
C       0.6037   0.5884  0.32227     C
C       0.6173   0.5199  0.59269     C
C       0.6179   0.6551  0.29734     C
C       0.6216   0.4858  0.41021     C
C       0.6239   0.3509   0.0787     C
C       0.6272   0.2093  0.93171     C
H       0.6298   0.9763   0.1611     H
N       0.6311   0.9449  0.25225     N
H       0.6322   0.1081   0.3069     H
H        0.635   0.2548    0.863     H
C       0.6381   0.5867  0.56699     C
O       0.6399  0.81011  0.96769     O
H       0.6427   0.4805   0.0998     H
H       0.6436    0.542   0.3076     H
C       0.6569   0.8859  0.32993     C
C       0.6626   0.8739  0.94938     C
H       0.6641   0.6518   0.2651     H
N       0.6661   0.2846  0.08824     N
C       0.6758   0.9559  0.30711     C
C       0.6761    0.437   0.1091     C
H       0.6917   0.4998   0.6022     H
H       0.6974   0.2556    0.955     H
O       0.6982    0.332   0.7846     O
O       0.7047   0.3337  0.48118     O
C       0.7059   0.1173   0.3343     C
H       0.7083   0.5087   0.4017     H
C       0.7215   0.3884  0.45429     C
H       0.7238   0.3856   0.7996     H
O       0.7251  0.09318  0.06209     O
H       0.7402   0.2487   0.3639     H
H       0.7439   0.1467   0.6767     H
C       0.7501   0.0472  0.34152     C
H       0.7547   0.0001   0.9012     H
C       0.7647   0.3053   0.1325     C
C       0.7731   0.2021   0.3686     C
C       0.7777   0.6271  0.55623     C
C       0.7815   0.4599   0.1549     C
O        0.787   0.1947   0.6987     O
H       0.7941   0.2597   0.1408     H
O       0.8008  0.69299  0.53992     O
C       0.8032   0.9108  0.93642     C
C       0.8249   0.3907   0.1665     C
C        0.827   0.9776  0.90996     C
O       0.8377  0.41718  0.43946     O
C       0.8417   0.1244  0.04713     C
C       0.8469   0.5509  0.19146     C
H       0.8488   0.0022   0.0983     H
O       0.8576  0.18131  0.02239     O
H       0.8633    0.859   0.2333     H
C       0.8695   0.6235  0.16913     C
H       0.8722   0.1552   0.9163     H
O       0.8735  0.59054  0.56497     O
C       0.8762   0.0681   0.3777     C
N       0.8804   0.2208  0.40722     N
N       0.8854   0.5606  0.24633     N
H       0.8935   0.4021   0.1966     H
H        0.898   0.8353   0.9688     H
H       0.9079    0.973   0.1926     H
C       0.9121   0.8785  0.95046     C
H       0.9148   0.2682   0.8768     H
C       0.9152   0.8556   0.2028     C
H       0.9182   0.0239   0.3799     H
H       0.9186   0.7576   0.3775     H
C       0.9232   0.1993   0.7012     C
C       0.9274   0.1524   0.8868     C
C       0.9344   0.1538   0.4089     C
H       0.9353   0.4601   0.5765     H
C        0.936   0.0235  0.08954     C
C       0.9371   0.7066  0.20519     C
H       0.9385   0.7535   0.4706     H
C       0.9416   0.9237   0.1781     C
C       0.9483   0.6421  0.28193     C
C       0.9489   0.7124   0.3859     C
C       0.9523   0.2204    0.863     C
C       0.9562   0.0107  0.89663     C
C       0.9577   0.0892  0.06291     C
Co     0.95896  0.34862  0.45946    Co
C       0.9639   0.7107   0.4419     C
C       0.9642   0.4149  0.58545     C
H       0.9672   0.4668   0.6701     H
C       0.9678   0.7821  0.18107     C
O       0.9708   0.1365   0.6732     O
C       0.9777    0.716  0.26251     C
C       0.9792   0.6467  0.34235     C
C        0.981   0.0815  0.86882     C
C       0.9819   0.4188  0.64193     C
H       0.9839   0.8335   0.5673     H
N       0.9854   0.3514  0.54342     N
