data_I
_chemical_name_common  '/home/zhangsd/repos/MofS-CGCNN/ML/data/TSD/clean_cifs/QEKLID01_clean'
_cell_length_a  7.87330
_cell_length_b 10.14320
_cell_length_c 13.52800
_cell_angle_alpha 68.35500
_cell_angle_beta  79.64500
_cell_angle_gamma 70.70200
_space_group_name_H-M_alt      'P 1'


loop_
_space_group_symop_operation_xyz
  'x, y, z' 

loop_
_atom_site_label
_atom_site_fract_x
_atom_site_fract_y
_atom_site_fract_z
_atom_site_type_symbol
H       0.0643   0.2407   0.9873     H
H       0.1127   0.2961   0.8031     H
O       0.1161   0.2839   0.3138     O
O       0.1189   0.6033   0.4789     O
C       0.1402   0.1694    0.959     C
H       0.1467   0.8682   0.4435     H
C       0.1568   0.1502   0.3615     C
C       0.1577   0.8979   0.3695     C
C       0.1602   0.0423   0.3093     C
C       0.1621   0.6454   0.3759     C
H       0.1697   0.1843   0.1581     H
C        0.171   0.2029   0.8482     C
C       0.1721   0.7975   0.3174     C
Cd     0.17333   0.3441  0.45664    Cd
C       0.1738   0.0866   0.1977     C
C        0.191   0.8442   0.2056     C
C       0.1931   0.9877   0.1449     C
O       0.2015   0.0996   0.4583     O
O       0.2022   0.5533   0.3277     O
H       0.2025   0.7771   0.1713     H
C       0.2237   0.0289   0.0258     C
O       0.2343   0.2564    0.628     O
C       0.2874   0.0985   0.8055     C
C       0.3151   0.1323   0.6852     C
C       0.3395   0.9266   0.9819     C
C       0.3719   0.9592   0.8716     C
H       0.3977   0.8332   0.0268     H
O       0.4194   0.0286   0.6546     O
H       0.4491   0.8881   0.8434     H
Cd         0.5      0.0      0.5    Cd
H       0.5509   0.1119   0.1566     H
O       0.5806   0.9714   0.3454     O
H       0.6023   0.1668   0.9732     H
C       0.6281   0.0408   0.1284     C
C       0.6605   0.0734   0.0181     C
C       0.6849   0.8677   0.3148     C
C       0.7126   0.9015   0.1945     C
O       0.7657   0.7436    0.372     O
C       0.7763   0.9711   0.9742     C
H       0.7975   0.2229   0.8287     H
O       0.7978   0.4467   0.6723     O
O       0.7985   0.9004   0.5417     O
C       0.8069   0.0123   0.8551     C
C        0.809   0.1558   0.7944     C
C       0.8262   0.9134   0.8023     C
Cd     0.82667   0.6559  0.54336    Cd
C       0.8279   0.2025   0.6826     C
C        0.829   0.7971   0.1518     C
H       0.8303   0.8157   0.8419     H
C       0.8379   0.3546   0.6241     C
C       0.8398   0.9577   0.6907     C
C       0.8423   0.1021   0.6305     C
C       0.8432   0.8498   0.6385     C
H       0.8533   0.1318   0.5565     H
C       0.8598   0.8306    0.041     C
O       0.8811   0.3967   0.5211     O
O       0.8839   0.7161   0.6862     O
H       0.8873   0.7039   0.1969     H
H       0.9357   0.7593   0.0127     H
