data_I
_chemical_name_common  '/home/zhangsd/repos/MofS-CGCNN/ML/data/TSD/clean_cifs/QIPROY_clean'
_cell_length_a  9.52680
_cell_length_b  9.52680
_cell_length_c 23.40100
_cell_angle_alpha 90.00000
_cell_angle_beta  90.00000
_cell_angle_gamma 90.00000
_space_group_name_H-M_alt      'P 1'


loop_
_space_group_symop_operation_xyz
  'x, y, z' 

loop_
_atom_site_label
_atom_site_fract_x
_atom_site_fract_y
_atom_site_fract_z
_atom_site_type_symbol
C          0.0      0.0      0.0     C
Cu         0.0      0.5     0.25    Cu
H       0.0026   0.1644   0.9413     H
O       0.0422   0.8317  0.07328     O
H       0.0428   0.8015   0.2831     H
H       0.0482    0.318   0.1493     H
C       0.0493   0.6798   0.1502     C
C       0.0717   0.1135  0.96361     C
H       0.0724   0.1683   0.6523     H
C       0.0975   0.7551  0.31007     C
N       0.1026   0.6127  0.31027     N
N       0.1127   0.6026  0.18973     N
C       0.1135   0.9283  0.03639     C
H       0.1211   0.1796   0.9879     H
C       0.1233   0.7571  0.11022     C
H       0.1644   0.9974   0.0587     H
O       0.1683   0.0422  0.92672     O
H       0.1683   0.9276   0.3477     H
C       0.1699   0.1719  0.65092     C
C       0.1719   0.8301  0.34908     C
H       0.1796   0.8789   0.0121     H
C       0.1798   0.5493   0.3498     C
H       0.1801   0.2995   0.5829     H
H        0.182   0.4518   0.3507     H
H       0.1985   0.0428   0.7169     H
H       0.2005   0.3199   0.9171     H
C       0.2326   0.2512     0.61     C
C       0.2429   0.1233  0.88978     C
C       0.2449   0.0975  0.68993     C
C       0.2488   0.2674     0.89     C
C       0.2512   0.7674     0.39     C
C       0.2551   0.5975  0.18993     C
C       0.2571   0.6233  0.38978     C
C       0.2674   0.7512     0.11     C
H       0.2995   0.8199   0.4171     H
H       0.3015   0.5428   0.2169     H
H        0.318   0.9518   0.8507     H
H       0.3199   0.7995   0.0829     H
C       0.3202   0.0493   0.8498     C
H       0.3204   0.3789   0.5121     H
C       0.3281   0.3301  0.84908     C
C       0.3301   0.6719  0.15092     C
H       0.3317   0.4276   0.8477     H
O       0.3317   0.5422  0.42672     O
H       0.3356   0.4974   0.5587     H
C       0.3767   0.2571  0.61022     C
H       0.3789   0.6796   0.4879     H
C       0.3865   0.4283  0.53639     C
N       0.3873   0.1026  0.68973     N
N       0.3974   0.1127  0.81027     N
C       0.4025   0.2551  0.81007     C
H       0.4276   0.6683   0.1523     H
C       0.4283   0.6135  0.46361     C
C       0.4507   0.1798   0.6502     C
H       0.4518    0.818   0.6493     H
H       0.4572   0.3015   0.7831     H
O       0.4578   0.3317  0.57328     O
H       0.4974   0.6644   0.4413     H
Cu         0.5      0.0     0.75    Cu
C          0.5      0.5      0.5     C
H       0.5026   0.3356   0.4413     H
O       0.5422   0.6683  0.57328     O
H       0.5428   0.6985   0.7831     H
H       0.5482    0.182   0.6493     H
C       0.5493   0.8202   0.6502     C
C       0.5717   0.3865  0.46361     C
H       0.5724   0.3317   0.1523     H
C       0.5975   0.7449  0.81007     C
N       0.6026   0.8873  0.81027     N
N       0.6127   0.8974  0.68973     N
C       0.6135   0.5717  0.53639     C
H       0.6211   0.3204   0.4879     H
C       0.6233   0.7429  0.61022     C
H       0.6644   0.5026   0.5587     H
O       0.6683   0.4578  0.42672     O
H       0.6683   0.5724   0.8477     H
C       0.6699   0.3281  0.15092     C
C       0.6719   0.6699  0.84908     C
H       0.6796   0.6211   0.5121     H
C       0.6798   0.9507   0.8498     C
H       0.6801   0.2005   0.0829     H
H        0.682   0.0482   0.8507     H
H       0.6985   0.4572   0.2169     H
H       0.7005   0.1801   0.4171     H
C       0.7326   0.2488     0.11     C
C       0.7429   0.3767  0.38978     C
C       0.7449   0.4025  0.18993     C
C       0.7488   0.2326     0.39     C
C       0.7512   0.7326     0.89     C
C       0.7551   0.9025  0.68993     C
C       0.7571   0.8767  0.88978     C
C       0.7674   0.7488     0.61     C
H       0.7995   0.6801   0.9171     H
H       0.8015   0.9572   0.7169     H
H        0.818   0.5482   0.3507     H
H       0.8199   0.7005   0.5829     H
C       0.8202   0.4507   0.3498     C
H       0.8204   0.1211   0.0121     H
C       0.8281   0.1699  0.34908     C
C       0.8301   0.8281  0.65092     C
H       0.8317   0.0724   0.3477     H
O       0.8317   0.9578  0.92672     O
H       0.8356   0.0026   0.0587     H
C       0.8767   0.2429  0.11022     C
H       0.8789   0.8204   0.9879     H
C       0.8865   0.0717  0.03639     C
N       0.8873   0.3974  0.18973     N
N       0.8974   0.3873  0.31027     N
C       0.9025   0.2449  0.31007     C
H       0.9276   0.8317   0.6523     H
C       0.9283   0.8865  0.96361     C
C       0.9507   0.3202   0.1502     C
H       0.9518    0.682   0.1493     H
H       0.9572   0.1985   0.2831     H
O       0.9578   0.1683  0.07328     O
H       0.9974   0.8356   0.9413     H
