data_I
_chemical_name_common  '/home/zhangsd/repos/MofS-CGCNN/ML/data/TSD/clean_cifs/QITXAU_clean'
_cell_length_a  9.69100
_cell_length_b 14.15700
_cell_length_c 16.05500
_cell_angle_alpha 107.40800
_cell_angle_beta  99.93700
_cell_angle_gamma 104.26400
_space_group_name_H-M_alt      'P 1'


loop_
_space_group_symop_operation_xyz
  'x, y, z' 

loop_
_atom_site_label
_atom_site_fract_x
_atom_site_fract_y
_atom_site_fract_z
_atom_site_type_symbol
S       0.0113  0.51418  0.29761     S
C       0.0125   0.5922   0.0673     C
H       0.0186   0.3305   0.8106     H
C       0.0266   0.6897   0.1453     C
H       0.0432   0.2663   0.0138     H
N       0.0437   0.2414   0.8848     N
H        0.048   0.3236    0.203     H
O       0.0513   0.1442   0.1235     O
C       0.0537   0.6911   0.8068     C
C       0.0664   0.2282   0.9631     C
O       0.0753   0.5054   0.3825     O
O       0.0761   0.4171   0.6937     O
C       0.0859   0.8744   0.9036     C
N       0.0866   0.1726   0.8255     N
C       0.1114   0.6137    0.769     C
C       0.1186   0.4896    0.965     C
O       0.1208   0.5374   0.2494     O
N       0.1269   0.1534   0.9599     N
H       0.1304   0.7274   0.1748     H
C       0.1315   0.5848   0.0324     C
C       0.1358   0.1223   0.8742     C
H       0.1442   0.0783   0.2568     H
C       0.1473   0.7905   0.8592     C
H       0.1687   0.9054   0.3509     H
H        0.174   0.0689    0.851     H
O       0.1745   0.9556   0.9644     O
Zn       0.192  0.09103  0.06024    Zn
H       0.1925    0.025   0.3943     H
C       0.2039   0.0387   0.2371     C
H       0.2145   0.7913   0.3558     H
H       0.2206   0.4197   0.8748     H
C       0.2377   0.9744    0.366     C
N       0.2411   0.0256   0.1602     N
H       0.2471   0.7392   0.0659     H
C       0.2516   0.4781   0.9308     C
C       0.2616    0.635   0.7796     C
N       0.2627    0.988    0.282     N
C       0.2721    0.677   0.0631     C
H       0.2925    0.747   0.4222     H
C       0.2986   0.8114    0.872     C
H       0.2987   0.5405   0.9211     H
H       0.2992    0.583   0.7518     H
C        0.308   0.7895   0.3858     C
H       0.3199   0.4668   0.9748     H
C       0.3273    0.964   0.1625     C
H       0.3275   0.6855    0.122     H
H       0.3305   0.6646   0.0209     H
N       0.3423   0.9384    0.234     N
H        0.344   0.1682   0.4446     H
H       0.3557   0.7605   0.3414     H
C       0.3559   0.7347   0.8321     C
H       0.3621   0.8779   0.9079     H
H        0.372   0.9418   0.1167     H
C       0.3769   0.9868   0.4332     C
O       0.4025    0.165   0.0834     O
C       0.4047   0.8994   0.4458     C
O       0.4293   0.2924   0.2113     O
C       0.4477    0.182   0.4688     C
C       0.4729   0.0871   0.4857     C
C       0.4792   0.2406   0.1546     C
H       0.4832   0.2407   0.5248     H
H       0.4999   0.1974   0.4263     H
H       0.5001   0.8026   0.5737     H
H       0.5168   0.7593   0.4752     H
C       0.5208   0.7594   0.8454     C
C       0.5271   0.9129   0.5143     C
C       0.5523    0.818   0.5312     C
O       0.5707   0.7076   0.7887     O
C       0.5953   0.1006   0.5542     C
O       0.5975    0.835   0.9166     O
C       0.6231   0.0132   0.5668     C
H        0.628   0.0582   0.8833     H
H       0.6379   0.1221   0.0921     H
C       0.6441   0.2653   0.1679     C
H       0.6443   0.2395   0.6586     H
H        0.656   0.8318   0.5554     H
N       0.6577   0.0616    0.766     N
H       0.6695   0.3354   0.9791     H
H       0.6725   0.3145    0.878     H
C       0.6727    0.036   0.8375     C
H       0.6801   0.5332   0.0252     H
C        0.692   0.2105   0.6142     C
H       0.7008    0.417   0.2482     H
H       0.7013   0.4595   0.0789     H
C       0.7014   0.1886    0.128     C
H       0.7075    0.253   0.5778     H
C       0.7279    0.323   0.9369     C
N       0.7373    0.012    0.718     N
C       0.7384    0.365   0.2204     C
C       0.7484   0.5219   0.0692     C
H       0.7529   0.2608   0.9341     H
N       0.7589   0.9744   0.8398     N
C       0.7623   0.0256    0.634     C
H       0.7794   0.5803   0.1252     H
H       0.7855   0.2087   0.6442     H
C       0.7961   0.9613   0.7629     C
H       0.8075    0.975   0.6057     H
Zn       0.808  0.90897  0.93976    Zn
O       0.8255   0.0444   0.0356     O
H        0.826   0.9311    0.149     H
H       0.8313   0.0946   0.6491     H
C       0.8527   0.2095   0.1408     C
H       0.8558   0.9217   0.7432     H
C       0.8642   0.8777   0.1258     C
C       0.8685   0.4152   0.9676     C
H       0.8696   0.2726   0.8252     H
N       0.8731   0.8466   0.0401     N
O       0.8792   0.4626   0.7506     O
C       0.8814   0.5104    0.035     C
C       0.8886   0.3863    0.231     C
N       0.9134   0.8274   0.1745     N
C       0.9141   0.1256   0.0964     C
O       0.9239   0.5829   0.3063     O
O       0.9247   0.4946   0.6175     O
C       0.9336   0.7718   0.0369     C
C       0.9463   0.3089   0.1932     C
O       0.9487   0.8558   0.8765     O
H        0.952   0.6764    0.797     H
N       0.9563   0.7586   0.1152     N
H       0.9568   0.7337   0.9862     H
C       0.9734   0.3103   0.8547     C
H       0.9814   0.6695   0.1894     H
C       0.9875   0.4078   0.9327     C
S       0.9887  0.48582  0.70239     S
