data_I
_chemical_name_common  '/home/zhangsd/repos/MofS-CGCNN/ML/data/TSD/clean_cifs/QIWCOQ_clean'
_cell_length_a 11.92720
_cell_length_b 13.95400
_cell_length_c 20.18500
_cell_angle_alpha 90.00000
_cell_angle_beta  90.00000
_cell_angle_gamma 90.00000
_space_group_name_H-M_alt      'P 1'


loop_
_space_group_symop_operation_xyz
  'x, y, z' 

loop_
_atom_site_label
_atom_site_fract_x
_atom_site_fract_y
_atom_site_fract_z
_atom_site_type_symbol
H       0.0143   0.8348   0.1143     H
H       0.0143   0.8348   0.8857     H
C       0.0253   0.9492      0.0     C
H        0.031   0.7788   0.2268     H
H        0.031   0.7788   0.7732     H
H       0.0366    0.099      0.0     H
H       0.0732   0.6992   0.3279     H
H       0.0732   0.6992   0.6721     H
C       0.0744    0.879   0.1097     C
C       0.0744    0.879   0.8903     C
N       0.0933   0.9361   0.0584     N
N       0.0933   0.9361   0.9416     N
C       0.1004   0.7885   0.2489     C
C       0.1004   0.7885   0.7511     C
C       0.1268   0.7413   0.3088     C
C       0.1268   0.7413   0.6912     C
H       0.1355   0.3259   0.1599     H
H       0.1355   0.3259   0.8401     H
O       0.1508   0.2086   0.0744     O
O       0.1508   0.2086   0.9256     O
C       0.1607   0.8964   0.1561     C
C       0.1607   0.8964   0.8439     C
H       0.1673   0.4019   0.2657     H
H       0.1673   0.4019   0.7343     H
C       0.1775   0.8467   0.2255     C
C       0.1775   0.8467   0.7745     C
O       0.1784   0.6533   0.4279     O
O       0.1784   0.6533   0.5721     O
N        0.187   0.9916   0.0675     N
N        0.187   0.9916   0.9325     N
C       0.2024   0.3138    0.184     C
C       0.2024   0.3138    0.816     C
H       0.2078   0.4896   0.3549     H
H       0.2078   0.4896   0.6451     H
C       0.2222   0.3617    0.246     C
C       0.2222   0.3617    0.754     C
C       0.2235   0.7538    0.339     C
C       0.2235   0.7538    0.661     C
C       0.2257   0.9644   0.1259     C
C       0.2257   0.9644   0.8741     C
Cu     0.23743  0.57272      0.5    Cu
C       0.2452   0.2001    0.096     C
C       0.2452   0.2001    0.904     C
C       0.2548   0.7001    0.404     C
C       0.2548   0.7001    0.596     C
Cu     0.26257  0.07272      0.0    Cu
C       0.2743   0.4644   0.3741     C
C       0.2743   0.4644   0.6259     C
C       0.2765   0.2538    0.161     C
C       0.2765   0.2538    0.839     C
C       0.2778   0.8617    0.254     C
C       0.2778   0.8617    0.746     C
H       0.2922   0.9896   0.1451     H
H       0.2922   0.9896   0.8549     H
C       0.2976   0.8138    0.316     C
C       0.2976   0.8138    0.684     C
N        0.313   0.4916   0.4325     N
N        0.313   0.4916   0.5675     N
O       0.3216   0.1533   0.0721     O
O       0.3216   0.1533   0.9279     O
C       0.3225   0.3467   0.2745     C
C       0.3225   0.3467   0.7255     C
H       0.3327   0.9019   0.2343     H
H       0.3327   0.9019   0.7657     H
C       0.3393   0.3964   0.3439     C
C       0.3393   0.3964   0.6561     C
O       0.3492   0.7086   0.4256     O
O       0.3492   0.7086   0.5744     O
H       0.3645   0.8259   0.3401     H
H       0.3645   0.8259   0.6599     H
C       0.3732   0.2413   0.1912     C
C       0.3732   0.2413   0.8088     C
C       0.3996   0.2885   0.2511     C
C       0.3996   0.2885   0.7489     C
N       0.4067   0.4361   0.4416     N
N       0.4067   0.4361   0.5584     N
C       0.4256    0.379   0.3903     C
C       0.4256    0.379   0.6097     C
H       0.4268   0.1992   0.1721     H
H       0.4268   0.1992   0.8279     H
H       0.4634    0.599      0.5     H
H        0.469   0.2788   0.2732     H
H        0.469   0.2788   0.7268     H
C       0.4747   0.4492      0.5     C
H       0.4857   0.3348   0.3857     H
H       0.4857   0.3348   0.6143     H
H       0.5143   0.6652   0.3857     H
H       0.5143   0.6652   0.6143     H
C       0.5253   0.5508      0.5     C
H        0.531   0.7212   0.2732     H
H        0.531   0.7212   0.7268     H
H       0.5366    0.401      0.5     H
H       0.5732   0.8008   0.1721     H
H       0.5732   0.8008   0.8279     H
C       0.5744    0.621   0.3903     C
C       0.5744    0.621   0.6097     C
N       0.5933   0.5639   0.4416     N
N       0.5933   0.5639   0.5584     N
C       0.6004   0.7115   0.2511     C
C       0.6004   0.7115   0.7489     C
C       0.6268   0.7587   0.1912     C
C       0.6268   0.7587   0.8088     C
H       0.6355   0.1741   0.3401     H
H       0.6355   0.1741   0.6599     H
O       0.6508   0.2914   0.4256     O
O       0.6508   0.2914   0.5744     O
C       0.6607   0.6036   0.3439     C
C       0.6607   0.6036   0.6561     C
H       0.6673   0.0981   0.2343     H
H       0.6673   0.0981   0.7657     H
C       0.6775   0.6533   0.2745     C
C       0.6775   0.6533   0.7255     C
O       0.6784   0.8467   0.0721     O
O       0.6784   0.8467   0.9279     O
N        0.687   0.5084   0.4325     N
N        0.687   0.5084   0.5675     N
C       0.7024   0.1862    0.316     C
C       0.7024   0.1862    0.684     C
H       0.7078   0.0104   0.1451     H
H       0.7078   0.0104   0.8549     H
C       0.7222   0.1383    0.254     C
C       0.7222   0.1383    0.746     C
C       0.7235   0.7462    0.161     C
C       0.7235   0.7462    0.839     C
C       0.7257   0.5356   0.3741     C
C       0.7257   0.5356   0.6259     C
Cu     0.73743  0.92728      0.0    Cu
C       0.7452   0.2999    0.404     C
C       0.7452   0.2999    0.596     C
C       0.7548   0.7999    0.096     C
C       0.7548   0.7999    0.904     C
Cu     0.76257  0.42728      0.5    Cu
C       0.7743   0.0356   0.1259     C
C       0.7743   0.0356   0.8741     C
C       0.7765   0.2462    0.339     C
C       0.7765   0.2462    0.661     C
C       0.7778   0.6383    0.246     C
C       0.7778   0.6383    0.754     C
H       0.7922   0.5104   0.3549     H
H       0.7922   0.5104   0.6451     H
C       0.7976   0.6862    0.184     C
C       0.7976   0.6862    0.816     C
N        0.813   0.0084   0.0675     N
N        0.813   0.0084   0.9325     N
O       0.8216   0.3467   0.4279     O
O       0.8216   0.3467   0.5721     O
C       0.8225   0.1533   0.2255     C
C       0.8225   0.1533   0.7745     C
H       0.8327   0.5981   0.2657     H
H       0.8327   0.5981   0.7343     H
C       0.8393   0.1036   0.1561     C
C       0.8393   0.1036   0.8439     C
O       0.8492   0.7914   0.0744     O
O       0.8492   0.7914   0.9256     O
H       0.8645   0.6741   0.1599     H
H       0.8645   0.6741   0.8401     H
C       0.8732   0.2587   0.3088     C
C       0.8732   0.2587   0.6912     C
C       0.8996   0.2115   0.2489     C
C       0.8996   0.2115   0.7511     C
N       0.9067   0.0639   0.0584     N
N       0.9067   0.0639   0.9416     N
C       0.9256    0.121   0.1097     C
C       0.9256    0.121   0.8903     C
H       0.9268   0.3008   0.3279     H
H       0.9268   0.3008   0.6721     H
H       0.9634    0.901      0.0     H
H        0.969   0.2212   0.2268     H
H        0.969   0.2212   0.7732     H
C       0.9747   0.0508      0.0     C
H       0.9857   0.1652   0.1143     H
H       0.9857   0.1652   0.8857     H
