data_I
_chemical_name_common  '/home/zhangsd/repos/MofS-CGCNN/ML/data/TSD/clean_cifs/QIWGOU_clean'
_cell_length_a 15.00800
_cell_length_b 24.75000
_cell_length_c 25.79200
_cell_angle_alpha 111.95700
_cell_angle_beta  90.00000
_cell_angle_gamma 90.00000
_space_group_name_H-M_alt      'P 1'


loop_
_space_group_symop_operation_xyz
  'x, y, z' 

loop_
_atom_site_label
_atom_site_fract_x
_atom_site_fract_y
_atom_site_fract_z
_atom_site_type_symbol
C       0.0016   0.8303   0.2962     C
H       0.0017   0.4805   0.9105     H
H       0.0071   0.4809   0.3726     H
O       0.0086   0.0751   0.7012     O
H       0.0096   0.3415   0.9084     H
H       0.0127   0.3524    0.407     H
C       0.0137   0.3842    0.197     C
C       0.0189   0.7316   0.2877     C
C       0.0209  0.85398   0.7817     C
C       0.0214   0.8942   0.3234     C
C       0.0234  0.91965  0.80716     C
C       0.0255   0.2394   0.2204     C
H       0.0273   0.4359   0.7212     H
O       0.0279  0.05455   0.1531     O
C       0.0309   0.5702   0.2676     C
N       0.0311  0.73246  0.73758     N
C       0.0332   0.1785   0.1969     C
N       0.0335  0.37718  0.24533     N
Sr     0.03442  0.20187  0.53654    Sr
N       0.0359  0.28795  0.75695     N
H       0.0359   0.5784   0.9522     H
C       0.0387   0.7901   0.3147     C
N       0.0396  0.59475  0.22927     N
O       0.0412  0.87612   0.1564     O
H       0.0448   0.7042    0.301     H
H       0.0458   0.6222   0.8163     H
C       0.0463   0.6552   0.1075     C
O       0.0472   0.0953   0.3179     O
N        0.048  0.63468  0.14882     N
C       0.0502   0.4955   0.8964     C
O       0.0538   0.1902  0.36851     O
C       0.0538   0.5142   0.6347     C
Sr     0.05575  0.98495  0.70797    Sr
C        0.056   0.1893   0.7496     C
O        0.056  0.96897  0.21225     O
Ru     0.05601  0.64436  0.70487    Ru
H       0.0594   0.4055   0.1332     H
H       0.0602   0.4288   0.5828     H
N       0.0604  0.36541  0.34005     N
Ru     0.06079  0.37378  0.80576    Ru
H        0.062   0.2619    0.206     H
O       0.0628   0.9133    0.368     O
Sr      0.0652  0.04528  0.86949    Sr
C       0.0657   0.3564   0.3887     C
C       0.0707   0.5538   0.9218     C
H       0.0739     0.16   0.1673     H
C       0.0749   0.2482   0.7751     C
C       0.0761   0.8256   0.7365     C
C       0.0762   0.4001   0.1664     C
H       0.0779   0.8023   0.3459     H
C       0.0792  0.76464   0.7148     C
O       0.0806   0.9443   0.7875     O
C       0.0818   0.9167  0.19352     C
H       0.0821   0.1623   0.7633     H
C       0.0827   0.1443   0.3323     C
C       0.0939   0.4604   0.6077     C
H       0.0941   0.5351   0.3176     H
N       0.0961  0.45857  0.85216     N
N       0.0995  0.56009  0.67129     N
C       0.1029   0.5533  0.29149     C
O       0.1075    0.675  0.95823     O
H       0.1115   0.8472   0.7206     H
O       0.1128  0.75278  0.42456     O
O       0.1164  0.25012    0.471     O
O       0.1176   0.8694  0.89382     O
H       0.1191   0.6858   0.0573     H
C       0.1196  0.38496   0.2634     C
C       0.1229   0.6719   0.0869     C
C       0.1245    0.603   0.2135     C
C       0.1288   0.6283   0.1704     C
O       0.1338   0.2264     0.04     O
C       0.1343  0.37418   0.3155     C
N       0.1353  0.67247  0.65363     N
C       0.1362  0.73097   0.6672     C
O       0.1369   0.1774   0.6076     O
C       0.1391    0.273   0.8213     C
C       0.1429  0.57638  0.90259     C
N       0.1457  0.33217  0.84123     N
C       0.1486   0.3529    0.412     C
H       0.1515   0.3466   0.4461     H
O       0.1538  0.05714  0.78427     O
H       0.1581   0.0652   0.2414     H
H       0.1625   0.7295   0.8076     H
C        0.165   0.4085   0.1847     C
C       0.1662   0.6409   0.9284     C
C        0.167   0.4801  0.83352     C
C       0.1681  0.14697  0.30189     C
N       0.1691  0.38481  0.76111     N
C       0.1693  0.90427  0.21658     C
N       0.1704  0.64907  0.75022     N
H       0.1747   0.3076   0.6989     H
H       0.1789   0.9839   0.2801     H
O       0.1812  0.35296   0.5582     O
H       0.1825   0.1984   0.8283     H
H        0.183    0.798    0.647     H
C       0.1833  0.45271    0.617     C
O       0.1836   0.8154   0.9348     O
O       0.1836   0.9224   0.6669     O
C       0.1842   0.8476    0.907     C
C       0.1851    0.551   0.6846     C
C       0.1854   0.7295    0.404     C
C       0.1857   0.4004    0.234     C
C       0.1857   0.7571   0.6373     C
H       0.1862   0.5982   0.6006     H
C       0.1865   0.6392   0.6107     C
C       0.1893  0.56357  0.27622     C
H       0.1895    0.821    0.161     H
C       0.1898   0.2395   0.8423     C
O       0.1898   0.8923   0.0849     O
C       0.1928   0.5382  0.85835     C
C       0.1949   0.0988   0.2557     C
C        0.199   0.5874   0.2362     C
C        0.199   0.6957   0.7943     C
H       0.2004   0.8461   0.4338     H
H        0.203   0.2298   0.3513     H
C       0.2044   0.3579   0.8824     C
C       0.2052   0.6678   0.1102     C
C       0.2053  0.34351   0.7158     C
C       0.2077   0.2515   0.0603     C
C       0.2077  0.94725  0.26309     C
C        0.208   0.6452   0.1518     C
O        0.209  0.67874   0.3955     O
H       0.2091   0.3992   0.8969     H
H       0.2096    0.994   0.1644     H
C       0.2103   0.1891   0.5915     C
O       0.2112   0.4459   0.1168     O
C       0.2127  0.43671  0.78447     C
C       0.2137   0.8513   0.1926     C
Sr     0.21521  0.76729  0.00014    Sr
O       0.2187  0.21686  0.55877     O
C       0.2187   0.3714   0.3377     C
C       0.2214   0.1962   0.3206     C
H       0.2233   0.1385   0.0511     H
C        0.224  0.60079   0.7309     C
C       0.2256   0.3584   0.3857     C
C       0.2287   0.3956   0.5835     C
H       0.2292   0.8782   0.8201     H
C       0.2293   0.0492  0.80322     C
C       0.2296   0.4984   0.6566     C
C       0.2364   0.4273   0.1535     C
H       0.2365   0.1412   0.6678     H
O       0.2383   0.2955   0.0556     O
O       0.2389  0.03255  0.84291     O
C       0.2393   0.7228   0.5934     C
C       0.2399   0.6631   0.5804     C
O       0.2411  0.65731  0.91976     O
C       0.2414   0.8265   0.4048     C
H       0.2432   0.0932   0.7241     H
H        0.244   0.5518   0.8453     H
H       0.2452   0.4056   0.2476     H
C       0.2479   0.7664   0.3842     C
C       0.2521   0.2664   0.8842     C
H       0.2548   0.9056   0.7476     H
H        0.256   0.0518   0.3453     H
H       0.2568   0.5932   0.2241     H
C       0.2586   0.3265   0.9048     C
O       0.2589  0.15731  0.41976     O
C       0.2601   0.1631   0.0804     C
C       0.2607   0.2228   0.0934     C
O       0.2611  0.53255  0.34291     O
O       0.2617   0.7955   0.5556     O
H       0.2635   0.6412   0.1678     H
C       0.2636   0.9273   0.6535     C
C       0.2704   0.9984   0.1566     C
C       0.2707   0.5492  0.30322     C
H       0.2708   0.3782   0.3201     H
C       0.2713   0.8956   0.0835     C
C       0.2744   0.8584   0.8857     C
C        0.276  0.10079   0.2309     C
H       0.2767   0.6385   0.5511     H
C       0.2786   0.6962   0.8206     C
O       0.2813  0.71686  0.05877     O
C       0.2813   0.8714   0.8377     C
Sr     0.28479  0.26729  0.50014    Sr
C       0.2863   0.3513   0.6926     C
C       0.2873  0.93671  0.28447     C
O       0.2888   0.9459   0.6168     O
C       0.2897   0.6891   0.0915     C
H       0.2904    0.494   0.6644     H
H       0.2909   0.8992   0.3969     H
O        0.291  0.17874   0.8955     O
C        0.292   0.1452   0.6518     C
C       0.2923  0.44725  0.76309     C
C       0.2923   0.7515   0.5603     C
C       0.2947  0.84351   0.2158     C
C       0.2948   0.1678   0.6102     C
C       0.2956   0.8579   0.3824     C
H        0.297   0.7298   0.8513     H
H       0.2996   0.3461   0.9338     H
C        0.301   0.0874   0.7362     C
C        0.301   0.1957   0.2943     C
C       0.3051   0.5988   0.7557     C
C       0.3072   0.0382  0.35835     C
O       0.3102   0.3923   0.5849     O
C       0.3102   0.7395   0.3423     C
H       0.3105    0.321    0.661     H
C       0.3107  0.06357  0.77622     C
C       0.3135   0.1392   0.1107     C
H       0.3138   0.0982   0.1006     H
C       0.3143   0.2571   0.1373     C
C       0.3143   0.9004    0.734     C
C       0.3146   0.2295    0.904     C
C       0.3149    0.051   0.1846     C
C       0.3158   0.3476    0.407     C
O       0.3164   0.3154   0.4348     O
O       0.3164   0.4224   0.1669     O
C       0.3167  0.95271    0.117     C
H        0.317    0.298    0.147     H
H       0.3175   0.6984   0.3283     H
O       0.3188  0.85296   0.0582     O
H       0.3211   0.4839   0.7801     H
H       0.3253   0.8076   0.1989     H
N       0.3296  0.14907  0.25022     N
C       0.3307  0.40427  0.71658     C
N       0.3309  0.88481  0.26111     N
C       0.3319  0.64697  0.80189     C
C        0.333   0.9801  0.33352     C
C       0.3338   0.1409   0.4284     C
C        0.335   0.9085   0.6847     C
H       0.3375   0.2295   0.3076     H
H       0.3419   0.5652   0.7414     H
O       0.3462  0.55714  0.28427     O
H       0.3485   0.8466   0.9461     H
C       0.3514   0.8529    0.912     C
N       0.3543  0.83217  0.34123     N
C       0.3571  0.07638  0.40259     C
C       0.3609    0.773   0.3213     C
O       0.3631   0.6774   0.1076     O
C       0.3638  0.23097   0.1672     C
N       0.3647  0.17247  0.15363     N
C       0.3657  0.87418   0.8155     C
O       0.3662   0.7264     0.54     O
C       0.3712   0.1283   0.6704     C
C       0.3755    0.103   0.7135     C
C       0.3771   0.1719   0.5869     C
C       0.3804  0.88496   0.7634     C
H       0.3809   0.1858   0.5573     H
O       0.3824   0.3694  0.39382     O
O       0.3836  0.75012    0.971     O
O       0.3872  0.25278  0.92456     O
H       0.3885   0.3472   0.2206     H
O       0.3925    0.175  0.45823     O
C       0.3971   0.0533  0.79149     C
N       0.4005  0.06009  0.17129     N
N       0.4039  0.95857  0.35216     N
H       0.4059   0.0351   0.8176     H
C       0.4061   0.9604   0.1077     C
C       0.4173   0.6443   0.8323     C
H       0.4179   0.6623   0.2633     H
C       0.4182   0.4167  0.69352     C
O       0.4194   0.4443   0.2875     O
C       0.4208  0.26464   0.2148     C
H       0.4221   0.3023   0.8459     H
C       0.4238   0.9001   0.6664     C
C       0.4239   0.3256   0.2365     C
C       0.4251   0.7482   0.2751     C
H       0.4261     0.66   0.6673     H
C       0.4293   0.0538   0.4218     C
C       0.4343   0.8564   0.8887     C
Sr      0.4348  0.54528  0.36949    Sr
O       0.4372   0.4133    0.868     O
H        0.438   0.7619    0.706     H
Ru     0.43921  0.87378  0.30576    Ru
N       0.4396  0.86541  0.84005     N
H       0.4398   0.9288   0.0828     H
H       0.4406   0.9055   0.6332     H
Ru     0.44399  0.14436  0.20487    Ru
O        0.444  0.46897  0.71225     O
C        0.444   0.6893   0.2496     C
Sr     0.44425  0.48495  0.20797    Sr
C       0.4462   0.0142   0.1347     C
O       0.4462   0.6902  0.86851     O
C       0.4498   0.9955   0.3964     C
N        0.452  0.13468  0.64882     N
O       0.4528   0.5953   0.8179     O
C       0.4537   0.1552   0.6075     C
H       0.4542   0.1222   0.3163     H
H       0.4552   0.2042    0.801     H
O       0.4588  0.37612   0.6564     O
N       0.4604  0.09475  0.72927     N
C       0.4613   0.2901   0.8147     C
H       0.4641   0.0784   0.4522     H
N       0.4641  0.78795  0.25695     N
Sr     0.46558  0.70187  0.03654    Sr
N       0.4665  0.87718  0.74533     N
C       0.4668   0.6785   0.6969     C
N       0.4689  0.23246  0.23758     N
C       0.4691   0.0702   0.7676     C
O       0.4721  0.55455   0.6531     O
H       0.4727   0.9359   0.2212     H
C       0.4745   0.7394   0.7204     C
C       0.4766  0.41965  0.30716     C
C       0.4786   0.3942   0.8234     C
C       0.4791  0.35398   0.2817     C
C       0.4811   0.2316   0.7877     C
C       0.4863   0.8842    0.697     C
H       0.4873   0.8524    0.907     H
H       0.4904   0.8415   0.4084     H
O       0.4914   0.5751   0.2012     O
H       0.4929   0.9809   0.8726     H
H       0.4983   0.9805   0.4105     H
C       0.4984   0.3303   0.7962     C
C       0.5016   0.6697   0.2038     C
H       0.5017   0.0195   0.5895     H
H       0.5071   0.0191   0.1274     H
O       0.5086   0.4249   0.7988     O
H       0.5096   0.1585   0.5916     H
H       0.5127   0.1476    0.093     H
C       0.5137   0.1158    0.303     C
C       0.5189   0.7684   0.2123     C
C       0.5209  0.64602   0.7183     C
C       0.5214   0.6058   0.1766     C
C       0.5234  0.58035  0.69284     C
C       0.5255   0.2606   0.2796     C
H       0.5273   0.0641   0.7788     H
O       0.5279  0.44545   0.3469     O
C       0.5309   0.9298   0.2324     C
N       0.5311  0.76754  0.76242     N
C       0.5332   0.3215   0.3031     C
N       0.5335  0.12282  0.25467     N
Sr     0.53442  0.29813  0.96346    Sr
N       0.5359  0.21205  0.74305     N
H       0.5359   0.9216   0.5478     H
C       0.5387   0.7099   0.1853     C
N       0.5396  0.90525  0.27073     N
O       0.5412  0.62388   0.3436     O
H       0.5448   0.7958    0.199     H
H       0.5458   0.8778   0.6837     H
C       0.5463   0.8448   0.3925     C
O       0.5472   0.4047   0.1821     O
N        0.548  0.86532  0.35118     N
C       0.5502   0.0045   0.6036     C
O       0.5538   0.3098  0.13149     O
C       0.5538   0.9858   0.8653     C
Sr     0.55575  0.51505  0.79203    Sr
C        0.556   0.3107   0.7504     C
O        0.556  0.53103  0.28775     O
Ru     0.55601  0.85564  0.79513    Ru
H       0.5594   0.0945   0.3668     H
H       0.5602   0.0712   0.9172     H
N       0.5604  0.13459  0.15995     N
Ru     0.56079  0.12622  0.69424    Ru
H        0.562   0.2381    0.294     H
O       0.5628   0.5867    0.132     O
Sr      0.5652  0.45472  0.63051    Sr
C       0.5657   0.1436   0.1113     C
C       0.5707   0.9462   0.5782     C
H       0.5739     0.34   0.3327     H
C       0.5749   0.2518   0.7249     C
C       0.5761   0.6744   0.7635     C
C       0.5762   0.0999   0.3336     C
H       0.5779   0.6977   0.1541     H
C       0.5792  0.73536   0.7852     C
O       0.5806   0.5557   0.7125     O
C       0.5818   0.5833  0.30648     C
H       0.5821   0.3377   0.7367     H
C       0.5827   0.3557   0.1677     C
C       0.5939   0.0396   0.8923     C
H       0.5941   0.9649   0.1824     H
N       0.5961  0.04143  0.64784     N
N       0.5995  0.93991  0.82871     N
C       0.6029   0.9467  0.20851     C
O       0.6075    0.825  0.54177     O
H       0.6115   0.6528   0.7794     H
O       0.6128  0.74722  0.07544     O
O       0.6164  0.24988    0.029     O
O       0.6176   0.6306  0.60618     O
H       0.6191   0.8142   0.4427     H
C       0.6196  0.11504   0.2366     C
C       0.6229   0.8281   0.4131     C
C       0.6245    0.897   0.2865     C
C       0.6288   0.8717   0.3296     C
O       0.6338   0.2736     0.46     O
C       0.6343  0.12582   0.1845     C
N       0.6353  0.82753  0.84637     N
C       0.6362  0.76903   0.8328     C
O       0.6369   0.3226   0.8924     O
C       0.6391    0.227   0.6787     C
C       0.6429  0.92362  0.59741     C
N       0.6457  0.16783  0.65877     N
C       0.6486   0.1471    0.088     C
H       0.6515   0.1534   0.0539     H
O       0.6538  0.44286  0.71573     O
H       0.6581   0.4348   0.2586     H
H       0.6625   0.7705   0.6924     H
C        0.665   0.0915   0.3153     C
C       0.6662   0.8591   0.5716     C
C        0.667   0.0199  0.66648     C
C       0.6681  0.35303  0.19811     C
N       0.6691  0.11519  0.73889     N
C       0.6693  0.59573  0.28342     C
N       0.6704  0.85093  0.74978     N
H       0.6747   0.1924   0.8011     H
H       0.6789   0.5161   0.2199     H
O       0.6812  0.14704   0.9418     O
H       0.6825   0.3016   0.6717     H
H        0.683    0.702    0.853     H
C       0.6833  0.04729    0.883     C
O       0.6836   0.5776   0.8331     O
O       0.6836   0.6846   0.5652     O
C       0.6842   0.6524    0.593     C
C       0.6851    0.949   0.8154     C
C       0.6854   0.7705    0.096     C
C       0.6857   0.0996    0.266     C
C       0.6857   0.7429   0.8627     C
H       0.6862   0.9018   0.8994     H
C       0.6865   0.8608   0.8893     C
C       0.6893  0.93643  0.22378     C
H       0.6895    0.679    0.339     H
C       0.6898   0.2605   0.6577     C
O       0.6898   0.6077   0.4151     O
C       0.6928   0.9618  0.64165     C
C       0.6949   0.4012   0.2443     C
C        0.699   0.8043   0.7057     C
C        0.699   0.9126   0.2638     C
H       0.7004   0.6539   0.0662     H
H        0.703   0.2702   0.1487     H
C       0.7044   0.1421   0.6176     C
C       0.7052   0.8322   0.3898     C
C       0.7053  0.15649   0.7842     C
C       0.7077   0.2485   0.4397     C
C       0.7077  0.55275  0.23691     C
C        0.708   0.8548   0.3482     C
O        0.709  0.82126   0.1045     O
H       0.7091   0.1008   0.6031     H
H       0.7096    0.506   0.3356     H
C       0.7103   0.3109   0.9085     C
O       0.7112   0.0541   0.3832     O
C       0.7127  0.06329  0.71553     C
C       0.7137   0.6487   0.3074     C
Sr     0.71521  0.73271  0.49986    Sr
C       0.7187   0.1286   0.1623     C
O       0.7187  0.28314  0.94123     O
C       0.7214   0.3038   0.1794     C
H       0.7233   0.3615   0.4489     H
C        0.724  0.89921   0.7691     C
C       0.7256   0.1416   0.1143     C
C       0.7287   0.1044   0.9165     C
H       0.7292   0.6218   0.6799     H
C       0.7293   0.4508  0.69678     C
C       0.7296   0.0016   0.8434     C
C       0.7364   0.0727   0.3465     C
H       0.7365   0.3588   0.8322     H
O       0.7383   0.2045   0.4444     O
O       0.7389  0.46745  0.65709     O
C       0.7393   0.7772   0.9066     C
C       0.7399   0.8369   0.9196     C
O       0.7411  0.84269  0.58024     O
C       0.7414   0.6735   0.0952     C
H       0.7432   0.4068   0.7759     H
H        0.744   0.9482   0.6547     H
H       0.7452   0.0944   0.2524     H
C       0.7479   0.7336   0.1158     C
C       0.7521   0.2336   0.6158     C
H       0.7548   0.5944   0.7524     H
H        0.756   0.4482   0.1547     H
H       0.7568   0.9068   0.2759     H
C       0.7586   0.1735   0.5952     C
O       0.7589  0.34269  0.08024     O
C       0.7601   0.3369   0.4196     C
C       0.7607   0.2772   0.4066     C
O       0.7611  0.96745  0.15709     O
O       0.7617   0.7045   0.9444     O
H       0.7635   0.8588   0.3322     H
C       0.7636   0.5727   0.8465     C
C       0.7704   0.5016   0.3434     C
C       0.7707   0.9508  0.19678     C
H       0.7708   0.1218   0.1799     H
C       0.7713   0.6044   0.4165     C
C       0.7744   0.6416   0.6143     C
C        0.776  0.39921   0.2691     C
H       0.7767   0.8615   0.9489     H
C       0.7786   0.8038   0.6794     C
C       0.7813   0.6286   0.6623     C
O       0.7813  0.78314  0.44123     O
Sr     0.78479  0.23271  0.99986    Sr
C       0.7863   0.1487   0.8074     C
C       0.7873  0.56329  0.21553     C
O       0.7888   0.5541   0.8832     O
C       0.7897   0.8109   0.4085     C
H       0.7904    0.006   0.8356     H
H       0.7909   0.6008   0.1031     H
O        0.791  0.32126   0.6045     O
C        0.792   0.3548   0.8482     C
C       0.7923  0.05275  0.73691     C
C       0.7923   0.7485   0.9397     C
C       0.7947  0.65649   0.2842     C
C       0.7948   0.3322   0.8898     C
C       0.7956   0.6421   0.1176     C
H        0.797   0.7702   0.6487     H
H       0.7996   0.1539   0.5662     H
C        0.801   0.3043   0.2057     C
C        0.801   0.4126   0.7638     C
C       0.8051   0.9012   0.7443     C
C       0.8072   0.4618  0.14165     C
O       0.8102   0.1077   0.9151     O
C       0.8102   0.7605   0.1577     C
H       0.8105    0.179    0.839     H
C       0.8107  0.43643  0.72378     C
C       0.8135   0.3608   0.3893     C
H       0.8138   0.4018   0.3994     H
C       0.8143   0.2429   0.3627     C
C       0.8143   0.5996    0.766     C
C       0.8146   0.2705    0.596     C
C       0.8149    0.449   0.3154     C
C       0.8158   0.1524    0.093     C
O       0.8164   0.0776   0.3331     O
O       0.8164   0.1846   0.0652     O
C       0.8167  0.54729    0.383     C
H        0.817    0.202    0.353     H
H       0.8175   0.8016   0.1717     H
O       0.8188  0.64704   0.4418     O
H       0.8211   0.0161   0.7199     H
H       0.8253   0.6924   0.3011     H
N       0.8296  0.35093  0.24978     N
C       0.8307  0.09573  0.78342     C
N       0.8309  0.61519  0.23889     N
C       0.8319  0.85303  0.69811     C
C        0.833   0.5199  0.16648     C
C       0.8338   0.3591   0.0716     C
C        0.835   0.5915   0.8153     C
H       0.8375   0.2705   0.1924     H
H       0.8419   0.9348   0.7586     H
O       0.8462  0.94286  0.21573     O
H       0.8485   0.6534   0.5539     H
C       0.8514   0.6471    0.588     C
N       0.8543  0.66783  0.15877     N
C       0.8571  0.42362  0.09741     C
C       0.8609    0.727   0.1787     C
O       0.8631   0.8226   0.3924     O
C       0.8638  0.26903   0.3328     C
N       0.8647  0.32753  0.34637     N
C       0.8657  0.62582   0.6845     C
O       0.8662   0.7736     0.96     O
C       0.8712   0.3717   0.8296     C
C       0.8755    0.397   0.7865     C
C       0.8771   0.3281   0.9131     C
C       0.8804  0.61504   0.7366     C
H       0.8809   0.3142   0.9427     H
O       0.8824   0.1306  0.10618     O
O       0.8836  0.74988    0.529     O
O       0.8872  0.24722  0.57544     O
H       0.8885   0.1528   0.2794     H
O       0.8925    0.325  0.04177     O
C       0.8971   0.4467  0.70851     C
N       0.9005  0.43991  0.32871     N
N       0.9039  0.54143  0.14784     N
H       0.9059   0.4649   0.6824     H
C       0.9061   0.5396   0.3923     C
C       0.9173   0.8557   0.6677     C
H       0.9179   0.8377   0.2367     H
C       0.9182   0.0833  0.80648     C
O       0.9194   0.0557   0.2125     O
C       0.9208  0.23536   0.2852     C
H       0.9221   0.1977   0.6541     H
C       0.9238   0.5999   0.8336     C
C       0.9239   0.1744   0.2635     C
C       0.9251   0.7518   0.2249     C
H       0.9261     0.84   0.8327     H
C       0.9293   0.4462   0.0782     C
C       0.9343   0.6436   0.6113     C
Sr      0.9348  0.95472  0.13051    Sr
O       0.9372   0.0867    0.632     O
H        0.938   0.7381    0.794     H
Ru     0.93921  0.62622  0.19424    Ru
N       0.9396  0.63459  0.65995     N
H       0.9398   0.5712   0.4172     H
H       0.9406   0.5945   0.8668     H
Ru     0.94399  0.35564  0.29513    Ru
O        0.944  0.03103  0.78775     O
C        0.944   0.8107   0.2504     C
Sr     0.94425  0.01505  0.29203    Sr
C       0.9462   0.4858   0.3653     C
O       0.9462   0.8098  0.63149     O
C       0.9498   0.5045   0.1036     C
N        0.952  0.36532  0.85118     N
O       0.9528   0.9047   0.6821     O
C       0.9537   0.3448   0.8925     C
H       0.9542   0.3778   0.1837     H
H       0.9552   0.2958    0.699     H
O       0.9588  0.12388   0.8436     O
N       0.9604  0.40525  0.77073     N
C       0.9613   0.2099   0.6853     C
H       0.9641   0.4216   0.0478     H
N       0.9641  0.71205  0.24305     N
Sr     0.96558  0.79813  0.46346    Sr
N       0.9665  0.62282  0.75467     N
C       0.9668   0.8215   0.8031     C
N       0.9689  0.26754  0.26242     N
C       0.9691   0.4298   0.7324     C
O       0.9721  0.94545   0.8469     O
H       0.9727   0.5641   0.2788     H
C       0.9745   0.7606   0.7796     C
C       0.9766  0.08035  0.19284     C
C       0.9786   0.1058   0.6766     C
C       0.9791  0.14602   0.2183     C
C       0.9811   0.2684   0.7123     C
C       0.9863   0.6158    0.803     C
H       0.9873   0.6476    0.593     H
H       0.9904   0.6585   0.0916     H
O       0.9914   0.9249   0.2988     O
H       0.9929   0.5191   0.6274     H
H       0.9983   0.5195   0.0895     H
C       0.9984   0.1697   0.7038     C
