data_I
_chemical_name_common  '/home/zhangsd/repos/MofS-CGCNN/ML/data/TSD/clean_cifs/QOCBUH_clean'
_cell_length_a 25.29700
_cell_length_b  4.88610
_cell_length_c 24.26800
_cell_angle_alpha 90.00000
_cell_angle_beta  118.28500
_cell_angle_gamma 90.00000
_space_group_name_H-M_alt      'P 1'


loop_
_space_group_symop_operation_xyz
  'x, y, z' 

loop_
_atom_site_label
_atom_site_fract_x
_atom_site_fract_y
_atom_site_fract_z
_atom_site_type_symbol
O      0.00388   0.4619  0.67146     O
O      0.00388   0.5381  0.17146     O
H       0.0539   0.0204   0.3836     H
H       0.0539   0.9796   0.8836     H
O      0.05656   0.0061  0.85164     O
O      0.05656   0.9939  0.35164     O
Be     0.05909   0.3398   0.8407    Be
Be     0.05909   0.6602   0.3407    Be
P      0.06601  0.48867  0.22543     P
P      0.06601  0.51133  0.72543     P
O      0.06912   0.1668  0.23025     O
O      0.06912   0.8332  0.73025     O
O      0.07575   0.3937  0.78611     O
O      0.07575   0.6063  0.28611     O
H       0.1042   0.1172    0.245     H
H       0.1042   0.8828    0.745     H
O      0.11163   0.4501  0.90621     O
O      0.11163   0.5499  0.40621     O
O      0.11361   0.4157  0.70884     O
O      0.11361   0.5843  0.20884     O
P       0.1774   0.4773   0.4346     P
P       0.1774   0.5227   0.9346     P
Be     0.18225    0.324  0.74803    Be
Be     0.18225    0.676  0.24803    Be
O      0.18362   0.1791   0.4203     O
O      0.18362   0.8209   0.9203     O
O        0.185   0.0133  0.77367     O
O        0.185   0.9867  0.27367     O
O      0.20735   0.4592  0.00346     O
O      0.20735   0.5408  0.50346     O
O      0.20933   0.3406  0.90469     O
O      0.20933   0.6594  0.40469     O
O      0.21229   0.3539  0.70371     O
O      0.21229   0.6461  0.20371     O
O       0.2175   0.4661  0.31191     O
O       0.2175   0.5339  0.81191     O
O      0.23383   0.4304  0.61629     O
O      0.23383   0.5696  0.11629     O
Be     0.23734   0.0169  0.92793    Be
Be     0.23734   0.9831  0.42793    Be
P      0.23952  0.16228  0.31549     P
P      0.23952  0.83772  0.81549     P
P      0.26048  0.33772  0.68451     P
P      0.26048  0.66228  0.18451     P
Be     0.26266   0.4831  0.07207    Be
Be     0.26266   0.5169  0.57207    Be
O      0.26617   0.0696  0.38371     O
O      0.26617   0.9304  0.88371     O
O       0.2825   0.0339  0.68809     O
O       0.2825   0.9661  0.18809     O
O      0.28771   0.1461  0.29629     O
O      0.28771   0.8539  0.79629     O
O      0.29067   0.1594  0.09531     O
O      0.29067   0.8406  0.59531     O
O      0.29265   0.0408  0.99654     O
O      0.29265   0.9592  0.49654     O
O        0.315   0.4867  0.22633     O
O        0.315   0.5133  0.72633     O
O      0.31638   0.3209   0.5797     O
O      0.31638   0.6791   0.0797     O
Be     0.31775    0.176  0.25197    Be
Be     0.31775    0.824  0.75197    Be
P       0.3226   0.0227   0.5654     P
P       0.3226   0.9773   0.0654     P
O      0.38639   0.0843  0.29116     O
O      0.38639   0.9157  0.79116     O
O      0.38837   0.0499  0.09379     O
O      0.38837   0.9501  0.59379     O
H       0.3958   0.3828    0.755     H
H       0.3958   0.6172    0.255     H
O      0.42425   0.1063  0.21389     O
O      0.42425   0.8937  0.71389     O
O      0.43088   0.3332  0.76975     O
O      0.43088   0.6668  0.26975     O
P      0.43399  0.01133  0.77457     P
P      0.43399  0.98867  0.27457     P
Be     0.44091   0.1602   0.1593    Be
Be     0.44091   0.8398   0.6593    Be
O      0.44344   0.4939  0.14836     O
O      0.44344   0.5061  0.64836     O
H       0.4461   0.4796   0.6164     H
H       0.4461   0.5204   0.1164     H
O      0.49612   0.0381  0.32854     O
O      0.49612   0.9619  0.82854     O
O      0.50388   0.0381  0.17146     O
O      0.50388   0.9619  0.67146     O
H       0.5539   0.4796   0.8836     H
H       0.5539   0.5204   0.3836     H
O      0.55656   0.4939  0.35164     O
O      0.55656   0.5061  0.85164     O
Be     0.55909   0.1602   0.3407    Be
Be     0.55909   0.8398   0.8407    Be
P      0.56601  0.01133  0.72543     P
P      0.56601  0.98867  0.22543     P
O      0.56912   0.3332  0.73025     O
O      0.56912   0.6668  0.23025     O
O      0.57575   0.1063  0.28611     O
O      0.57575   0.8937  0.78611     O
H       0.6042   0.3828    0.745     H
H       0.6042   0.6172    0.245     H
O      0.61163   0.0499  0.40621     O
O      0.61163   0.9501  0.90621     O
O      0.61361   0.0843  0.20884     O
O      0.61361   0.9157  0.70884     O
P       0.6774   0.0227   0.9346     P
P       0.6774   0.9773   0.4346     P
Be     0.68225    0.176  0.24803    Be
Be     0.68225    0.824  0.74803    Be
O      0.68362   0.3209   0.9203     O
O      0.68362   0.6791   0.4203     O
O        0.685   0.4867  0.27367     O
O        0.685   0.5133  0.77367     O
O      0.70735   0.0408  0.50346     O
O      0.70735   0.9592  0.00346     O
O      0.70933   0.1594  0.40469     O
O      0.70933   0.8406  0.90469     O
O      0.71229   0.1461  0.20371     O
O      0.71229   0.8539  0.70371     O
O       0.7175   0.0339  0.81191     O
O       0.7175   0.9661  0.31191     O
O      0.73383   0.0696  0.11629     O
O      0.73383   0.9304  0.61629     O
Be     0.73734   0.4831  0.42793    Be
Be     0.73734   0.5169  0.92793    Be
P      0.73952  0.33772  0.81549     P
P      0.73952  0.66228  0.31549     P
P      0.76048  0.16228  0.18451     P
P      0.76048  0.83772  0.68451     P
Be     0.76266   0.0169  0.57207    Be
Be     0.76266   0.9831  0.07207    Be
O      0.76617   0.4304  0.88371     O
O      0.76617   0.5696  0.38371     O
O       0.7825   0.4661  0.18809     O
O       0.7825   0.5339  0.68809     O
O      0.78771   0.3539  0.79629     O
O      0.78771   0.6461  0.29629     O
O      0.79067   0.3406  0.59531     O
O      0.79067   0.6594  0.09531     O
O      0.79265   0.4592  0.49654     O
O      0.79265   0.5408  0.99654     O
O        0.815   0.0133  0.72633     O
O        0.815   0.9867  0.22633     O
O      0.81638   0.1791   0.0797     O
O      0.81638   0.8209   0.5797     O
Be     0.81775    0.324  0.75197    Be
Be     0.81775    0.676  0.25197    Be
P       0.8226   0.4773   0.0654     P
P       0.8226   0.5227   0.5654     P
O      0.88639   0.4157  0.79116     O
O      0.88639   0.5843  0.29116     O
O      0.88837   0.4501  0.59379     O
O      0.88837   0.5499  0.09379     O
H       0.8958   0.1172    0.255     H
H       0.8958   0.8828    0.755     H
O      0.92425   0.3937  0.71389     O
O      0.92425   0.6063  0.21389     O
O      0.93088   0.1668  0.26975     O
O      0.93088   0.8332  0.76975     O
P      0.93399  0.48867  0.27457     P
P      0.93399  0.51133  0.77457     P
Be     0.94091   0.3398   0.6593    Be
Be     0.94091   0.6602   0.1593    Be
O      0.94344   0.0061  0.64836     O
O      0.94344   0.9939  0.14836     O
H       0.9461   0.0204   0.1164     H
H       0.9461   0.9796   0.6164     H
O      0.99612   0.4619  0.82854     O
O      0.99612   0.5381  0.32854     O
