data_I
_chemical_name_common  '/home/zhangsd/repos/MofS-CGCNN/ML/data/TSD/clean_cifs/QODHUO11_clean'
_cell_length_a 22.08700
_cell_length_b 16.31720
_cell_length_c 25.62790
_cell_angle_alpha 90.00000
_cell_angle_beta  115.26500
_cell_angle_gamma 90.00000
_space_group_name_H-M_alt      'P 1'


loop_
_space_group_symop_operation_xyz
  'x, y, z' 

loop_
_atom_site_label
_atom_site_fract_x
_atom_site_fract_y
_atom_site_fract_z
_atom_site_type_symbol
C       0.0023   0.4272   0.9071     C
C       0.0023   0.5728   0.4071     C
C       0.0033   0.3837   0.9965     C
C       0.0033   0.6163   0.4965     C
H       0.0205   0.4565   0.8861     H
H       0.0205   0.5435   0.3861     H
H       0.0228   0.3822   0.0366     H
H       0.0228   0.6178   0.5366     H
C       0.0259   0.1648   0.0001     C
C       0.0259   0.8352   0.5001     C
C       0.0272   0.1456    0.616     C
C       0.0272   0.8544    0.116     C
C       0.0332   0.1879   0.9112     C
C       0.0332   0.8121   0.4112     C
C       0.0334   0.1247   0.5307     C
C       0.0334   0.4262   0.9671     C
C       0.0334   0.5738   0.4671     C
C       0.0334   0.8753   0.0307     C
H        0.043   0.1695     0.04     H
H        0.043   0.8305     0.54     H
H       0.0447   0.1379   0.6557     H
H       0.0447   0.8621   0.1557     H
H        0.055   0.2088     0.89     H
H        0.055   0.7912     0.39     H
H       0.0557   0.1024   0.5104     H
H       0.0557   0.8976   0.0104     H
C       0.0564   0.3835   0.6204     C
C       0.0564   0.6165   0.1204     C
C       0.0565   0.3433   0.5352     C
C       0.0565   0.6567   0.0352     C
C       0.0598   0.1981   0.9701     C
C       0.0598   0.8019   0.4701     C
N        0.061   0.1157   0.5879     N
N        0.061   0.8843   0.0879     N
H       0.0761   0.3824   0.6606     H
H       0.0761   0.6176   0.1606     H
H       0.0767   0.3152   0.5152     H
H       0.0767   0.6848   0.0152     H
N       0.0867   0.3426  0.59278     N
N       0.0867   0.6574  0.09278     N
C       0.0977   0.4699    0.001     C
C       0.0977   0.5301    0.501     C
N       0.1228   0.4627   0.0589     N
N       0.1228   0.5373   0.5589     N
C       0.1237   0.2432   0.0024     C
C       0.1237   0.7568   0.5024     C
N       0.1263   0.4888  0.47315     N
N       0.1263   0.5112  0.97315     N
H        0.132   0.0176   0.0056     H
H        0.132   0.9824   0.5056     H
H       0.1323   0.1795   0.7328     H
H       0.1323   0.8205   0.2328     H
H       0.1352   0.4388   0.1616     H
H       0.1352   0.5612   0.6616     H
H       0.1435   0.4125   0.3963     H
H       0.1435   0.5875   0.8963     H
H       0.1479   0.0212   0.2366     H
H       0.1479   0.9788   0.7366     H
N        0.148   0.2895   0.9726     N
N        0.148   0.7105   0.4726     N
H       0.1503   0.2036   0.5001     H
H       0.1503   0.7964   0.0001     H
N       0.1529   0.2319  0.05923     N
N       0.1529   0.7681  0.55923     N
Ag     0.15603  0.04283  0.63224    Ag
Ag     0.15603  0.95717  0.13224    Ag
H       0.1621   0.3666   0.8939     H
H       0.1621   0.6334   0.3939     H
C       0.1717   0.2071   0.7554     C
C       0.1717   0.7929   0.2554     C
C        0.174   0.0408   0.0259     C
C        0.174   0.9592   0.5259     C
H        0.176   0.1651   0.8315     H
H        0.176   0.8349   0.3315     H
Ag     0.17704  0.25212  0.63277    Ag
Ag     0.17704  0.74788  0.13277    Ag
H       0.1773   0.1802   0.1563     H
H       0.1773   0.8198   0.6563     H
C       0.1792   0.4563   0.1815     C
C       0.1792   0.5437   0.6815     C
H       0.1796   0.0883   0.9551     H
H       0.1796   0.9117   0.4551     H
C       0.1804   0.4977   0.5884     C
C       0.1804   0.5023   0.0884     C
C       0.1825   0.4483   0.5067     C
C       0.1825   0.5517   0.0067     C
C       0.1855   0.3902   0.4182     C
C       0.1855   0.6098   0.9182     C
H        0.189   0.4221   0.2595     H
H        0.189   0.5779   0.7595     H
C       0.1919   0.1797   0.5211     C
C       0.1919   0.8203   0.0211     C
C       0.1921   0.0048   0.2573     C
C       0.1921   0.9952   0.7573     C
C       0.1977   0.1975   0.8149     C
C       0.1977   0.8025   0.3149     C
H       0.1978   0.0402   0.3352     H
H       0.1978   0.9598   0.8352     H
N       0.1996   0.2536   0.7287     N
H       0.1996   0.3435   0.3519     H
H       0.1996   0.6565   0.8519     H
N       0.1996   0.7464   0.2287     N
H       0.2015    0.134   0.4511     H
H       0.2015    0.866   0.9511     H
C       0.2019    0.084   0.9951     C
C       0.2019    0.916   0.4951     C
C        0.204   0.3897   0.9152     C
C        0.204   0.6103   0.4152     C
N       0.2043   0.0303  0.08344     N
N       0.2043   0.9697  0.58344     N
C       0.2056   0.3279   0.0052     C
C       0.2056   0.6721   0.5052     C
C       0.2098   0.2731   0.0876     C
C       0.2098   0.7269   0.5876     C
N       0.2115   0.4501  0.56485     N
N       0.2115   0.5499  0.06485     N
C       0.2119   0.4465   0.2404     C
C       0.2119   0.5535   0.7404     C
C       0.2123   0.4924    0.152     C
C       0.2123   0.5076    0.652     C
H       0.2134   0.4414   0.8484     H
H       0.2134   0.5586   0.3484     H
C       0.2151   0.3987   0.4774     C
C       0.2151   0.6013   0.9774     C
C       0.2154   0.2106   0.1781     C
C       0.2154   0.7894   0.6781     C
C       0.2196   0.3479   0.3919     C
C       0.2196   0.6521   0.8919     C
N         0.22   0.1872   0.5786     N
N         0.22   0.8128   0.0786     N
C       0.2218   0.0166   0.3167     C
C       0.2218   0.9834   0.8167     C
C       0.2224   0.1377   0.4911     C
C       0.2224   0.8623   0.9911     C
N       0.2241   0.0291   0.7283     N
N       0.2241   0.9709   0.2283     N
H       0.2257     0.17   0.2547     H
H       0.2257     0.83   0.7547     H
C       0.2353   0.4348   0.8882     C
C       0.2353   0.5652   0.3882     C
C       0.2362   0.3791   0.9749     C
C       0.2362   0.6209   0.4749     C
N       0.2382   0.3225  0.06314     N
N       0.2382   0.6775  0.56314     N
C       0.2433   0.2627   0.1514     C
C       0.2433   0.7373   0.6514     C
C        0.245   0.2047   0.2372     C
C        0.245   0.7953   0.7372     C
C        0.255   0.2953   0.7628     C
C        0.255   0.7047   0.2628     C
C       0.2567   0.2373   0.8486     C
C       0.2567   0.7627   0.3486     C
N       0.2618   0.1775  0.93686     N
N       0.2618   0.8225  0.43686     N
C       0.2638   0.1209   0.0251     C
C       0.2638   0.8791   0.5251     C
C       0.2647   0.0652   0.1118     C
C       0.2647   0.9348   0.6118     C
H       0.2743     0.33   0.7453     H
H       0.2743     0.67   0.2453     H
N       0.2759   0.4709   0.2717     N
N       0.2759   0.5291   0.7717     N
C       0.2776   0.3623   0.5089     C
C       0.2776   0.6377   0.0089     C
C       0.2782   0.4834   0.6833     C
C       0.2782   0.5166   0.1833     C
N         0.28   0.3128   0.4214     N
N         0.28   0.6872   0.9214     N
C       0.2804   0.1521   0.6081     C
C       0.2804   0.8479   0.1081     C
C       0.2846   0.2894   0.8219     C
C       0.2846   0.7106   0.3219     C
C       0.2849   0.1013   0.5226     C
C       0.2849   0.8987   0.0226     C
H       0.2866   0.0586   0.1516     H
H       0.2866   0.9414   0.6516     H
C       0.2877   0.0076    0.848     C
C       0.2877   0.9924    0.348     C
C       0.2881   0.0535   0.7596     C
C       0.2881   0.9465   0.2596     C
N       0.2885   0.0499  0.43515     N
N       0.2885   0.9501  0.93515     N
C       0.2902   0.2269   0.9124     C
C       0.2902   0.7731   0.4124     C
C       0.2944   0.1721   0.9948     C
C       0.2944   0.8279   0.4948     C
N       0.2957   0.4697  0.91656     N
N       0.2957   0.5303  0.41656     N
C        0.296   0.1103   0.0848     C
C        0.296   0.8897   0.5848     C
C       0.2981    0.416   0.0049     C
C       0.2981    0.584   0.5049     C
H       0.2985    0.366   0.5489     H
H       0.2985    0.634   0.0489     H
H       0.3004   0.1565   0.6481     H
N       0.3004   0.2464   0.2713     N
N       0.3004   0.7536   0.7713     N
H       0.3004   0.8435   0.1481     H
H       0.3022   0.4598   0.6648     H
H       0.3022   0.5402   0.1648     H
C       0.3023   0.3025   0.1851     C
C       0.3023   0.6975   0.6851     C
C       0.3079   0.4952   0.7427     C
C       0.3079   0.5048   0.2427     C
C       0.3081   0.3203   0.4789     C
C       0.3081   0.6797   0.9789     C
H        0.311   0.0779   0.7405     H
H        0.311   0.9221   0.2405     H
C       0.3145   0.1098   0.5818     C
C       0.3145   0.8902   0.0818     C
C       0.3175   0.0517   0.4933     C
C       0.3175   0.9483   0.9933     C
C       0.3196   0.0023   0.4116     C
C       0.3196   0.9977   0.9116     C
H       0.3204   0.4117   0.0449     H
H       0.3204   0.5883   0.5449     H
C       0.3208   0.0437   0.8185     C
C       0.3208   0.9563   0.3185     C
H       0.3227   0.3198   0.8437     H
H       0.3227   0.6802   0.3437     H
Ag     0.32296  0.24788  0.36723    Ag
Ag     0.32296  0.75212  0.86723    Ag
H        0.324   0.3349   0.1685     H
H        0.324   0.6651   0.6685     H
C        0.326   0.4592   0.9741     C
C        0.326   0.5408   0.4741     C
C       0.3283   0.2929   0.2446     C
C       0.3283   0.7071   0.7446     C
H       0.3379   0.1334   0.1061     H
H       0.3379   0.8666   0.6061     H
Ag     0.34397  0.45717  0.36776    Ag
Ag     0.34397  0.54283  0.86776    Ag
N       0.3471   0.2681  0.94077     N
N       0.3471   0.7319  0.44077     N
H       0.3497   0.2964   0.4999     H
H       0.3497   0.7036   0.9999     H
N        0.352   0.2105   0.0274     N
N        0.352   0.7895   0.5274     N
H       0.3521   0.4788   0.7634     H
H       0.3521   0.5212   0.2634     H
H       0.3565   0.0875   0.6037     H
H       0.3565   0.9125   0.1037     H
H       0.3648   0.0612   0.8384     H
H       0.3648   0.9388   0.3384     H
H       0.3677   0.3205   0.2672     H
H       0.3677   0.6795   0.7672     H
H        0.368   0.4824   0.9944     H
H        0.368   0.5176   0.4944     H
N       0.3737   0.0112  0.52685     N
N       0.3737   0.9888  0.02685     N
C       0.3763   0.2568   0.9976     C
C       0.3763   0.7432   0.4976     C
N       0.3772   0.0373   0.9411     N
N       0.3772   0.9627   0.4411     N
C       0.4023   0.0301    0.999     C
C       0.4023   0.9699    0.499     C
N       0.4133   0.1574  0.40722     N
N       0.4133   0.8426  0.90722     N
H       0.4233   0.1848   0.4848     H
H       0.4233   0.8152   0.9848     H
H       0.4239   0.1176   0.3394     H
H       0.4239   0.8824   0.8394     H
N        0.439   0.3843   0.4121     N
N        0.439   0.6157   0.9121     N
C       0.4402   0.3019   0.0299     C
C       0.4402   0.6981   0.5299     C
C       0.4435   0.1567   0.4648     C
C       0.4435   0.8433   0.9648     C
C       0.4436   0.1165   0.3796     C
C       0.4436   0.8835   0.8796     C
H       0.4443   0.3976   0.4896     H
H       0.4443   0.6024   0.9896     H
H        0.445   0.2912     0.11     H
H        0.445   0.7088     0.61     H
H       0.4553   0.3621   0.3443     H
H       0.4553   0.6379   0.8443     H
H        0.457   0.3305     0.96     H
H        0.457   0.6695     0.46     H
C       0.4666   0.0738   0.0329     C
C       0.4666   0.3753   0.4693     C
C       0.4666   0.6247   0.9693     C
C       0.4666   0.9262   0.5329     C
C       0.4668   0.3121   0.0888     C
C       0.4668   0.6879   0.5888     C
C       0.4728   0.3544    0.384     C
C       0.4728   0.6456    0.884     C
C       0.4741   0.3352   0.9999     C
C       0.4741   0.6648   0.4999     C
H       0.4772   0.1178   0.9634     H
H       0.4772   0.8822   0.4634     H
H       0.4795   0.0435   0.1139     H
H       0.4795   0.9565   0.6139     H
C       0.4967   0.1163   0.0035     C
C       0.4967   0.8837   0.5035     C
C       0.4977   0.0728   0.0929     C
C       0.4977   0.9272   0.5929     C
C       0.5023   0.0728   0.4071     C
C       0.5023   0.9272   0.9071     C
C       0.5033   0.1163   0.4965     C
C       0.5033   0.8837   0.9965     C
H       0.5205   0.0435   0.3861     H
H       0.5205   0.9565   0.8861     H
H       0.5228   0.1178   0.5366     H
H       0.5228   0.8822   0.0366     H
C       0.5259   0.3352   0.5001     C
C       0.5259   0.6648   0.0001     C
C       0.5272   0.3544    0.116     C
C       0.5272   0.6456    0.616     C
C       0.5332   0.3121   0.4112     C
C       0.5332   0.6879   0.9112     C
C       0.5334   0.0738   0.4671     C
C       0.5334   0.3753   0.0307     C
C       0.5334   0.6247   0.5307     C
C       0.5334   0.9262   0.9671     C
H        0.543   0.3305     0.54     H
H        0.543   0.6695     0.04     H
H       0.5447   0.3621   0.1557     H
H       0.5447   0.6379   0.6557     H
H        0.555   0.2912     0.39     H
H        0.555   0.7088     0.89     H
H       0.5557   0.3976   0.0104     H
H       0.5557   0.6024   0.5104     H
C       0.5564   0.1165   0.1204     C
C       0.5564   0.8835   0.6204     C
C       0.5565   0.1567   0.0352     C
C       0.5565   0.8433   0.5352     C
C       0.5598   0.3019   0.4701     C
C       0.5598   0.6981   0.9701     C
N        0.561   0.3843   0.0879     N
N        0.561   0.6157   0.5879     N
H       0.5761   0.1176   0.1606     H
H       0.5761   0.8824   0.6606     H
H       0.5767   0.1848   0.0152     H
H       0.5767   0.8152   0.5152     H
N       0.5867   0.1574  0.09278     N
N       0.5867   0.8426  0.59278     N
C       0.5977   0.0301    0.501     C
C       0.5977   0.9699    0.001     C
N       0.6228   0.0373   0.5589     N
N       0.6228   0.9627   0.0589     N
C       0.6237   0.2568   0.5024     C
C       0.6237   0.7432   0.0024     C
N       0.6263   0.0112  0.97315     N
N       0.6263   0.9888  0.47315     N
H        0.632   0.4824   0.5056     H
H        0.632   0.5176   0.0056     H
H       0.6323   0.3205   0.2328     H
H       0.6323   0.6795   0.7328     H
H       0.6352   0.0612   0.6616     H
H       0.6352   0.9388   0.1616     H
H       0.6435   0.0875   0.8963     H
H       0.6435   0.9125   0.3963     H
H       0.6479   0.4788   0.7366     H
H       0.6479   0.5212   0.2366     H
N        0.648   0.2105   0.4726     N
N        0.648   0.7895   0.9726     N
H       0.6503   0.2964   0.0001     H
H       0.6503   0.7036   0.5001     H
N       0.6529   0.2681  0.55923     N
N       0.6529   0.7319  0.05923     N
Ag     0.65603  0.45717  0.13224    Ag
Ag     0.65603  0.54283  0.63224    Ag
H       0.6621   0.1334   0.3939     H
H       0.6621   0.8666   0.8939     H
C       0.6717   0.2929   0.2554     C
C       0.6717   0.7071   0.7554     C
C        0.674   0.4592   0.5259     C
C        0.674   0.5408   0.0259     C
H        0.676   0.3349   0.3315     H
H        0.676   0.6651   0.8315     H
Ag     0.67704  0.24788  0.13277    Ag
Ag     0.67704  0.75212  0.63277    Ag
H       0.6773   0.3198   0.6563     H
H       0.6773   0.6802   0.1563     H
C       0.6792   0.0437   0.6815     C
C       0.6792   0.9563   0.1815     C
H       0.6796   0.4117   0.4551     H
H       0.6796   0.5883   0.9551     H
C       0.6804   0.0023   0.0884     C
C       0.6804   0.9977   0.5884     C
C       0.6825   0.0517   0.0067     C
C       0.6825   0.9483   0.5067     C
C       0.6855   0.1098   0.9182     C
C       0.6855   0.8902   0.4182     C
H        0.689   0.0779   0.7595     H
H        0.689   0.9221   0.2595     H
C       0.6919   0.3203   0.0211     C
C       0.6919   0.6797   0.5211     C
C       0.6921   0.4952   0.7573     C
C       0.6921   0.5048   0.2573     C
C       0.6977   0.3025   0.3149     C
C       0.6977   0.6975   0.8149     C
H       0.6978   0.4598   0.8352     H
H       0.6978   0.5402   0.3352     H
H       0.6996   0.1565   0.8519     H
N       0.6996   0.2464   0.2287     N
N       0.6996   0.7536   0.7287     N
H       0.6996   0.8435   0.3519     H
H       0.7015    0.366   0.9511     H
H       0.7015    0.634   0.4511     H
C       0.7019    0.416   0.4951     C
C       0.7019    0.584   0.9951     C
C        0.704   0.1103   0.4152     C
C        0.704   0.8897   0.9152     C
N       0.7043   0.4697  0.58344     N
N       0.7043   0.5303  0.08344     N
C       0.7056   0.1721   0.5052     C
C       0.7056   0.8279   0.0052     C
C       0.7098   0.2269   0.5876     C
C       0.7098   0.7731   0.0876     C
N       0.7115   0.0499  0.06485     N
N       0.7115   0.9501  0.56485     N
C       0.7119   0.0535   0.7404     C
C       0.7119   0.9465   0.2404     C
C       0.7123   0.0076    0.652     C
C       0.7123   0.9924    0.152     C
H       0.7134   0.0586   0.3484     H
H       0.7134   0.9414   0.8484     H
C       0.7151   0.1013   0.9774     C
C       0.7151   0.8987   0.4774     C
C       0.7154   0.2894   0.6781     C
C       0.7154   0.7106   0.1781     C
C       0.7196   0.1521   0.8919     C
C       0.7196   0.8479   0.3919     C
N         0.72   0.3128   0.0786     N
N         0.72   0.6872   0.5786     N
C       0.7218   0.4834   0.8167     C
C       0.7218   0.5166   0.3167     C
C       0.7224   0.3623   0.9911     C
C       0.7224   0.6377   0.4911     C
N       0.7241   0.4709   0.2283     N
N       0.7241   0.5291   0.7283     N
H       0.7257     0.33   0.7547     H
H       0.7257     0.67   0.2547     H
C       0.7353   0.0652   0.3882     C
C       0.7353   0.9348   0.8882     C
C       0.7362   0.1209   0.4749     C
C       0.7362   0.8791   0.9749     C
N       0.7382   0.1775  0.56314     N
N       0.7382   0.8225  0.06314     N
C       0.7433   0.2373   0.6514     C
C       0.7433   0.7627   0.1514     C
C        0.745   0.2953   0.7372     C
C        0.745   0.7047   0.2372     C
C        0.755   0.2047   0.2628     C
C        0.755   0.7953   0.7628     C
C       0.7567   0.2627   0.3486     C
C       0.7567   0.7373   0.8486     C
N       0.7618   0.3225  0.43686     N
N       0.7618   0.6775  0.93686     N
C       0.7638   0.3791   0.5251     C
C       0.7638   0.6209   0.0251     C
C       0.7647   0.4348   0.6118     C
C       0.7647   0.5652   0.1118     C
H       0.7743     0.17   0.2453     H
H       0.7743     0.83   0.7453     H
N       0.7759   0.0291   0.7717     N
N       0.7759   0.9709   0.2717     N
C       0.7776   0.1377   0.0089     C
C       0.7776   0.8623   0.5089     C
C       0.7782   0.0166   0.1833     C
C       0.7782   0.9834   0.6833     C
N         0.78   0.1872   0.9214     N
N         0.78   0.8128   0.4214     N
C       0.7804   0.3479   0.1081     C
C       0.7804   0.6521   0.6081     C
C       0.7846   0.2106   0.3219     C
C       0.7846   0.7894   0.8219     C
C       0.7849   0.3987   0.0226     C
C       0.7849   0.6013   0.5226     C
H       0.7866   0.4414   0.6516     H
H       0.7866   0.5586   0.1516     H
C       0.7877   0.4924    0.348     C
C       0.7877   0.5076    0.848     C
C       0.7881   0.4465   0.2596     C
C       0.7881   0.5535   0.7596     C
N       0.7885   0.4501  0.93515     N
N       0.7885   0.5499  0.43515     N
C       0.7902   0.2731   0.4124     C
C       0.7902   0.7269   0.9124     C
C       0.7944   0.3279   0.4948     C
C       0.7944   0.6721   0.9948     C
N       0.7957   0.0303  0.41656     N
N       0.7957   0.9697  0.91656     N
C        0.796   0.3897   0.5848     C
C        0.796   0.6103   0.0848     C
C       0.7981    0.084   0.5049     C
C       0.7981    0.916   0.0049     C
H       0.7985    0.134   0.0489     H
H       0.7985    0.866   0.5489     H
N       0.8004   0.2536   0.7713     N
H       0.8004   0.3435   0.1481     H
H       0.8004   0.6565   0.6481     H
N       0.8004   0.7464   0.2713     N
H       0.8022   0.0402   0.1648     H
H       0.8022   0.9598   0.6648     H
C       0.8023   0.1975   0.6851     C
C       0.8023   0.8025   0.1851     C
C       0.8079   0.0048   0.2427     C
C       0.8079   0.9952   0.7427     C
C       0.8081   0.1797   0.9789     C
C       0.8081   0.8203   0.4789     C
H        0.811   0.4221   0.2405     H
H        0.811   0.5779   0.7405     H
C       0.8145   0.3902   0.0818     C
C       0.8145   0.6098   0.5818     C
C       0.8175   0.4483   0.9933     C
C       0.8175   0.5517   0.4933     C
C       0.8196   0.4977   0.9116     C
C       0.8196   0.5023   0.4116     C
H       0.8204   0.0883   0.5449     H
H       0.8204   0.9117   0.0449     H
C       0.8208   0.4563   0.3185     C
C       0.8208   0.5437   0.8185     C
H       0.8227   0.1802   0.3437     H
H       0.8227   0.8198   0.8437     H
Ag     0.82296  0.25212  0.86723    Ag
Ag     0.82296  0.74788  0.36723    Ag
H        0.824   0.1651   0.6685     H
H        0.824   0.8349   0.1685     H
C        0.826   0.0408   0.4741     C
C        0.826   0.9592   0.9741     C
C       0.8283   0.2071   0.7446     C
C       0.8283   0.7929   0.2446     C
H       0.8379   0.3666   0.6061     H
H       0.8379   0.6334   0.1061     H
Ag     0.84397  0.04283  0.86776    Ag
Ag     0.84397  0.95717  0.36776    Ag
N       0.8471   0.2319  0.44077     N
N       0.8471   0.7681  0.94077     N
H       0.8497   0.2036   0.9999     H
H       0.8497   0.7964   0.4999     H
N        0.852   0.2895   0.5274     N
N        0.852   0.7105   0.0274     N
H       0.8521   0.0212   0.2634     H
H       0.8521   0.9788   0.7634     H
H       0.8565   0.4125   0.1037     H
H       0.8565   0.5875   0.6037     H
H       0.8648   0.4388   0.3384     H
H       0.8648   0.5612   0.8384     H
H       0.8677   0.1795   0.7672     H
H       0.8677   0.8205   0.2672     H
H        0.868   0.0176   0.4944     H
H        0.868   0.9824   0.9944     H
N       0.8737   0.4888  0.02685     N
N       0.8737   0.5112  0.52685     N
C       0.8763   0.2432   0.4976     C
C       0.8763   0.7568   0.9976     C
N       0.8772   0.4627   0.4411     N
N       0.8772   0.5373   0.9411     N
C       0.9023   0.4699    0.499     C
C       0.9023   0.5301    0.999     C
N       0.9133   0.3426  0.90722     N
N       0.9133   0.6574  0.40722     N
H       0.9233   0.3152   0.9848     H
H       0.9233   0.6848   0.4848     H
H       0.9239   0.3824   0.8394     H
H       0.9239   0.6176   0.3394     H
N        0.939   0.1157   0.9121     N
N        0.939   0.8843   0.4121     N
C       0.9402   0.1981   0.5299     C
C       0.9402   0.8019   0.0299     C
C       0.9435   0.3433   0.9648     C
C       0.9435   0.6567   0.4648     C
C       0.9436   0.3835   0.8796     C
C       0.9436   0.6165   0.3796     C
H       0.9443   0.1024   0.9896     H
H       0.9443   0.8976   0.4896     H
H        0.945   0.2088     0.61     H
H        0.945   0.7912     0.11     H
H       0.9553   0.1379   0.8443     H
H       0.9553   0.8621   0.3443     H
H        0.957   0.1695     0.46     H
H        0.957   0.8305     0.96     H
C       0.9666   0.1247   0.9693     C
C       0.9666   0.4262   0.5329     C
C       0.9666   0.5738   0.0329     C
C       0.9666   0.8753   0.4693     C
C       0.9668   0.1879   0.5888     C
C       0.9668   0.8121   0.0888     C
C       0.9728   0.1456    0.884     C
C       0.9728   0.8544    0.384     C
C       0.9741   0.1648   0.4999     C
C       0.9741   0.8352   0.9999     C
H       0.9772   0.3822   0.4634     H
H       0.9772   0.6178   0.9634     H
H       0.9795   0.4565   0.6139     H
H       0.9795   0.5435   0.1139     H
C       0.9967   0.3837   0.5035     C
C       0.9967   0.6163   0.0035     C
C       0.9977   0.4272   0.5929     C
C       0.9977   0.5728   0.0929     C
