data_I
_chemical_name_common  '/home/zhangsd/repos/MofS-CGCNN/ML/data/TSD/clean_cifs/QODHUO12_clean'
_cell_length_a 22.06390
_cell_length_b 16.33820
_cell_length_c 25.61700
_cell_angle_alpha 90.00000
_cell_angle_beta  115.31100
_cell_angle_gamma 90.00000
_space_group_name_H-M_alt      'P 1'


loop_
_space_group_symop_operation_xyz
  'x, y, z' 

loop_
_atom_site_label
_atom_site_fract_x
_atom_site_fract_y
_atom_site_fract_z
_atom_site_type_symbol
C       0.0024   0.0731   0.4072     C
C       0.0024   0.9269   0.9072     C
C       0.0034   0.1165   0.4965     C
C       0.0034   0.8835   0.9965     C
H       0.0205   0.0437   0.3862     H
H       0.0205   0.9563   0.8862     H
H        0.023   0.1179   0.5367     H
H        0.023   0.8821   0.0367     H
C       0.0261   0.3356      0.5     C
C       0.0261   0.6644      0.0     C
C       0.0265   0.3547   0.1159     C
C       0.0265   0.6453   0.6159     C
C       0.0331   0.3122   0.4111     C
C       0.0331   0.6878   0.9111     C
C       0.0332   0.3754   0.0304     C
C       0.0332   0.6246   0.5304     C
C       0.0334   0.0738   0.4671     C
C       0.0334   0.9262   0.9671     C
H       0.0434   0.3309   0.5399     H
H       0.0434   0.6691   0.0399     H
H       0.0436   0.3629   0.1555     H
H       0.0436   0.6371   0.6555     H
H       0.0545   0.2908   0.3899     H
H       0.0545   0.7092   0.8899     H
H       0.0557   0.3973   0.0101     H
H       0.0557   0.6027   0.5101     H
C       0.0562    0.117   0.1204     C
C       0.0562    0.883   0.6204     C
C       0.0563    0.157   0.0351     C
C       0.0563    0.843   0.5351     C
C         0.06   0.3022   0.4702     C
C         0.06   0.6978   0.9702     C
N       0.0607   0.3847  0.08778     N
N       0.0607   0.6153  0.58778     N
H       0.0757   0.1185   0.1605     H
H       0.0757   0.8815   0.6605     H
H       0.0764   0.1852   0.0152     H
H       0.0764   0.8148   0.5152     H
N       0.0866   0.1577  0.09275     N
N       0.0866   0.8423  0.59275     N
C       0.0978     0.03    0.501     C
C       0.0978     0.97    0.001     C
N       0.1228   0.0373  0.55881     N
N       0.1228   0.9627  0.05881     N
C       0.1237    0.257   0.5024     C
C       0.1237    0.743   0.0024     C
N      0.12633   0.0113  0.97304     N
N      0.12633   0.9887  0.47304     N
H       0.1319   0.4823   0.5057     H
H       0.1319   0.5177   0.0057     H
H       0.1322   0.3202   0.2331     H
H       0.1322   0.6798   0.7331     H
H       0.1348   0.0615   0.6614     H
H       0.1348   0.9385   0.1614     H
H       0.1436   0.0874   0.8966     H
H       0.1436   0.9126   0.3966     H
N        0.148   0.2101   0.4726     N
N        0.148   0.7899   0.9726     N
H       0.1481   0.4785   0.7368     H
H       0.1481   0.5215   0.2368     H
H       0.1499   0.2964   0.9995     H
H       0.1499   0.7036   0.4995     H
N       0.1531   0.2682  0.55928     N
N       0.1531   0.7318  0.05928     N
Ag     0.15593  0.45744  0.13217    Ag
Ag     0.15593  0.54256  0.63217    Ag
H       0.1618   0.1329   0.3939     H
H       0.1618   0.8671   0.8939     H
C       0.1717   0.2926   0.2557     C
C       0.1717   0.7074   0.7557     C
C       0.1741   0.4591   0.5259     C
C       0.1741   0.5409   0.0259     C
H       0.1762    0.335   0.3319     H
H       0.1762    0.665   0.8319     H
Ag     0.17704  0.24786  0.13275    Ag
Ag     0.17704  0.75214  0.63275    Ag
H       0.1775   0.3193   0.6564     H
H       0.1775   0.6807   0.1564     H
C       0.1789   0.0439   0.6813     C
C       0.1789   0.9561   0.1813     C
H       0.1796   0.4114   0.4551     H
H       0.1796   0.5886   0.9551     H
C       0.1805   0.0021   0.0883     C
C       0.1805   0.9979   0.5883     C
C       0.1825   0.0518   0.0068     C
C       0.1825   0.9482   0.5068     C
C       0.1857   0.1096   0.9185     C
C       0.1857   0.8904   0.4185     C
H       0.1896   0.0775     0.76     H
H       0.1896   0.9225     0.26     H
C       0.1915   0.3203   0.0206     C
C       0.1915   0.6797   0.5206     C
C       0.1924   0.4951   0.7575     C
C       0.1924   0.5049   0.2575     C
C       0.1977   0.3025   0.3151     C
C       0.1977   0.6975   0.8151     C
H       0.1979   0.4595   0.8352     H
H       0.1979   0.5405   0.3352     H
N       0.1992   0.2464  0.22886     N
N       0.1992   0.7536  0.72886     N
H       0.1998   0.1563    0.852     H
H       0.1998   0.8437    0.352     H
H       0.2013   0.3659   0.9507     H
H       0.2013   0.6341   0.4507     H
C       0.2019   0.4158   0.4951     C
C       0.2019   0.5842   0.9951     C
C       0.2039   0.1101   0.4152     C
C       0.2039   0.8899   0.9152     C
N       0.2045   0.4695  0.58323     N
N       0.2045   0.5305  0.08323     N
C       0.2054   0.1721   0.5051     C
C       0.2054   0.8279   0.0051     C
C       0.2099   0.2269   0.5877     C
C       0.2099   0.7731   0.0877     C
N       0.2115   0.0497  0.06481     N
N       0.2115   0.9503  0.56481     N
C       0.2123   0.0076    0.652     C
C       0.2123   0.0533   0.7406     C
C       0.2123   0.9467   0.2406     C
C       0.2123   0.9924    0.152     C
H       0.2132   0.0583   0.3485     H
H       0.2132   0.9417   0.8485     H
C       0.2155   0.1011   0.9776     C
C       0.2155   0.8989   0.4776     C
C       0.2157   0.2891   0.6782     C
C       0.2157   0.7109   0.1782     C
C       0.2198    0.152   0.8921     C
N       0.2198    0.313  0.07837     N
N       0.2198    0.687  0.57837     N
C       0.2198    0.848   0.3921     C
C       0.2219   0.4833   0.8168     C
C       0.2219   0.5167   0.3168     C
C        0.222   0.3623   0.9908     C
C        0.222   0.6377   0.4908     C
N       0.2239   0.4711  0.22841     N
N       0.2239   0.5289  0.72841     N
H       0.2261   0.3297   0.7549     H
H       0.2261   0.6703   0.2549     H
C       0.2351    0.065   0.3883     C
C       0.2351    0.935   0.8883     C
C       0.2359    0.121   0.4745     C
C       0.2359    0.879   0.9745     C
N       0.2383   0.1778  0.56306     N
N       0.2383   0.8222  0.06306     N
C       0.2436   0.2374   0.6517     C
C       0.2436   0.7626   0.1517     C
C       0.2454   0.2951   0.7374     C
C       0.2454   0.7049   0.2374     C
C       0.2546   0.2049   0.2626     C
C       0.2546   0.7951   0.7626     C
C       0.2564   0.2626   0.3483     C
C       0.2564   0.7374   0.8483     C
N       0.2617   0.3222  0.43694     N
N       0.2617   0.6778  0.93694     N
C       0.2641    0.379   0.5255     C
C       0.2641    0.621   0.0255     C
C       0.2649    0.435   0.6117     C
C       0.2649    0.565   0.1117     C
H       0.2739   0.1703   0.2451     H
H       0.2739   0.8297   0.7451     H
N       0.2761   0.0289  0.77159     N
N       0.2761   0.9711  0.27159     N
C        0.278   0.1377   0.0092     C
C        0.278   0.8623   0.5092     C
C       0.2781   0.0167   0.1832     C
C       0.2781   0.9833   0.6832     C
N       0.2802    0.187  0.92163     N
C       0.2802    0.348   0.1079     C
C       0.2802    0.652   0.6079     C
N       0.2802    0.813  0.42163     N
C       0.2843   0.2109   0.3218     C
C       0.2843   0.7891   0.8218     C
C       0.2845   0.3989   0.0224     C
C       0.2845   0.6011   0.5224     C
H       0.2868   0.4417   0.6515     H
H       0.2868   0.5583   0.1515     H
C       0.2877   0.4467   0.2594     C
C       0.2877   0.4924    0.348     C
C       0.2877   0.5076    0.848     C
C       0.2877   0.5533   0.7594     C
N       0.2885   0.4503  0.93519     N
N       0.2885   0.5497  0.43519     N
C       0.2901   0.2731   0.4123     C
C       0.2901   0.7269   0.9123     C
C       0.2946   0.3279   0.4949     C
C       0.2946   0.6721   0.9949     C
N       0.2955   0.0305  0.41677     N
N       0.2955   0.9695  0.91677     N
C       0.2961   0.3899   0.5848     C
C       0.2961   0.6101   0.0848     C
C       0.2981   0.0842   0.5049     C
C       0.2981   0.9158   0.0049     C
H       0.2987   0.1341   0.0493     H
H       0.2987   0.8659   0.5493     H
H       0.3002   0.3437    0.148     H
H       0.3002   0.6563    0.648     H
N       0.3008   0.2536  0.77114     N
N       0.3008   0.7464  0.27114     N
H       0.3021   0.0405   0.1648     H
H       0.3021   0.9595   0.6648     H
C       0.3023   0.1975   0.6849     C
C       0.3023   0.8025   0.1849     C
C       0.3076   0.0049   0.2425     C
C       0.3076   0.9951   0.7425     C
C       0.3085   0.1797   0.9794     C
C       0.3085   0.8203   0.4794     C
H       0.3104   0.4225     0.24     H
H       0.3104   0.5775     0.74     H
C       0.3143   0.3904   0.0815     C
C       0.3143   0.6096   0.5815     C
C       0.3175   0.4482   0.9932     C
C       0.3175   0.5518   0.4932     C
C       0.3195   0.4979   0.9117     C
C       0.3195   0.5021   0.4117     C
H       0.3204   0.0886   0.5449     H
H       0.3204   0.9114   0.0449     H
C       0.3211   0.4561   0.3187     C
C       0.3211   0.5439   0.8187     C
H       0.3225   0.1807   0.3436     H
H       0.3225   0.8193   0.8436     H
Ag     0.32296  0.25214  0.86725    Ag
Ag     0.32296  0.74786  0.36725    Ag
H       0.3238    0.165   0.6681     H
H       0.3238    0.835   0.1681     H
C       0.3259   0.0409   0.4741     C
C       0.3259   0.9591   0.9741     C
C       0.3283   0.2074   0.7443     C
C       0.3283   0.7926   0.2443     C
H       0.3382   0.3671   0.6061     H
H       0.3382   0.6329   0.1061     H
Ag     0.34407  0.04256  0.86783    Ag
Ag     0.34407  0.95744  0.36783    Ag
N       0.3469   0.2318  0.44072     N
N       0.3469   0.7682  0.94072     N
H       0.3501   0.2036   0.0005     H
H       0.3501   0.7964   0.5005     H
H       0.3519   0.0215   0.2632     H
H       0.3519   0.9785   0.7632     H
N        0.352   0.2899   0.5274     N
N        0.352   0.7101   0.0274     N
H       0.3564   0.4126   0.1034     H
H       0.3564   0.5874   0.6034     H
H       0.3652   0.4385   0.3386     H
H       0.3652   0.5615   0.8386     H
H       0.3678   0.1798   0.7669     H
H       0.3678   0.8202   0.2669     H
H       0.3681   0.0177   0.4943     H
H       0.3681   0.9823   0.9943     H
N      0.37367   0.4887  0.02696     N
N      0.37367   0.5113  0.52696     N
C       0.3763    0.243   0.4976     C
C       0.3763    0.757   0.9976     C
N       0.3772   0.4627  0.44119     N
N       0.3772   0.5373  0.94119     N
C       0.4022     0.47    0.499     C
C       0.4022     0.53    0.999     C
N       0.4134   0.3423  0.90725     N
N       0.4134   0.6577  0.40725     N
H       0.4236   0.3148   0.9848     H
H       0.4236   0.6852   0.4848     H
H       0.4243   0.3815   0.8395     H
H       0.4243   0.6185   0.3395     H
N       0.4393   0.1153  0.91222     N
N       0.4393   0.8847  0.41222     N
C         0.44   0.1978   0.5298     C
C         0.44   0.8022   0.0298     C
C       0.4437    0.343   0.9649     C
C       0.4437    0.657   0.4649     C
C       0.4438    0.383   0.8796     C
C       0.4438    0.617   0.3796     C
H       0.4443   0.1027   0.9899     H
H       0.4443   0.8973   0.4899     H
H       0.4455   0.2092   0.6101     H
H       0.4455   0.7908   0.1101     H
H       0.4564   0.1371   0.8445     H
H       0.4564   0.8629   0.3445     H
H       0.4566   0.1691   0.4601     H
H       0.4566   0.8309   0.9601     H
C       0.4666   0.4262   0.5329     C
C       0.4666   0.5738   0.0329     C
C       0.4668   0.1246   0.9696     C
C       0.4668   0.8754   0.4696     C
C       0.4669   0.1878   0.5889     C
C       0.4669   0.8122   0.0889     C
C       0.4735   0.1453   0.8841     C
C       0.4735   0.8547   0.3841     C
C       0.4739   0.1644      0.5     C
C       0.4739   0.8356      0.0     C
H        0.477   0.3821   0.4633     H
H        0.477   0.6179   0.9633     H
H       0.4795   0.4563   0.6138     H
H       0.4795   0.5437   0.1138     H
C       0.4966   0.3835   0.5035     C
C       0.4966   0.6165   0.0035     C
C       0.4976   0.4269   0.5928     C
C       0.4976   0.5731   0.0928     C
C       0.5024   0.4269   0.9072     C
C       0.5024   0.5731   0.4072     C
C       0.5034   0.3835   0.9965     C
C       0.5034   0.6165   0.4965     C
H       0.5205   0.4563   0.8862     H
H       0.5205   0.5437   0.3862     H
H        0.523   0.3821   0.0367     H
H        0.523   0.6179   0.5367     H
C       0.5261   0.1644      0.0     C
C       0.5261   0.8356      0.5     C
C       0.5265   0.1453   0.6159     C
C       0.5265   0.8547   0.1159     C
C       0.5331   0.1878   0.9111     C
C       0.5331   0.8122   0.4111     C
C       0.5332   0.1246   0.5304     C
C       0.5332   0.8754   0.0304     C
C       0.5334   0.4262   0.9671     C
C       0.5334   0.5738   0.4671     C
H       0.5434   0.1691   0.0399     H
H       0.5434   0.8309   0.5399     H
H       0.5436   0.1371   0.6555     H
H       0.5436   0.8629   0.1555     H
H       0.5545   0.2092   0.8899     H
H       0.5545   0.7908   0.3899     H
H       0.5557   0.1027   0.5101     H
H       0.5557   0.8973   0.0101     H
C       0.5562    0.383   0.6204     C
C       0.5562    0.617   0.1204     C
C       0.5563    0.343   0.5351     C
C       0.5563    0.657   0.0351     C
C         0.56   0.1978   0.9702     C
C         0.56   0.8022   0.4702     C
N       0.5607   0.1153  0.58778     N
N       0.5607   0.8847  0.08778     N
H       0.5757   0.3815   0.6605     H
H       0.5757   0.6185   0.1605     H
H       0.5764   0.3148   0.5152     H
H       0.5764   0.6852   0.0152     H
N       0.5866   0.3423  0.59275     N
N       0.5866   0.6577  0.09275     N
C       0.5978     0.47    0.001     C
C       0.5978     0.53    0.501     C
N       0.6228   0.4627  0.05881     N
N       0.6228   0.5373  0.55881     N
C       0.6237    0.243   0.0024     C
C       0.6237    0.757   0.5024     C
N      0.62633   0.4887  0.47304     N
N      0.62633   0.5113  0.97304     N
H       0.6319   0.0177   0.0057     H
H       0.6319   0.9823   0.5057     H
H       0.6322   0.1798   0.7331     H
H       0.6322   0.8202   0.2331     H
H       0.6348   0.4385   0.1614     H
H       0.6348   0.5615   0.6614     H
H       0.6436   0.4126   0.3966     H
H       0.6436   0.5874   0.8966     H
N        0.648   0.2899   0.9726     N
N        0.648   0.7101   0.4726     N
H       0.6481   0.0215   0.2368     H
H       0.6481   0.9785   0.7368     H
H       0.6499   0.2036   0.4995     H
H       0.6499   0.7964   0.9995     H
N       0.6531   0.2318  0.05928     N
N       0.6531   0.7682  0.55928     N
Ag     0.65593  0.04256  0.63217    Ag
Ag     0.65593  0.95744  0.13217    Ag
H       0.6618   0.3671   0.8939     H
H       0.6618   0.6329   0.3939     H
C       0.6717   0.2074   0.7557     C
C       0.6717   0.7926   0.2557     C
C       0.6741   0.0409   0.0259     C
C       0.6741   0.9591   0.5259     C
H       0.6762    0.165   0.8319     H
H       0.6762    0.835   0.3319     H
Ag     0.67704  0.25214  0.63275    Ag
Ag     0.67704  0.74786  0.13275    Ag
H       0.6775   0.1807   0.1564     H
H       0.6775   0.8193   0.6564     H
C       0.6789   0.4561   0.1813     C
C       0.6789   0.5439   0.6813     C
H       0.6796   0.0886   0.9551     H
H       0.6796   0.9114   0.4551     H
C       0.6805   0.4979   0.5883     C
C       0.6805   0.5021   0.0883     C
C       0.6825   0.4482   0.5068     C
C       0.6825   0.5518   0.0068     C
C       0.6857   0.3904   0.4185     C
C       0.6857   0.6096   0.9185     C
H       0.6896   0.4225     0.26     H
H       0.6896   0.5775     0.76     H
C       0.6915   0.1797   0.5206     C
C       0.6915   0.8203   0.0206     C
C       0.6924   0.0049   0.2575     C
C       0.6924   0.9951   0.7575     C
C       0.6977   0.1975   0.8151     C
C       0.6977   0.8025   0.3151     C
H       0.6979   0.0405   0.3352     H
H       0.6979   0.9595   0.8352     H
N       0.6992   0.2536  0.72886     N
N       0.6992   0.7464  0.22886     N
H       0.6998   0.3437    0.352     H
H       0.6998   0.6563    0.852     H
H       0.7013   0.1341   0.4507     H
H       0.7013   0.8659   0.9507     H
C       0.7019   0.0842   0.9951     C
C       0.7019   0.9158   0.4951     C
C       0.7039   0.3899   0.9152     C
C       0.7039   0.6101   0.4152     C
N       0.7045   0.0305  0.08323     N
N       0.7045   0.9695  0.58323     N
C       0.7054   0.3279   0.0051     C
C       0.7054   0.6721   0.5051     C
C       0.7099   0.2731   0.0877     C
C       0.7099   0.7269   0.5877     C
N       0.7115   0.4503  0.56481     N
N       0.7115   0.5497  0.06481     N
C       0.7123   0.4467   0.2406     C
C       0.7123   0.4924    0.152     C
C       0.7123   0.5076    0.652     C
C       0.7123   0.5533   0.7406     C
H       0.7132   0.4417   0.8485     H
H       0.7132   0.5583   0.3485     H
C       0.7155   0.3989   0.4776     C
C       0.7155   0.6011   0.9776     C
C       0.7157   0.2109   0.1782     C
C       0.7157   0.7891   0.6782     C
N       0.7198    0.187  0.57837     N
C       0.7198    0.348   0.3921     C
C       0.7198    0.652   0.8921     C
N       0.7198    0.813  0.07837     N
C       0.7219   0.0167   0.3168     C
C       0.7219   0.9833   0.8168     C
C        0.722   0.1377   0.4908     C
C        0.722   0.8623   0.9908     C
N       0.7239   0.0289  0.72841     N
N       0.7239   0.9711  0.22841     N
H       0.7261   0.1703   0.2549     H
H       0.7261   0.8297   0.7549     H
C       0.7351    0.435   0.8883     C
C       0.7351    0.565   0.3883     C
C       0.7359    0.379   0.9745     C
C       0.7359    0.621   0.4745     C
N       0.7383   0.3222  0.06306     N
N       0.7383   0.6778  0.56306     N
C       0.7436   0.2626   0.1517     C
C       0.7436   0.7374   0.6517     C
C       0.7454   0.2049   0.2374     C
C       0.7454   0.7951   0.7374     C
C       0.7546   0.2951   0.7626     C
C       0.7546   0.7049   0.2626     C
C       0.7564   0.2374   0.8483     C
C       0.7564   0.7626   0.3483     C
N       0.7617   0.1778  0.93694     N
N       0.7617   0.8222  0.43694     N
C       0.7641    0.121   0.0255     C
C       0.7641    0.879   0.5255     C
C       0.7649    0.065   0.1117     C
C       0.7649    0.935   0.6117     C
H       0.7739   0.3297   0.7451     H
H       0.7739   0.6703   0.2451     H
N       0.7761   0.4711  0.27159     N
N       0.7761   0.5289  0.77159     N
C        0.778   0.3623   0.5092     C
C        0.778   0.6377   0.0092     C
C       0.7781   0.4833   0.6832     C
C       0.7781   0.5167   0.1832     C
C       0.7802    0.152   0.6079     C
N       0.7802    0.313  0.42163     N
N       0.7802    0.687  0.92163     N
C       0.7802    0.848   0.1079     C
C       0.7843   0.2891   0.8218     C
C       0.7843   0.7109   0.3218     C
C       0.7845   0.1011   0.5224     C
C       0.7845   0.8989   0.0224     C
H       0.7868   0.0583   0.1515     H
H       0.7868   0.9417   0.6515     H
C       0.7877   0.0076    0.848     C
C       0.7877   0.0533   0.7594     C
C       0.7877   0.9467   0.2594     C
C       0.7877   0.9924    0.348     C
N       0.7885   0.0497  0.43519     N
N       0.7885   0.9503  0.93519     N
C       0.7901   0.2269   0.9123     C
C       0.7901   0.7731   0.4123     C
C       0.7946   0.1721   0.9949     C
C       0.7946   0.8279   0.4949     C
N       0.7955   0.4695  0.91677     N
N       0.7955   0.5305  0.41677     N
C       0.7961   0.1101   0.0848     C
C       0.7961   0.8899   0.5848     C
C       0.7981   0.4158   0.0049     C
C       0.7981   0.5842   0.5049     C
H       0.7987   0.3659   0.5493     H
H       0.7987   0.6341   0.0493     H
H       0.8002   0.1563    0.648     H
H       0.8002   0.8437    0.148     H
N       0.8008   0.2464  0.27114     N
N       0.8008   0.7536  0.77114     N
H       0.8021   0.4595   0.6648     H
H       0.8021   0.5405   0.1648     H
C       0.8023   0.3025   0.1849     C
C       0.8023   0.6975   0.6849     C
C       0.8076   0.4951   0.7425     C
C       0.8076   0.5049   0.2425     C
C       0.8085   0.3203   0.4794     C
C       0.8085   0.6797   0.9794     C
H       0.8104   0.0775     0.74     H
H       0.8104   0.9225     0.24     H
C       0.8143   0.1096   0.5815     C
C       0.8143   0.8904   0.0815     C
C       0.8175   0.0518   0.4932     C
C       0.8175   0.9482   0.9932     C
C       0.8195   0.0021   0.4117     C
C       0.8195   0.9979   0.9117     C
H       0.8204   0.4114   0.0449     H
H       0.8204   0.5886   0.5449     H
C       0.8211   0.0439   0.8187     C
C       0.8211   0.9561   0.3187     C
H       0.8225   0.3193   0.8436     H
H       0.8225   0.6807   0.3436     H
Ag     0.82296  0.24786  0.36725    Ag
Ag     0.82296  0.75214  0.86725    Ag
H       0.8238    0.335   0.1681     H
H       0.8238    0.665   0.6681     H
C       0.8259   0.4591   0.9741     C
C       0.8259   0.5409   0.4741     C
C       0.8283   0.2926   0.2443     C
C       0.8283   0.7074   0.7443     C
H       0.8382   0.1329   0.1061     H
H       0.8382   0.8671   0.6061     H
Ag     0.84407  0.45744  0.36783    Ag
Ag     0.84407  0.54256  0.86783    Ag
N       0.8469   0.2682  0.94072     N
N       0.8469   0.7318  0.44072     N
H       0.8501   0.2964   0.5005     H
H       0.8501   0.7036   0.0005     H
H       0.8519   0.4785   0.7632     H
H       0.8519   0.5215   0.2632     H
N        0.852   0.2101   0.0274     N
N        0.852   0.7899   0.5274     N
H       0.8564   0.0874   0.6034     H
H       0.8564   0.9126   0.1034     H
H       0.8652   0.0615   0.8386     H
H       0.8652   0.9385   0.3386     H
H       0.8678   0.3202   0.2669     H
H       0.8678   0.6798   0.7669     H
H       0.8681   0.4823   0.9943     H
H       0.8681   0.5177   0.4943     H
N      0.87367   0.0113  0.52696     N
N      0.87367   0.9887  0.02696     N
C       0.8763    0.257   0.9976     C
C       0.8763    0.743   0.4976     C
N       0.8772   0.0373  0.94119     N
N       0.8772   0.9627  0.44119     N
C       0.9022     0.03    0.999     C
C       0.9022     0.97    0.499     C
N       0.9134   0.1577  0.40725     N
N       0.9134   0.8423  0.90725     N
H       0.9236   0.1852   0.4848     H
H       0.9236   0.8148   0.9848     H
H       0.9243   0.1185   0.3395     H
H       0.9243   0.8815   0.8395     H
N       0.9393   0.3847  0.41222     N
N       0.9393   0.6153  0.91222     N
C         0.94   0.3022   0.0298     C
C         0.94   0.6978   0.5298     C
C       0.9437    0.157   0.4649     C
C       0.9437    0.843   0.9649     C
C       0.9438    0.117   0.3796     C
C       0.9438    0.883   0.8796     C
H       0.9443   0.3973   0.4899     H
H       0.9443   0.6027   0.9899     H
H       0.9455   0.2908   0.1101     H
H       0.9455   0.7092   0.6101     H
H       0.9564   0.3629   0.3445     H
H       0.9564   0.6371   0.8445     H
H       0.9566   0.3309   0.9601     H
H       0.9566   0.6691   0.4601     H
C       0.9666   0.0738   0.0329     C
C       0.9666   0.9262   0.5329     C
C       0.9668   0.3754   0.4696     C
C       0.9668   0.6246   0.9696     C
C       0.9669   0.3122   0.0889     C
C       0.9669   0.6878   0.5889     C
C       0.9735   0.3547   0.3841     C
C       0.9735   0.6453   0.8841     C
C       0.9739   0.3356      0.0     C
C       0.9739   0.6644      0.5     C
H        0.977   0.1179   0.9633     H
H        0.977   0.8821   0.4633     H
H       0.9795   0.0437   0.1138     H
H       0.9795   0.9563   0.6138     H
C       0.9966   0.1165   0.0035     C
C       0.9966   0.8835   0.5035     C
C       0.9976   0.0731   0.0928     C
C       0.9976   0.9269   0.5928     C
