data_I
_chemical_name_common  '/home/zhangsd/repos/MofS-CGCNN/ML/data/TSD/clean_cifs/QODHUO_clean'
_cell_length_a 13.73930
_cell_length_b 13.73930
_cell_length_c 24.57480
_cell_angle_alpha 78.73940
_cell_angle_beta  78.47890
_cell_angle_gamma 107.06700
_space_group_name_H-M_alt      'P 1'


loop_
_space_group_symop_operation_xyz
  'x, y, z' 

loop_
_atom_site_label
_atom_site_fract_x
_atom_site_fract_y
_atom_site_fract_z
_atom_site_type_symbol
N      0.00218  0.41621  0.93681     N
C      0.00829   0.1071  0.03261     C
H       0.0096   0.4888   0.8314     H
C      0.02152   0.9243  0.90718     C
N      0.02506   0.3049  0.72824     N
H       0.0258   0.5937   0.6553     H
N      0.02616  0.84005  0.05879     N
C      0.02787   0.6221  0.00523     C
H       0.0342   0.0422   0.1606     H
N      0.03557   0.3584  0.02723     N
H       0.0427   0.7631   0.6098     H
C       0.0467   0.2232   0.8187     C
C       0.0519   0.7792   0.1521     C
C       0.0533   0.0608   0.1205     C
C       0.0559   0.6187   0.6156     C
C      0.06504   0.7205  0.58866     C
C      0.06571   0.8721  0.00139     C
Ag     0.06642  0.38645  0.63211    Ag
C       0.0695   0.6972   0.2427     C
H       0.0778   0.1548   0.6512     H
H       0.0779   0.5455    0.733     H
C       0.0802   0.4994   0.8148     C
C       0.0822   0.2656   0.7594     C
N      0.08799  0.55397  0.58764     N
H       0.0882   0.1967   0.8387     H
C      0.08866   0.1701  0.61144     C
H       0.0899   0.9349   0.8862     H
N      0.09071  0.26541  0.58328     N
C      0.09393   0.8216  0.08827     C
H          0.1   0.0294    0.606     H
C      0.10182    0.094  0.58458     C
C      0.10456   0.4365  0.91234     C
C       0.1077   0.2857   0.5258     C
C      0.10817   0.7573  0.52953     C
H       0.1093   0.3512   0.5055     H
H       0.1093   0.6697   0.2636     H
C      0.10975   0.1199  0.00335     C
C       0.1113    0.738   0.1835     C
N      0.11437   0.9372  0.52723     N
C      0.11754   0.1143  0.52536     C
C      0.12148   0.8669  0.49742     C
C       0.1225   0.5345   0.7556     C
C      0.12293   0.2142  0.49487     C
H       0.1271   0.3475   0.1098     H
C      0.12733   0.0331  0.49477     C
C       0.1276   0.5912   0.5304     C
H       0.1318   0.1412   0.9632     H
H       0.1354    0.706    0.894     H
C      0.13568   0.3811  0.99742     C
H       0.1363   0.2322   0.4549     H
N      0.13792  0.88464  0.44044     N
C      0.13865   0.6905  0.49965     C
C      0.13966   0.6429  0.97464     C
C      0.14532   0.4805  0.84858     C
N      0.14698  0.06101  0.43681     N
H       0.1484   0.2669   0.7401     H
H        0.149   0.5471   0.5101     H
C      0.15116   0.9831  0.41234     C
N      0.15241   0.0714  0.09259     N
H        0.159   0.8571   0.3437     H
N      0.16422  0.88448   0.9733     N
H       0.1661   0.7124   0.4597     H
C      0.17092   0.0061  0.34858     C
C       0.1732   0.9257   0.3219     C
N      0.17492  0.42164  0.94044     N
H       0.1774   0.7378   0.1652     H
C       0.1784   0.1004    0.035     C
C      0.17858   0.6864  0.91542     C
H       0.1798    0.159   0.3314     H
C       0.1858    0.105   0.3148     C
H       0.1871   0.5912   0.0451     H
C      0.19084   0.3463  0.08866     C
N      0.19583  0.83819  0.06478     N
C        0.197   0.9502   0.2624     C
H       0.1987   0.8964   0.2449     H
C      0.20907   0.6178  0.00513     C
C       0.2099   0.1219   0.2556     C
C      0.21317   0.3623  0.02953     C
N       0.2177   0.0474   0.2285     N
H       0.2215   0.1891    0.233     H
N       0.2241   0.5538   0.7285     N
C      0.22668   0.8686  0.00712     C
H       0.2463   0.1079    0.015     H
H        0.251   0.3189   0.1553     H
C       0.2524   0.5049   0.8219     C
C       0.2657   0.3285   0.1156     C
C      0.28154   0.7001  0.88856     C
C       0.2874   0.5406   0.7624     C
Ag     0.29285  0.07125   0.1327    Ag
Ag     0.29605  0.57445   0.6327    Ag
H       0.2972   0.8052   0.6606     H
H       0.2992   0.4973   0.8437     H
H        0.306    0.729   0.8488     H
H       0.3086   0.3558   0.6478     H
C      0.30985   0.3617  0.99965     C
C       0.3115   0.6335   0.9742     C
C       0.3187   0.8262   0.6205     C
H       0.3211   0.9761   0.6138     H
C      0.32395   0.3714  0.60785     C
H       0.3279   0.3742   0.9597     H
N      0.32802  0.46671  0.57847     N
C      0.33148   0.9287  0.59282     C
H        0.334   0.9419   0.8965     H
N      0.33601    0.755  0.59259     N
H       0.3384   0.2305   0.6035     H
C      0.33871   0.8855  0.97799     C
C      0.34145   0.2952  0.58155     C
N      0.34869  0.67399  0.91672     N
C       0.3509   0.4875   0.5204     C
H       0.3545   0.5532   0.4995     H
H       0.3567   0.6148   0.9945     H
N      0.35778  0.13752   0.5267     N
N      0.35839  0.32437  0.08764     N
H       0.3587   0.5564   0.7449     H
C      0.36029   0.9591  0.53261     C
C      0.36349   0.3167  0.52201     C
C       0.3646   0.7866    0.535     C
C       0.3692   0.4162   0.4902     C
C      0.37349   0.0671  0.49861     C
C      0.37572   0.2338  0.49288     C
C      0.37675   0.8869  0.50335     C
C      0.37675    0.923  0.91845     C
H       0.3771   0.7387    0.515     H
C       0.3784    0.342   0.0304     C
H       0.3839   0.8351   0.0498     H
H       0.3849   0.4337   0.4502     H
H       0.3956    0.905   0.4632     H
N      0.39884  0.08495  0.44121     N
N      0.40297  0.26061  0.43522     N
H        0.403   0.3426   0.3348     H
C       0.4064   0.8594   0.0098     C
C      0.40987   0.1822  0.41173     C
C       0.4215   0.2948   0.3165     C
C       0.4313    0.204   0.3479     C
H       0.4333   0.3729   0.2364     H
C       0.4399   0.3122   0.2573     C
H       0.4428   0.3409   0.0101     H
H       0.4473    0.146   0.9995     H
N      0.45482  0.09351  0.07847     N
C       0.4581   0.1346   0.3187     C
H       0.4646   0.0731   0.3387     H
N      0.46686   0.2467  0.22824     N
C        0.475   0.1584   0.2594     C
C      0.47925   0.9318  0.89215     C
Ag     0.48144  0.30147  0.13211    Ag
C       0.4921   0.1287   0.0204     C
H        0.493   0.1115   0.2401     H
H       0.4964   0.0436   0.1478     H
H       0.5036   0.9564   0.8522     H
H        0.507   0.8885   0.7599     H
C       0.5079   0.8713   0.9796     C
Ag     0.51856  0.69853  0.86789    Ag
C      0.52075   0.0682  0.10785     C
C        0.525   0.8416   0.7406     C
N      0.53314   0.7533  0.77176     N
H       0.5354   0.9269   0.6613     H
C       0.5419   0.8654   0.6813     C
N      0.54518  0.90649  0.92153     N
H       0.5527    0.854   0.0005     H
H       0.5572   0.6591   0.9899     H
C       0.5601   0.6878   0.7427     C
H       0.5667   0.6271   0.7636     H
C       0.5687    0.796   0.6521     C
C       0.5785   0.7052   0.6835     C
C      0.59013   0.8178  0.58827     C
C       0.5936   0.1406   0.9902     C
H        0.597   0.6574   0.6652     H
N      0.59703  0.73939  0.56478     N
N      0.60116  0.91505  0.55879     N
H       0.6044    0.095   0.5368     H
H       0.6151   0.5663   0.5498     H
H       0.6161   0.1649   0.9502     H
C       0.6216    0.658   0.9696     C
H       0.6229   0.2613    0.485     H
C      0.62325    0.077  0.08155     C
C      0.62325   0.1131  0.49665     C
C      0.62428   0.7662  0.50712     C
C      0.62651   0.9329  0.50139     C
C       0.6308   0.5838   0.5098     C
C       0.6354   0.2134    0.465     C
C      0.63651   0.6833  0.47799     C
C      0.63971   0.0409  0.46739     C
H       0.6413   0.4436   0.2551     H
N      0.64161  0.67563  0.91236     N
N      0.64222  0.86248   0.4733     N
H       0.6433   0.3852   0.0055     H
H       0.6455   0.4468   0.5005     H
C       0.6491   0.5125   0.4796     C
N      0.65131  0.32601  0.08328     N
C      0.65855   0.7048  0.41845     C
C      0.66129   0.1145  0.02201     C
H       0.6616   0.7695   0.3965     H
N      0.66399    0.245  0.40741     N
H        0.666   0.0581   0.1035     H
C      0.66852   0.0713  0.40718     C
N      0.67198  0.53329  0.42153     N
H       0.6721   0.6258   0.0403     H
C      0.67605   0.6286  0.39215     C
H       0.6789   0.0239   0.3862     H
C       0.6813   0.1738   0.3795     C
C       0.6885   0.3665   0.0258     C
C      0.69015   0.6383  0.00035     C
H       0.6914   0.6442   0.3522     H
H        0.694    0.271   0.1512     H
H       0.7008   0.5027   0.1563     H
H       0.7028   0.1948   0.3394     H
Ag     0.70395  0.42555   0.3673    Ag
Ag     0.70715  0.92875   0.8673    Ag
C       0.7126   0.4594   0.2376     C
C      0.71846   0.2999  0.11144     C
C       0.7343   0.6715   0.8844     C
C       0.7476   0.4951   0.1781     C
H        0.749   0.6811   0.8447     H
H       0.7537   0.8921    0.985     H
C      0.77332   0.1314  0.99288     C
N       0.7759   0.4462   0.2715     N
H       0.7785   0.8109    0.767     H
N       0.7823   0.9526   0.7715     N
C      0.78683   0.6377  0.97047     C
C       0.7901   0.8781   0.7444     C
C      0.79093   0.3822  0.99487     C
H       0.8013   0.1036   0.7551     H
C        0.803   0.0498   0.7376     C
N      0.80417  0.16181  0.93522     N
C      0.80916   0.6537  0.91134     C
H       0.8129   0.4088   0.9549     H
C       0.8142    0.895   0.6852     C
H       0.8202    0.841   0.6686     H
C      0.82142   0.3136  0.08458     C
C       0.8216   0.8996    0.965     C
H       0.8226   0.2622   0.8348     H
N      0.82508  0.57836  0.05956     N
C       0.8268   0.0743   0.6781     C
C      0.82908   0.9939  0.65142     C
H       0.8339   0.2876   0.5403     H
N      0.83578  0.11552   0.0267     N
H        0.841   0.1429   0.6563     H
N      0.84759   0.9286  0.90741     N
C      0.84884   0.0169  0.58766     C
H        0.851   0.4529   0.4899     H
H       0.8516   0.7331   0.2599     H
N      0.85302  0.93899  0.56319     N
C      0.85468   0.5195  0.15142     C
C      0.86034   0.3571  0.02536     C
C      0.86135   0.3095  0.50035     C
N      0.86208  0.11536  0.55956     N
H       0.8637   0.7678   0.5451     H
C      0.86432   0.6189  0.00258     C
H       0.8646    0.294    0.106     H
H       0.8682   0.8588   0.0368     H
C       0.8724   0.4088   0.4696     C
C      0.87267   0.9669  0.50523     C
H       0.8729   0.6525   0.8902     H
C      0.87707   0.7858  0.50513     C
C       0.8775   0.4655   0.2444     C
C      0.87852   0.1331  0.50258     C
C      0.88246   0.8857  0.47464     C
N      0.88563   0.0628  0.47277     N
C       0.8887    0.262   0.8165     C
C      0.89025   0.8801  0.99665     C
H       0.8907   0.3303   0.7364     H
H       0.8907   0.6488   0.4945     H
C      0.89183   0.2427  0.47047     C
C       0.8923   0.7143   0.4742     C
C      0.89544   0.5635  0.08766     C
C      0.89818    0.906  0.41542     C
H          0.9   0.9706    0.394     H
C      0.90607   0.1784  0.91173     C
N      0.90929  0.73459  0.41672     N
H       0.9101   0.0651   0.1138     H
C      0.91134   0.8299  0.38856     C
H       0.9118   0.8033   0.1613     H
N      0.91201  0.44603  0.41236     N
C       0.9178   0.7344   0.2406     C
C       0.9198   0.5006   0.1852     C
H       0.9221   0.4545    0.267     H
H       0.9222   0.8452   0.3488     H
C       0.9305   0.3028   0.7573     C
Ag     0.93358  0.61355  0.36789    Ag
C      0.93429   0.1279  0.99861     C
C      0.93496   0.2795  0.41134     C
C       0.9441   0.3813   0.3844     C
C       0.9467   0.9392   0.8795     C
C       0.9481   0.2208   0.8479     C
C       0.9533   0.7768   0.1813     C
H       0.9573   0.2369   0.3902     H
N      0.96443   0.6416  0.97277     N
H       0.9658   0.9578   0.8394     H
C      0.97213   0.3779  0.99477     C
N      0.97384  0.15995  0.94121     N
H       0.9742   0.4063   0.3447     H
N      0.97494   0.6951  0.27176     N
C      0.97848   0.0757  0.09282     C
H       0.9904   0.5112   0.1686     H
C      0.99171   0.8929  0.96739     C
N      0.99782  0.58379  0.06319     N
