data_I
_chemical_name_common  '/home/zhangsd/repos/MofS-CGCNN/ML/data/TSD/clean_cifs/QODHUO01_clean'
_cell_length_a 21.93810
_cell_length_b 16.71980
_cell_length_c 25.50370
_cell_angle_alpha 90.00000
_cell_angle_beta  115.07400
_cell_angle_gamma 90.00000
_space_group_name_H-M_alt      'P 1'


loop_
_space_group_symop_operation_xyz
  'x, y, z' 

loop_
_atom_site_label
_atom_site_fract_x
_atom_site_fract_y
_atom_site_fract_z
_atom_site_type_symbol
C       0.0011   0.4289   0.4049     C
C       0.0011   0.5711   0.9049     C
C        0.003   0.3853    0.494     C
C        0.003   0.6147    0.994     C
H       0.0183   0.4591   0.3836     H
H       0.0183   0.5409   0.8836     H
H       0.0224    0.384   0.5343     H
H       0.0224    0.616   0.0343     H
C       0.0253   0.1663    0.497     C
C       0.0253   0.8337    0.997     C
C       0.0274   0.1485   0.1186     C
C       0.0274   0.8515   0.6186     C
C       0.0326   0.1902   0.4088     C
C       0.0326   0.8098   0.9088     C
C       0.0327   0.1269   0.0329     C
C       0.0327   0.8731   0.5329     C
C       0.0328   0.4274   0.4647     C
C       0.0328   0.5726   0.9647     C
H       0.0421   0.1712    0.537     H
H       0.0421   0.8288    0.037     H
H       0.0451   0.1414   0.1585     H
H       0.0451   0.8586   0.6585     H
H       0.0541   0.2114   0.3874     H
H       0.0541   0.7886   0.8874     H
H       0.0546   0.1041   0.0123     H
H       0.0546   0.8959   0.5123     H
C       0.0564   0.3846   0.1222     C
C       0.0564   0.6154   0.6222     C
C       0.0566   0.3449   0.0378     C
C       0.0566   0.6551   0.5378     C
C       0.0596   0.1997   0.4674     C
C       0.0596   0.8003   0.9674     C
N       0.0605   0.1185   0.0898     N
N       0.0605   0.8815   0.5898     N
H       0.0754   0.3824   0.1624     H
H       0.0754   0.6176   0.6624     H
H       0.0762   0.3164   0.0176     H
H       0.0762   0.6836   0.5176     H
N       0.0872   0.3443   0.0949     N
N       0.0872   0.6557   0.5949     N
C       0.0975   0.4718   0.4986     C
C       0.0975   0.5282   0.9986     C
N       0.1225   0.4628   0.5563     N
N       0.1225   0.5372   0.0563     N
C        0.123   0.2445   0.4998     C
C        0.123   0.7555   0.9998     C
N       0.1248   0.4869   0.9707     N
N       0.1248   0.5131   0.4707     N
H       0.1328   0.0191    0.507     H
H       0.1328   0.9809    0.007     H
H       0.1332   0.1824   0.2348     H
H       0.1332   0.8176   0.7348     H
H       0.1346   0.4379   0.6587     H
H       0.1346   0.5621   0.1587     H
H       0.1436   0.4123   0.8941     H
H       0.1436   0.5877   0.3941     H
N       0.1475   0.2904   0.4704     N
N       0.1475   0.7096   0.9704     N
H       0.1501    0.023   0.7387     H
H       0.1501    0.977   0.2387     H
N        0.152   0.2345   0.5569     N
N        0.152   0.7655   0.0569     N
H       0.1528   0.2055   0.0008     H
H       0.1528   0.7945   0.5008     H
Ag     0.15576  0.04367  0.13335    Ag
Ag     0.15576  0.95633  0.63335    Ag
H       0.1616   0.3691   0.3918     H
H       0.1616   0.6309   0.8918     H
C       0.1725   0.2097   0.2577     C
C       0.1725   0.7903   0.7577     C
H       0.1751   0.1688   0.3339     H
H       0.1751   0.1852    0.655     H
H       0.1751   0.8148    0.155     H
H       0.1751   0.8312   0.8339     H
C       0.1753   0.0414   0.5273     C
C       0.1753   0.9586   0.0273     C
Ag     0.17856  0.25688  0.13378    Ag
Ag     0.17856  0.74312  0.63378    Ag
C       0.1786   0.4558    0.679     C
C       0.1786   0.5442    0.179     C
C       0.1799   0.4979   0.0857     C
C       0.1799   0.5021   0.5857     C
H       0.1807   0.0859   0.4566     H
H       0.1807   0.9141   0.9566     H
C       0.1814   0.4476   0.0046     C
C       0.1814   0.5524   0.5046     C
C       0.1855     0.39   0.9164     C
C       0.1855     0.61   0.4164     C
H       0.1875   0.4228    0.757     H
H       0.1875   0.5772    0.257     H
C       0.1938   0.1806   0.0222     C
C       0.1938   0.8194   0.5222     C
C       0.1939   0.0051   0.7597     C
C       0.1939   0.9949   0.2597     C
C       0.1978   0.1996   0.3174     C
C       0.1978   0.8004   0.8174     C
H       0.1981   0.0398   0.8366     H
H       0.1981   0.9602   0.3366     H
N       0.1999   0.2547   0.2313     N
N       0.1999   0.7453   0.7313     N
H       0.2002   0.3424   0.8499     H
H       0.2002   0.6576   0.3499     H
C       0.2025   0.0828   0.4967     C
C       0.2025   0.9172   0.9967     C
H        0.203   0.1346   0.9525     H
H        0.203   0.8654   0.4525     H
C       0.2039    0.391   0.4135     C
C       0.2039    0.609   0.9135     C
C       0.2045   0.3283   0.5025     C
C       0.2045   0.6717   0.0025     C
N       0.2048   0.0305    0.584     N
N       0.2048   0.9695    0.084     N
C       0.2094   0.2743   0.5853     C
C       0.2094   0.7257   0.0853     C
N       0.2103   0.4508   0.0624     N
N       0.2103   0.5492   0.5624     N
C       0.2108   0.4465   0.7378     C
C       0.2108   0.5535   0.2378     C
C        0.212    0.492   0.6499     C
C        0.212    0.508   0.1499     C
C       0.2142    0.399   0.9755     C
C       0.2142    0.601   0.4755     C
H       0.2144   0.4416   0.3471     H
H       0.2144   0.5584   0.8471     H
C       0.2145   0.2132   0.6764     C
C       0.2145   0.7868   0.1764     C
C       0.2197   0.3471     0.89     C
C       0.2197   0.6529     0.39     C
N       0.2205   0.1875   0.0795     N
N       0.2205   0.8125   0.5795     N
C       0.2225   0.0163   0.8184     C
C       0.2225   0.9837   0.3184     C
C       0.2237   0.1383   0.9927     C
C       0.2237   0.8617   0.4927     C
N       0.2247   0.0297   0.2307     N
N       0.2247   0.9703   0.7307     N
H       0.2271    0.171   0.7523     H
H       0.2271    0.829   0.2523     H
C        0.235   0.3791   0.4723     C
C        0.235   0.6209   0.9723     C
C       0.2356   0.4353    0.387     C
C       0.2356   0.5647    0.887     C
N       0.2373   0.3229   0.5605     N
N       0.2373   0.6771   0.0605     N
C       0.2428   0.2632    0.649     C
C       0.2428   0.7368    0.149     C
C       0.2457   0.2062   0.7348     C
C       0.2457   0.7938   0.2348     C
C       0.2543   0.2938   0.2652     C
C       0.2543   0.7062   0.7652     C
C       0.2572   0.2368    0.351     C
C       0.2572   0.7632    0.851     C
N       0.2627   0.1771   0.4395     N
N       0.2627   0.8229   0.9395     N
C       0.2644   0.0647    0.613     C
C       0.2644   0.9353    0.113     C
C        0.265   0.1209   0.5277     C
C        0.265   0.8791   0.0277     C
H       0.2729    0.329   0.2477     H
H       0.2729    0.671   0.7477     H
N       0.2753   0.4703   0.7693     N
N       0.2753   0.5297   0.2693     N
C       0.2763   0.3617   0.0073     C
C       0.2763   0.6383   0.5073     C
C       0.2775   0.4837   0.1816     C
C       0.2775   0.5163   0.6816     C
N       0.2795   0.3125   0.9205     N
N       0.2795   0.6875   0.4205     N
C       0.2803   0.1529     0.11     C
C       0.2803   0.8471     0.61     C
C       0.2855   0.2868   0.3236     C
C       0.2855   0.7132   0.8236     C
H       0.2856   0.0584   0.6529     H
H       0.2856   0.9416   0.1529     H
C       0.2858    0.101   0.0245     C
C       0.2858    0.899   0.5245     C
C        0.288    0.008   0.3501     C
C        0.288    0.992   0.8501     C
C       0.2892   0.0535   0.2622     C
C       0.2892   0.9465   0.7622     C
N       0.2897   0.0492   0.9376     N
N       0.2897   0.9508   0.4376     N
C       0.2906   0.2257   0.4147     C
C       0.2906   0.7743   0.9147     C
N       0.2952   0.4695    0.416     N
N       0.2952   0.5305    0.916     N
C       0.2955   0.1717   0.4975     C
C       0.2955   0.8283   0.9975     C
C       0.2961    0.109   0.5865     C
C       0.2961    0.891   0.0865     C
H        0.297   0.3654   0.0475     H
H        0.297   0.6346   0.5475     H
C       0.2975   0.4172   0.5033     C
C       0.2975   0.5828   0.0033     C
H       0.2998   0.1576   0.1501     H
H       0.2998   0.8424   0.6501     H
N       0.3001   0.2453   0.7687     N
N       0.3001   0.7547   0.2687     N
H       0.3019   0.4602   0.1634     H
H       0.3019   0.5398   0.6634     H
C       0.3022   0.3004   0.6826     C
C       0.3022   0.6996   0.1826     C
C       0.3061   0.4949   0.2403     C
C       0.3061   0.5051   0.7403     C
C       0.3062   0.3194   0.9778     C
C       0.3062   0.6806   0.4778     C
H       0.3125   0.0772    0.243     H
H       0.3125   0.9228    0.743     H
C       0.3145     0.11   0.0836     C
C       0.3145     0.89   0.5836     C
C       0.3186   0.0524   0.9954     C
C       0.3186   0.9476   0.4954     C
H       0.3193   0.4141   0.5434     H
H       0.3193   0.5859   0.0434     H
C       0.3201   0.0021   0.9143     C
C       0.3201   0.9979   0.4143     C
C       0.3214   0.0442    0.321     C
C       0.3214   0.9558    0.821     C
Ag     0.32144  0.24312  0.86622    Ag
Ag     0.32144  0.75688  0.36622    Ag
C       0.3247   0.4586   0.4727     C
C       0.3247   0.5414   0.9727     C
H       0.3249   0.3148    0.345     H
H       0.3249   0.3312   0.6661     H
H       0.3249   0.6688   0.1661     H
H       0.3249   0.6852    0.845     H
C       0.3275   0.2903   0.7423     C
C       0.3275   0.7097   0.2423     C
H       0.3384   0.1309   0.6082     H
H       0.3384   0.8691   0.1082     H
Ag     0.34424  0.45633  0.86665    Ag
Ag     0.34424  0.54367  0.36665    Ag
H       0.3472   0.2945   0.9992     H
H       0.3472   0.7055   0.4992     H
N        0.348   0.2655   0.4431     N
N        0.348   0.7345   0.9431     N
H       0.3499    0.477   0.2613     H
H       0.3499    0.523   0.7613     H
N       0.3525   0.2096   0.5296     N
N       0.3525   0.7904   0.0296     N
H       0.3564   0.0877   0.1059     H
H       0.3564   0.9123   0.6059     H
H       0.3654   0.0621   0.3413     H
H       0.3654   0.9379   0.8413     H
H       0.3668   0.3176   0.7652     H
H       0.3668   0.6824   0.2652     H
H       0.3672   0.4809    0.493     H
H       0.3672   0.5191    0.993     H
N       0.3752   0.0131   0.0293     N
N       0.3752   0.9869   0.5293     N
C        0.377   0.2555   0.5002     C
C        0.377   0.7445   0.0002     C
N       0.3775   0.0372   0.4437     N
N       0.3775   0.9628   0.9437     N
C       0.4025   0.0282   0.5014     C
C       0.4025   0.9718   0.0014     C
N       0.4128   0.1557   0.9051     N
N       0.4128   0.8443   0.4051     N
H       0.4238   0.1836   0.9824     H
H       0.4238   0.8164   0.4824     H
H       0.4246   0.1176   0.8376     H
H       0.4246   0.8824   0.3376     H
N       0.4395   0.3815   0.9102     N
N       0.4395   0.6185   0.4102     N
C       0.4404   0.3003   0.5326     C
C       0.4404   0.6997   0.0326     C
C       0.4434   0.1551   0.9622     C
C       0.4434   0.8449   0.4622     C
C       0.4436   0.1154   0.8778     C
C       0.4436   0.8846   0.3778     C
H       0.4454   0.3959   0.9877     H
H       0.4454   0.6041   0.4877     H
H       0.4459   0.2886   0.6126     H
H       0.4459   0.7114   0.1126     H
H       0.4549   0.3586   0.8415     H
H       0.4549   0.6414   0.3415     H
H       0.4579   0.3288    0.463     H
H       0.4579   0.6712    0.963     H
C       0.4672   0.0726   0.5353     C
C       0.4672   0.9274   0.0353     C
C       0.4673   0.3731   0.9671     C
C       0.4673   0.6269   0.4671     C
C       0.4674   0.3098   0.5912     C
C       0.4674   0.6902   0.0912     C
C       0.4726   0.3515   0.8814     C
C       0.4726   0.6485   0.3814     C
C       0.4747   0.3337    0.503     C
C       0.4747   0.6663    0.003     C
H       0.4776    0.116   0.4657     H
H       0.4776    0.884   0.9657     H
H       0.4817   0.0409   0.6164     H
H       0.4817   0.9591   0.1164     H
C        0.497   0.1147    0.506     C
C        0.497   0.8853    0.006     C
C       0.4989   0.0711   0.5951     C
C       0.4989   0.9289   0.0951     C
C       0.5011   0.0711   0.9049     C
C       0.5011   0.9289   0.4049     C
C        0.503   0.1147    0.994     C
C        0.503   0.8853    0.494     C
H       0.5183   0.0409   0.8836     H
H       0.5183   0.9591   0.3836     H
H       0.5224    0.116   0.0343     H
H       0.5224    0.884   0.5343     H
C       0.5253   0.3337    0.997     C
C       0.5253   0.6663    0.497     C
C       0.5274   0.3515   0.6186     C
C       0.5274   0.6485   0.1186     C
C       0.5326   0.3098   0.9088     C
C       0.5326   0.6902   0.4088     C
C       0.5327   0.3731   0.5329     C
C       0.5327   0.6269   0.0329     C
C       0.5328   0.0726   0.9647     C
C       0.5328   0.9274   0.4647     C
H       0.5421   0.3288    0.037     H
H       0.5421   0.6712    0.537     H
H       0.5451   0.3586   0.6585     H
H       0.5451   0.6414   0.1585     H
H       0.5541   0.2886   0.8874     H
H       0.5541   0.7114   0.3874     H
H       0.5546   0.3959   0.5123     H
H       0.5546   0.6041   0.0123     H
C       0.5564   0.1154   0.6222     C
C       0.5564   0.8846   0.1222     C
C       0.5566   0.1551   0.5378     C
C       0.5566   0.8449   0.0378     C
C       0.5596   0.3003   0.9674     C
C       0.5596   0.6997   0.4674     C
N       0.5605   0.3815   0.5898     N
N       0.5605   0.6185   0.0898     N
H       0.5754   0.1176   0.6624     H
H       0.5754   0.8824   0.1624     H
H       0.5762   0.1836   0.5176     H
H       0.5762   0.8164   0.0176     H
N       0.5872   0.1557   0.5949     N
N       0.5872   0.8443   0.0949     N
C       0.5975   0.0282   0.9986     C
C       0.5975   0.9718   0.4986     C
N       0.6225   0.0372   0.0563     N
N       0.6225   0.9628   0.5563     N
C        0.623   0.2555   0.9998     C
C        0.623   0.7445   0.4998     C
N       0.6248   0.0131   0.4707     N
N       0.6248   0.9869   0.9707     N
H       0.6328   0.4809    0.007     H
H       0.6328   0.5191    0.507     H
H       0.6332   0.3176   0.7348     H
H       0.6332   0.6824   0.2348     H
H       0.6346   0.0621   0.1587     H
H       0.6346   0.9379   0.6587     H
H       0.6436   0.0877   0.3941     H
H       0.6436   0.9123   0.8941     H
N       0.6475   0.2096   0.9704     N
N       0.6475   0.7904   0.4704     N
H       0.6501    0.477   0.2387     H
H       0.6501    0.523   0.7387     H
N        0.652   0.2655   0.0569     N
N        0.652   0.7345   0.5569     N
H       0.6528   0.2945   0.5008     H
H       0.6528   0.7055   0.0008     H
Ag     0.65576  0.45633  0.63335    Ag
Ag     0.65576  0.54367  0.13335    Ag
H       0.6616   0.1309   0.8918     H
H       0.6616   0.8691   0.3918     H
C       0.6725   0.2903   0.7577     C
C       0.6725   0.7097   0.2577     C
H       0.6751   0.3148    0.155     H
H       0.6751   0.3312   0.8339     H
H       0.6751   0.6688   0.3339     H
H       0.6751   0.6852    0.655     H
C       0.6753   0.4586   0.0273     C
C       0.6753   0.5414   0.5273     C
Ag     0.67856  0.24312  0.63378    Ag
Ag     0.67856  0.75688  0.13378    Ag
C       0.6786   0.0442    0.179     C
C       0.6786   0.9558    0.679     C
C       0.6799   0.0021   0.5857     C
C       0.6799   0.9979   0.0857     C
H       0.6807   0.4141   0.9566     H
H       0.6807   0.5859   0.4566     H
C       0.6814   0.0524   0.5046     C
C       0.6814   0.9476   0.0046     C
C       0.6855     0.11   0.4164     C
C       0.6855     0.89   0.9164     C
H       0.6875   0.0772    0.257     H
H       0.6875   0.9228    0.757     H
C       0.6938   0.3194   0.5222     C
C       0.6938   0.6806   0.0222     C
C       0.6939   0.4949   0.2597     C
C       0.6939   0.5051   0.7597     C
C       0.6978   0.3004   0.8174     C
C       0.6978   0.6996   0.3174     C
H       0.6981   0.4602   0.3366     H
H       0.6981   0.5398   0.8366     H
N       0.6999   0.2453   0.7313     N
N       0.6999   0.7547   0.2313     N
H       0.7002   0.1576   0.3499     H
H       0.7002   0.8424   0.8499     H
C       0.7025   0.4172   0.9967     C
C       0.7025   0.5828   0.4967     C
H        0.703   0.3654   0.4525     H
H        0.703   0.6346   0.9525     H
C       0.7039    0.109   0.9135     C
C       0.7039    0.891   0.4135     C
C       0.7045   0.1717   0.0025     C
C       0.7045   0.8283   0.5025     C
N       0.7048   0.4695    0.084     N
N       0.7048   0.5305    0.584     N
C       0.7094   0.2257   0.0853     C
C       0.7094   0.7743   0.5853     C
N       0.7103   0.0492   0.5624     N
N       0.7103   0.9508   0.0624     N
C       0.7108   0.0535   0.2378     C
C       0.7108   0.9465   0.7378     C
C        0.712    0.008   0.1499     C
C        0.712    0.992   0.6499     C
C       0.7142    0.101   0.4755     C
C       0.7142    0.899   0.9755     C
H       0.7144   0.0584   0.8471     H
H       0.7144   0.9416   0.3471     H
C       0.7145   0.2868   0.1764     C
C       0.7145   0.7132   0.6764     C
C       0.7197   0.1529     0.39     C
C       0.7197   0.8471     0.89     C
N       0.7205   0.3125   0.5795     N
N       0.7205   0.6875   0.0795     N
C       0.7225   0.4837   0.3184     C
C       0.7225   0.5163   0.8184     C
C       0.7237   0.3617   0.4927     C
C       0.7237   0.6383   0.9927     C
N       0.7247   0.4703   0.7307     N
N       0.7247   0.5297   0.2307     N
H       0.7271    0.329   0.2523     H
H       0.7271    0.671   0.7523     H
C        0.735   0.1209   0.9723     C
C        0.735   0.8791   0.4723     C
C       0.7356   0.0647    0.887     C
C       0.7356   0.9353    0.387     C
N       0.7373   0.1771   0.0605     N
N       0.7373   0.8229   0.5605     N
C       0.7428   0.2368    0.149     C
C       0.7428   0.7632    0.649     C
C       0.7457   0.2938   0.2348     C
C       0.7457   0.7062   0.7348     C
C       0.7543   0.2062   0.7652     C
C       0.7543   0.7938   0.2652     C
C       0.7572   0.2632    0.851     C
C       0.7572   0.7368    0.351     C
N       0.7627   0.3229   0.9395     N
N       0.7627   0.6771   0.4395     N
C       0.7644   0.4353    0.113     C
C       0.7644   0.5647    0.613     C
C        0.765   0.3791   0.0277     C
C        0.765   0.6209   0.5277     C
H       0.7729    0.171   0.7477     H
H       0.7729    0.829   0.2477     H
N       0.7753   0.0297   0.2693     N
N       0.7753   0.9703   0.7693     N
C       0.7763   0.1383   0.5073     C
C       0.7763   0.8617   0.0073     C
C       0.7775   0.0163   0.6816     C
C       0.7775   0.9837   0.1816     C
N       0.7795   0.1875   0.4205     N
N       0.7795   0.8125   0.9205     N
C       0.7803   0.3471     0.61     C
C       0.7803   0.6529     0.11     C
C       0.7855   0.2132   0.8236     C
C       0.7855   0.7868   0.3236     C
H       0.7856   0.4416   0.1529     H
H       0.7856   0.5584   0.6529     H
C       0.7858    0.399   0.5245     C
C       0.7858    0.601   0.0245     C
C        0.788    0.492   0.8501     C
C        0.788    0.508   0.3501     C
C       0.7892   0.4465   0.7622     C
C       0.7892   0.5535   0.2622     C
N       0.7897   0.4508   0.4376     N
N       0.7897   0.5492   0.9376     N
C       0.7906   0.2743   0.9147     C
C       0.7906   0.7257   0.4147     C
N       0.7952   0.0305    0.916     N
N       0.7952   0.9695    0.416     N
C       0.7955   0.3283   0.9975     C
C       0.7955   0.6717   0.4975     C
C       0.7961    0.391   0.0865     C
C       0.7961    0.609   0.5865     C
H        0.797   0.1346   0.5475     H
H        0.797   0.8654   0.0475     H
C       0.7975   0.0828   0.0033     C
C       0.7975   0.9172   0.5033     C
H       0.7998   0.3424   0.6501     H
H       0.7998   0.6576   0.1501     H
N       0.8001   0.2547   0.2687     N
N       0.8001   0.7453   0.7687     N
H       0.8019   0.0398   0.6634     H
H       0.8019   0.9602   0.1634     H
C       0.8022   0.1996   0.1826     C
C       0.8022   0.8004   0.6826     C
C       0.8061   0.0051   0.7403     C
C       0.8061   0.9949   0.2403     C
C       0.8062   0.1806   0.4778     C
C       0.8062   0.8194   0.9778     C
H       0.8125   0.4228    0.743     H
H       0.8125   0.5772    0.243     H
C       0.8145     0.39   0.5836     C
C       0.8145     0.61   0.0836     C
C       0.8186   0.4476   0.4954     C
C       0.8186   0.5524   0.9954     C
H       0.8193   0.0859   0.0434     H
H       0.8193   0.9141   0.5434     H
C       0.8201   0.4979   0.4143     C
C       0.8201   0.5021   0.9143     C
C       0.8214   0.4558    0.821     C
C       0.8214   0.5442    0.321     C
Ag     0.82144  0.25688  0.36622    Ag
Ag     0.82144  0.74312  0.86622    Ag
C       0.8247   0.0414   0.9727     C
C       0.8247   0.9586   0.4727     C
H       0.8249   0.1688   0.1661     H
H       0.8249   0.1852    0.845     H
H       0.8249   0.8148    0.345     H
H       0.8249   0.8312   0.6661     H
C       0.8275   0.2097   0.2423     C
C       0.8275   0.7903   0.7423     C
H       0.8384   0.3691   0.1082     H
H       0.8384   0.6309   0.6082     H
Ag     0.84424  0.04367  0.36665    Ag
Ag     0.84424  0.95633  0.86665    Ag
H       0.8472   0.2055   0.4992     H
H       0.8472   0.7945   0.9992     H
N        0.848   0.2345   0.9431     N
N        0.848   0.7655   0.4431     N
H       0.8499    0.023   0.7613     H
H       0.8499    0.977   0.2613     H
N       0.8525   0.2904   0.0296     N
N       0.8525   0.7096   0.5296     N
H       0.8564   0.4123   0.6059     H
H       0.8564   0.5877   0.1059     H
H       0.8654   0.4379   0.8413     H
H       0.8654   0.5621   0.3413     H
H       0.8668   0.1824   0.2652     H
H       0.8668   0.8176   0.7652     H
H       0.8672   0.0191    0.993     H
H       0.8672   0.9809    0.493     H
N       0.8752   0.4869   0.5293     N
N       0.8752   0.5131   0.0293     N
C        0.877   0.2445   0.0002     C
C        0.877   0.7555   0.5002     C
N       0.8775   0.4628   0.9437     N
N       0.8775   0.5372   0.4437     N
C       0.9025   0.4718   0.0014     C
C       0.9025   0.5282   0.5014     C
N       0.9128   0.3443   0.4051     N
N       0.9128   0.6557   0.9051     N
H       0.9238   0.3164   0.4824     H
H       0.9238   0.6836   0.9824     H
H       0.9246   0.3824   0.3376     H
H       0.9246   0.6176   0.8376     H
N       0.9395   0.1185   0.4102     N
N       0.9395   0.8815   0.9102     N
C       0.9404   0.1997   0.0326     C
C       0.9404   0.8003   0.5326     C
C       0.9434   0.3449   0.4622     C
C       0.9434   0.6551   0.9622     C
C       0.9436   0.3846   0.3778     C
C       0.9436   0.6154   0.8778     C
H       0.9454   0.1041   0.4877     H
H       0.9454   0.8959   0.9877     H
H       0.9459   0.2114   0.1126     H
H       0.9459   0.7886   0.6126     H
H       0.9549   0.1414   0.3415     H
H       0.9549   0.8586   0.8415     H
H       0.9579   0.1712    0.963     H
H       0.9579   0.8288    0.463     H
C       0.9672   0.4274   0.0353     C
C       0.9672   0.5726   0.5353     C
C       0.9673   0.1269   0.4671     C
C       0.9673   0.8731   0.9671     C
C       0.9674   0.1902   0.0912     C
C       0.9674   0.8098   0.5912     C
C       0.9726   0.1485   0.3814     C
C       0.9726   0.8515   0.8814     C
C       0.9747   0.1663    0.003     C
C       0.9747   0.8337    0.503     C
H       0.9776    0.384   0.9657     H
H       0.9776    0.616   0.4657     H
H       0.9817   0.4591   0.1164     H
H       0.9817   0.5409   0.6164     H
C        0.997   0.3853    0.006     C
C        0.997   0.6147    0.506     C
C       0.9989   0.4289   0.0951     C
C       0.9989   0.5711   0.5951     C
