data_I
_chemical_name_common  '/home/zhangsd/repos/MofS-CGCNN/ML/data/TSD/clean_cifs/QODPOQ_clean'
_cell_length_a 21.95040
_cell_length_b 16.70950
_cell_length_c 25.61280
_cell_angle_alpha 90.00000
_cell_angle_beta  115.36600
_cell_angle_gamma 90.00000
_space_group_name_H-M_alt      'P 1'


loop_
_space_group_symop_operation_xyz
  'x, y, z' 

loop_
_atom_site_label
_atom_site_fract_x
_atom_site_fract_y
_atom_site_fract_z
_atom_site_type_symbol
H       0.0013   0.3842   0.5488     H
H       0.0013   0.6158   0.0488     H
H       0.0016   0.3362   0.3957     H
H       0.0016   0.6638   0.8957     H
C       0.0115   0.1275   0.0255     C
C       0.0115   0.8725   0.5255     C
C       0.0124     0.35   0.4769     C
C       0.0124     0.65   0.9769     C
C       0.0181   0.3584    0.082     C
C       0.0181   0.3873   0.9913     C
C       0.0181   0.6127   0.4913     C
C       0.0181   0.6416    0.582     C
H       0.0191   0.1167    0.107     H
H       0.0191   0.8833    0.607     H
H       0.0249   0.1624   0.9546     H
H       0.0249   0.8376   0.4546     H
C       0.0393   0.1391   0.0851     C
C       0.0393   0.8609   0.5851     C
C       0.0428   0.1659   0.9947     C
C       0.0428   0.8341   0.4947     C
C       0.0496   0.0775   0.5046     C
C       0.0496   0.9225   0.0046     C
N       0.0739    0.039   0.4721     N
N       0.0739    0.961   0.9721     N
C       0.0746   0.3016    0.506     C
C       0.0746   0.6984    0.006     C
N       0.0749   0.0728   0.5626     N
N       0.0749   0.9272   0.0626     N
C       0.0778   0.3995   0.1081     C
C       0.0778   0.6005   0.6081     C
C       0.0779   0.4291    0.021     C
C       0.0779   0.5709    0.521     C
H       0.0849   0.0397   0.8892     H
H       0.0849   0.9603   0.3892     H
H       0.0944   0.0853   0.6681     H
H       0.0944   0.9147   0.1681     H
C       0.0971   0.1841   0.1112     C
C       0.0971   0.8159   0.6112     C
N       0.0973   0.2611   0.4729     N
N       0.0973   0.7389   0.9729     N
H       0.0981   0.4536   0.9998     H
H       0.0981   0.5464   0.4998     H
H       0.0986   0.4025   0.1482     H
H       0.0986   0.5975   0.6482     H
C        0.101   0.2091   0.0257     C
C        0.101   0.7909   0.5257     C
N       0.1035   0.2988   0.5639     N
N       0.1035   0.7012   0.0639     N
N       0.1078   0.4358    0.078     N
N       0.1078   0.5642    0.578     N
H        0.114   0.2918   0.6654     H
H        0.114   0.7082   0.1654     H
H       0.1153   0.1905   0.1511     H
H       0.1153   0.8095   0.6511     H
H       0.1158   0.2039   0.3859     H
H       0.1158   0.7961   0.8859     H
H       0.1223   0.2329   0.0051     H
H       0.1223   0.7671   0.5051     H
C       0.1269   0.0247   0.5872     C
C       0.1269   0.9753   0.0872     C
C       0.1275   0.0067   0.0017     C
C       0.1275   0.9933   0.5017     C
C       0.1276   0.0611   0.9106     C
C       0.1276   0.9389   0.4106     C
N       0.1285   0.2191   0.0825     N
N       0.1285   0.7809   0.5825     N
C        0.133    0.054   0.6844     C
C        0.133    0.946   0.1844     C
H       0.1382   0.1098   0.8444     H
H       0.1382   0.8902   0.3444     H
H       0.1526   0.0752   0.7667     H
H       0.1526   0.9248   0.2667     H
C       0.1531   0.2198   0.5003     C
C       0.1531   0.7802   0.0003     C
C        0.155   0.1751    0.407     C
C        0.155   0.8249    0.907     C
N       0.1557   0.0171   0.0583     N
N       0.1557   0.9829   0.5583     N
C       0.1561   0.2677   0.6833     C
C       0.1561   0.7323   0.1833     C
C       0.1581   0.0142   0.6505     C
C       0.1581   0.9858   0.1505     C
C       0.1583   0.2515   0.5872     C
C       0.1583   0.7485   0.0872     C
C       0.1589   0.0515    0.969     C
C       0.1589   0.9485    0.469     C
C       0.1605    0.103   0.8842     C
C       0.1605    0.897   0.3842     C
H       0.1633    0.274   0.7629     H
H       0.1633    0.726   0.2629     H
H       0.1642   0.1286   0.3389     H
H       0.1642   0.8714   0.8389     H
C       0.1677   0.0454   0.7438     C
C       0.1677   0.9546   0.2438     C
H       0.1798   0.3262   0.2414     H
H       0.1798   0.6738   0.7414     H
C       0.1836   0.1759   0.4663     C
C       0.1836   0.8241   0.9663     C
C       0.1853    0.131    0.379     C
C       0.1853    0.869    0.879     C
N       0.1858   0.2129   0.5583     N
N       0.1858   0.7871   0.0583     N
C       0.1864   0.2567   0.7419     C
C       0.1864   0.7433   0.2419     C
H       0.1892   0.4341   0.5152     H
H       0.1892   0.5659   0.0152     H
C       0.1899    0.242   0.6515     C
C       0.1899    0.758   0.1515     C
Ag     0.20443  0.49687  0.63256    Ag
Ag     0.20443  0.50313  0.13256    Ag
H       0.2063   0.3535   0.0114     H
H       0.2063   0.6465   0.5114     H
C       0.2124    0.037   0.1773     C
C       0.2124    0.963   0.6773     C
N       0.2203   0.0014   0.2706     N
N       0.2203   0.9986   0.7706     N
N       0.2216   0.1345   0.9111     N
N       0.2216   0.8655   0.4111     N
C       0.2217   0.3018   0.2604     C
C       0.2217   0.6982   0.7604     C
C       0.2224   0.0851   0.9982     C
H       0.2224   0.4218    0.746     H
H       0.2224   0.5782    0.246     H
C       0.2224   0.9149   0.4982     C
H       0.2242   0.3105   0.3402     H
H       0.2242   0.6895   0.8402     H
Ag     0.22637  0.29121  0.13206    Ag
Ag     0.22637  0.70879  0.63206    Ag
H        0.229   0.0667   0.1555     H
H        0.229   0.9333   0.6555     H
C       0.2293   0.4065   0.5354     C
C       0.2293   0.5935   0.0354     C
H       0.2366   0.3669   0.4642     H
H       0.2366   0.6331   0.9642     H
C       0.2415   0.0433   0.2366     C
C       0.2415   0.9567   0.7366     C
C       0.2428   0.1339   0.4956     C
C       0.2428   0.8661   0.9956     C
N       0.2436   0.0914   0.4068     N
N       0.2436   0.9086   0.9068     N
H       0.2453   0.0804   0.0381     H
H       0.2453   0.9196   0.5381     H
N       0.2463   0.2232    0.771     N
N       0.2463   0.7768    0.271     N
C       0.2482   0.2929     0.32     C
C       0.2482   0.7071     0.82     C
C        0.249   0.3752   0.0319     C
C        0.249   0.6248   0.5319     C
C        0.251   0.1248   0.9681     C
C        0.251   0.8752   0.4681     C
C       0.2518   0.2071     0.68     C
C       0.2518   0.7929     0.18     C
N       0.2537   0.2768    0.229     N
N       0.2537   0.7232    0.729     N
H       0.2547   0.4196   0.9619     H
H       0.2547   0.5804   0.4619     H
N       0.2564   0.4086   0.5932     N
N       0.2564   0.5914   0.0932     N
C       0.2572   0.3661   0.5044     C
C       0.2572   0.6339   0.0044     C
C       0.2585   0.4567   0.7634     C
C       0.2585   0.5433   0.2634     C
H       0.2634   0.1331   0.5358     H
H       0.2634   0.8669   0.0358     H
C       0.2707   0.0935   0.4646     C
C       0.2707   0.9065   0.9646     C
H        0.271   0.4333   0.8445     H
H        0.271   0.5667   0.3445     H
Ag     0.27363  0.20879  0.86794    Ag
Ag     0.27363  0.79121  0.36794    Ag
H       0.2758   0.1895   0.6598     H
H       0.2758   0.8105   0.1598     H
H       0.2776   0.0782    0.254     H
C       0.2776   0.4149   0.0018     C
C       0.2776   0.5851   0.5018     C
H       0.2776   0.9218    0.754     H
C       0.2783   0.1982   0.7396     C
C       0.2783   0.8018   0.2396     C
N       0.2784   0.3655   0.0889     N
N       0.2784   0.6345   0.5889     N
N       0.2797   0.4986   0.7294     N
N       0.2797   0.5014   0.2294     N
C       0.2876    0.463   0.8227     C
C       0.2876    0.537   0.3227     C
H       0.2937   0.1465   0.9886     H
H       0.2937   0.8535   0.4886     H
Ag     0.29557  0.00313  0.36744    Ag
Ag     0.29557  0.99687  0.86744    Ag
C       0.3101    0.258   0.3485     C
C       0.3101    0.742   0.8485     C
H       0.3108   0.0659   0.4848     H
H       0.3108   0.9341   0.9848     H
C       0.3136   0.2433   0.2581     C
C       0.3136   0.7567   0.7581     C
N       0.3142   0.2871   0.4417     N
N       0.3142   0.7129   0.9417     N
C       0.3147    0.369    0.621     C
C       0.3147    0.631    0.121     C
C       0.3164   0.3241   0.5337     C
C       0.3164   0.6759   0.0337     C
H       0.3202   0.1738   0.7586     H
H       0.3202   0.8262   0.2586     H
C       0.3323   0.4546   0.2562     C
C       0.3323   0.5454   0.7562     C
H       0.3358   0.3714   0.6611     H
H       0.3358   0.6286   0.1611     H
H       0.3367    0.226   0.2371     H
H       0.3367    0.774   0.7371     H
C       0.3395    0.397   0.1158     C
C       0.3395    0.603   0.6158     C
C       0.3411   0.4485    0.031     C
C       0.3411   0.5515    0.531     C
C       0.3417   0.2485   0.4128     C
C       0.3417   0.7515   0.9128     C
C       0.3419   0.4858   0.3495     C
C       0.3419   0.5142   0.8495     C
C       0.3439   0.2323   0.3167     C
C       0.3439   0.7677   0.8167     C
N       0.3443   0.4829   0.9417     N
N       0.3443   0.5171   0.4417     N
C        0.345   0.3249    0.593     C
C        0.345   0.6751    0.093     C
C       0.3469   0.2802   0.4997     C
C       0.3469   0.7198   0.9997     C
H       0.3474   0.4248   0.2333     H
H       0.3474   0.5752   0.7333     H
H       0.3618   0.3902   0.1556     H
H       0.3618   0.6098   0.6556     H
C        0.367    0.446   0.3156     C
C        0.367    0.554   0.8156     C
N       0.3715   0.2809   0.9175     N
N       0.3715   0.7191   0.4175     N
C       0.3724   0.4389   0.0894     C
C       0.3724   0.5611   0.5894     C
C       0.3725   0.4933   0.9983     C
C       0.3725   0.5067   0.4983     C
C       0.3731   0.4753   0.4128     C
C       0.3731   0.5247   0.9128     C
H       0.3777   0.2671   0.9949     H
H       0.3777   0.7329   0.4949     H
H       0.3842   0.2961   0.6141     H
H       0.3842   0.7039   0.1141     H
H       0.3847   0.3095   0.8489     H
H       0.3847   0.6905   0.3489     H
H        0.386   0.2082   0.3346     H
H        0.386   0.7918   0.8346     H
N       0.3922   0.0642    0.922     N
N       0.3922   0.9358    0.422     N
N       0.3965   0.2012   0.4361     N
N       0.3965   0.7988   0.9361     N
C        0.399   0.2909   0.9743     C
C        0.399   0.7091   0.4743     C
H       0.4014   0.0975   0.8518     H
H       0.4014   0.9025   0.3518     H
H       0.4019   0.0464   0.0002     H
H       0.4019   0.9536   0.5002     H
N       0.4027   0.2389   0.5271     N
N       0.4027   0.7611   0.0271     N
C       0.4029   0.3159   0.8888     C
C       0.4029   0.6841   0.3888     C
H       0.4056   0.4147   0.3319     H
H       0.4056   0.5853   0.8319     H
H       0.4151   0.4603   0.1108     H
H       0.4151   0.5397   0.6108     H
C       0.4221   0.0709    0.979     C
C       0.4221   0.9291    0.479     C
C       0.4222   0.1005   0.8919     C
C       0.4222   0.8995   0.3919     C
N       0.4251   0.4272   0.4374     N
N       0.4251   0.5728   0.9374     N
C       0.4254   0.1984    0.494     C
C       0.4254   0.8016    0.994     C
N       0.4261    0.461   0.5279     N
N       0.4261    0.539   0.0279     N
C       0.4504   0.4225   0.4954     C
C       0.4504   0.5775   0.9954     C
C       0.4572   0.3341   0.0053     C
C       0.4572   0.6659   0.5053     C
C       0.4607   0.3609   0.9149     C
C       0.4607   0.6391   0.4149     C
H       0.4751   0.3376   0.0454     H
H       0.4751   0.6624   0.5454     H
H       0.4809   0.3833    0.893     H
H       0.4809   0.6167    0.393     H
C       0.4819   0.1127   0.0087     C
C       0.4819   0.1416    0.918     C
C       0.4819   0.8584    0.418     C
C       0.4819   0.8873   0.5087     C
C       0.4876     0.15   0.5231     C
C       0.4876     0.85   0.0231     C
C       0.4885   0.3725   0.9745     C
C       0.4885   0.6275   0.4745     C
H       0.4984   0.1638   0.6043     H
H       0.4984   0.8362   0.1043     H
H       0.4987   0.1158   0.4512     H
H       0.4987   0.8842   0.9512     H
H       0.5013   0.1158   0.0488     H
H       0.5013   0.8842   0.5488     H
H       0.5016   0.1638   0.8957     H
H       0.5016   0.8362   0.3957     H
C       0.5115   0.3725   0.5255     C
C       0.5115   0.6275   0.0255     C
C       0.5124     0.15   0.9769     C
C       0.5124     0.85   0.4769     C
C       0.5181   0.1127   0.4913     C
C       0.5181   0.1416    0.582     C
C       0.5181   0.8584    0.082     C
C       0.5181   0.8873   0.9913     C
H       0.5191   0.3833    0.607     H
H       0.5191   0.6167    0.107     H
H       0.5249   0.3376   0.4546     H
H       0.5249   0.6624   0.9546     H
C       0.5393   0.3609   0.5851     C
C       0.5393   0.6391   0.0851     C
C       0.5428   0.3341   0.4947     C
C       0.5428   0.6659   0.9947     C
C       0.5496   0.4225   0.0046     C
C       0.5496   0.5775   0.5046     C
N       0.5739    0.461   0.9721     N
N       0.5739    0.539   0.4721     N
C       0.5746   0.1984    0.006     C
C       0.5746   0.8016    0.506     C
N       0.5749   0.4272   0.0626     N
N       0.5749   0.5728   0.5626     N
C       0.5778   0.1005   0.6081     C
C       0.5778   0.8995   0.1081     C
C       0.5779   0.0709    0.521     C
C       0.5779   0.9291    0.021     C
H       0.5849   0.4603   0.3892     H
H       0.5849   0.5397   0.8892     H
H       0.5944   0.4147   0.1681     H
H       0.5944   0.5853   0.6681     H
C       0.5971   0.3159   0.6112     C
C       0.5971   0.6841   0.1112     C
N       0.5973   0.2389   0.9729     N
N       0.5973   0.7611   0.4729     N
H       0.5981   0.0464   0.4998     H
H       0.5981   0.9536   0.9998     H
H       0.5986   0.0975   0.6482     H
H       0.5986   0.9025   0.1482     H
C        0.601   0.2909   0.5257     C
C        0.601   0.7091   0.0257     C
N       0.6035   0.2012   0.0639     N
N       0.6035   0.7988   0.5639     N
N       0.6078   0.0642    0.578     N
N       0.6078   0.9358    0.078     N
H        0.614   0.2082   0.1654     H
H        0.614   0.7918   0.6654     H
H       0.6153   0.3095   0.6511     H
H       0.6153   0.6905   0.1511     H
H       0.6158   0.2961   0.8859     H
H       0.6158   0.7039   0.3859     H
H       0.6223   0.2671   0.5051     H
H       0.6223   0.7329   0.0051     H
C       0.6269   0.4753   0.0872     C
C       0.6269   0.5247   0.5872     C
C       0.6275   0.4933   0.5017     C
C       0.6275   0.5067   0.0017     C
C       0.6276   0.4389   0.4106     C
C       0.6276   0.5611   0.9106     C
N       0.6285   0.2809   0.5825     N
N       0.6285   0.7191   0.0825     N
C        0.633    0.446   0.1844     C
C        0.633    0.554   0.6844     C
H       0.6382   0.3902   0.3444     H
H       0.6382   0.6098   0.8444     H
H       0.6526   0.4248   0.2667     H
H       0.6526   0.5752   0.7667     H
C       0.6531   0.2802   0.0003     C
C       0.6531   0.7198   0.5003     C
C        0.655   0.3249    0.907     C
C        0.655   0.6751    0.407     C
N       0.6557   0.4829   0.5583     N
N       0.6557   0.5171   0.0583     N
C       0.6561   0.2323   0.1833     C
C       0.6561   0.7677   0.6833     C
C       0.6581   0.4858   0.1505     C
C       0.6581   0.5142   0.6505     C
C       0.6583   0.2485   0.0872     C
C       0.6583   0.7515   0.5872     C
C       0.6589   0.4485    0.469     C
C       0.6589   0.5515    0.969     C
C       0.6605    0.397   0.3842     C
C       0.6605    0.603   0.8842     C
H       0.6633    0.226   0.2629     H
H       0.6633    0.774   0.7629     H
H       0.6642   0.3714   0.8389     H
H       0.6642   0.6286   0.3389     H
C       0.6677   0.4546   0.2438     C
C       0.6677   0.5454   0.7438     C
H       0.6798   0.1738   0.7414     H
H       0.6798   0.8262   0.2414     H
C       0.6836   0.3241   0.9663     C
C       0.6836   0.6759   0.4663     C
C       0.6853    0.369    0.879     C
C       0.6853    0.631    0.379     C
N       0.6858   0.2871   0.0583     N
N       0.6858   0.7129   0.5583     N
C       0.6864   0.2433   0.2419     C
C       0.6864   0.7567   0.7419     C
H       0.6892   0.0659   0.0152     H
H       0.6892   0.9341   0.5152     H
C       0.6899    0.258   0.1515     C
C       0.6899    0.742   0.6515     C
Ag     0.70443  0.00313  0.13256    Ag
Ag     0.70443  0.99687  0.63256    Ag
H       0.7063   0.1465   0.5114     H
H       0.7063   0.8535   0.0114     H
C       0.7124    0.463   0.6773     C
C       0.7124    0.537   0.1773     C
N       0.7203   0.4986   0.7706     N
N       0.7203   0.5014   0.2706     N
N       0.7216   0.3655   0.4111     N
N       0.7216   0.6345   0.9111     N
C       0.7217   0.1982   0.7604     C
C       0.7217   0.8018   0.2604     C
H       0.7224   0.0782    0.246     H
C       0.7224   0.4149   0.4982     C
C       0.7224   0.5851   0.9982     C
H       0.7224   0.9218    0.746     H
H       0.7242   0.1895   0.8402     H
H       0.7242   0.8105   0.3402     H
Ag     0.72637  0.20879  0.63206    Ag
Ag     0.72637  0.79121  0.13206    Ag
H        0.729   0.4333   0.6555     H
H        0.729   0.5667   0.1555     H
C       0.7293   0.0935   0.0354     C
C       0.7293   0.9065   0.5354     C
H       0.7366   0.1331   0.9642     H
H       0.7366   0.8669   0.4642     H
C       0.7415   0.4567   0.7366     C
C       0.7415   0.5433   0.2366     C
C       0.7428   0.3661   0.9956     C
C       0.7428   0.6339   0.4956     C
N       0.7436   0.4086   0.9068     N
N       0.7436   0.5914   0.4068     N
H       0.7453   0.4196   0.5381     H
H       0.7453   0.5804   0.0381     H
N       0.7463   0.2768    0.271     N
N       0.7463   0.7232    0.771     N
C       0.7482   0.2071     0.82     C
C       0.7482   0.7929     0.32     C
C        0.749   0.1248   0.5319     C
C        0.749   0.8752   0.0319     C
C        0.751   0.3752   0.4681     C
C        0.751   0.6248   0.9681     C
C       0.7518   0.2929     0.18     C
C       0.7518   0.7071     0.68     C
N       0.7537   0.2232    0.729     N
N       0.7537   0.7768    0.229     N
H       0.7547   0.0804   0.4619     H
H       0.7547   0.9196   0.9619     H
N       0.7564   0.0914   0.0932     N
N       0.7564   0.9086   0.5932     N
C       0.7572   0.1339   0.0044     C
C       0.7572   0.8661   0.5044     C
C       0.7585   0.0433   0.2634     C
C       0.7585   0.9567   0.7634     C
H       0.7634   0.3669   0.0358     H
H       0.7634   0.6331   0.5358     H
C       0.7707   0.4065   0.9646     C
C       0.7707   0.5935   0.4646     C
H        0.771   0.0667   0.3445     H
H        0.771   0.9333   0.8445     H
Ag     0.77363  0.29121  0.36794    Ag
Ag     0.77363  0.70879  0.86794    Ag
H       0.7758   0.3105   0.1598     H
H       0.7758   0.6895   0.6598     H
C       0.7776   0.0851   0.5018     C
H       0.7776   0.4218    0.754     H
H       0.7776   0.5782    0.254     H
C       0.7776   0.9149   0.0018     C
C       0.7783   0.3018   0.2396     C
C       0.7783   0.6982   0.7396     C
N       0.7784   0.1345   0.5889     N
N       0.7784   0.8655   0.0889     N
N       0.7797   0.0014   0.2294     N
N       0.7797   0.9986   0.7294     N
C       0.7876    0.037   0.3227     C
C       0.7876    0.963   0.8227     C
H       0.7937   0.3535   0.4886     H
H       0.7937   0.6465   0.9886     H
Ag     0.79557  0.49687  0.86744    Ag
Ag     0.79557  0.50313  0.36744    Ag
C       0.8101    0.242   0.8485     C
C       0.8101    0.758   0.3485     C
H       0.8108   0.4341   0.9848     H
H       0.8108   0.5659   0.4848     H
C       0.8136   0.2567   0.7581     C
C       0.8136   0.7433   0.2581     C
N       0.8142   0.2129   0.9417     N
N       0.8142   0.7871   0.4417     N
C       0.8147    0.131    0.121     C
C       0.8147    0.869    0.621     C
C       0.8164   0.1759   0.0337     C
C       0.8164   0.8241   0.5337     C
H       0.8202   0.3262   0.2586     H
H       0.8202   0.6738   0.7586     H
C       0.8323   0.0454   0.7562     C
C       0.8323   0.9546   0.2562     C
H       0.8358   0.1286   0.1611     H
H       0.8358   0.8714   0.6611     H
H       0.8367    0.274   0.7371     H
H       0.8367    0.726   0.2371     H
C       0.8395    0.103   0.6158     C
C       0.8395    0.897   0.1158     C
C       0.8411   0.0515    0.531     C
C       0.8411   0.9485    0.031     C
C       0.8417   0.2515   0.9128     C
C       0.8417   0.7485   0.4128     C
C       0.8419   0.0142   0.8495     C
C       0.8419   0.9858   0.3495     C
C       0.8439   0.2677   0.8167     C
C       0.8439   0.7323   0.3167     C
N       0.8443   0.0171   0.4417     N
N       0.8443   0.9829   0.9417     N
C        0.845   0.1751    0.093     C
C        0.845   0.8249    0.593     C
C       0.8469   0.2198   0.9997     C
C       0.8469   0.7802   0.4997     C
H       0.8474   0.0752   0.7333     H
H       0.8474   0.9248   0.2333     H
H       0.8618   0.1098   0.6556     H
H       0.8618   0.8902   0.1556     H
C        0.867    0.054   0.8156     C
C        0.867    0.946   0.3156     C
N       0.8715   0.2191   0.4175     N
N       0.8715   0.7809   0.9175     N
C       0.8724   0.0611   0.5894     C
C       0.8724   0.9389   0.0894     C
C       0.8725   0.0067   0.4983     C
C       0.8725   0.9933   0.9983     C
C       0.8731   0.0247   0.9128     C
C       0.8731   0.9753   0.4128     C
H       0.8777   0.2329   0.4949     H
H       0.8777   0.7671   0.9949     H
H       0.8842   0.2039   0.1141     H
H       0.8842   0.7961   0.6141     H
H       0.8847   0.1905   0.3489     H
H       0.8847   0.8095   0.8489     H
H        0.886   0.2918   0.8346     H
H        0.886   0.7082   0.3346     H
N       0.8922   0.4358    0.422     N
N       0.8922   0.5642    0.922     N
N       0.8965   0.2988   0.9361     N
N       0.8965   0.7012   0.4361     N
C        0.899   0.2091   0.4743     C
C        0.899   0.7909   0.9743     C
H       0.9014   0.4025   0.3518     H
H       0.9014   0.5975   0.8518     H
H       0.9019   0.4536   0.5002     H
H       0.9019   0.5464   0.0002     H
N       0.9027   0.2611   0.0271     N
N       0.9027   0.7389   0.5271     N
C       0.9029   0.1841   0.3888     C
C       0.9029   0.8159   0.8888     C
H       0.9056   0.0853   0.8319     H
H       0.9056   0.9147   0.3319     H
H       0.9151   0.0397   0.6108     H
H       0.9151   0.9603   0.1108     H
C       0.9221   0.4291    0.479     C
C       0.9221   0.5709    0.979     C
C       0.9222   0.3995   0.3919     C
C       0.9222   0.6005   0.8919     C
N       0.9251   0.0728   0.9374     N
N       0.9251   0.9272   0.4374     N
C       0.9254   0.3016    0.994     C
C       0.9254   0.6984    0.494     C
N       0.9261    0.039   0.0279     N
N       0.9261    0.961   0.5279     N
C       0.9504   0.0775   0.9954     C
C       0.9504   0.9225   0.4954     C
C       0.9572   0.1659   0.5053     C
C       0.9572   0.8341   0.0053     C
C       0.9607   0.1391   0.4149     C
C       0.9607   0.8609   0.9149     C
H       0.9751   0.1624   0.5454     H
H       0.9751   0.8376   0.0454     H
H       0.9809   0.1167    0.393     H
H       0.9809   0.8833    0.893     H
C       0.9819   0.3584    0.418     C
C       0.9819   0.3873   0.5087     C
C       0.9819   0.6127   0.0087     C
C       0.9819   0.6416    0.918     C
C       0.9876     0.35   0.0231     C
C       0.9876     0.65   0.5231     C
C       0.9885   0.1275   0.4745     C
C       0.9885   0.8725   0.9745     C
H       0.9984   0.3362   0.1043     H
H       0.9984   0.6638   0.6043     H
H       0.9987   0.3842   0.9512     H
H       0.9987   0.6158   0.4512     H
