data_I
_chemical_name_common  '/home/zhangsd/repos/MofS-CGCNN/ML/data/TSD/clean_cifs/QOFBIY_clean'
_cell_length_a 22.07650
_cell_length_b 16.31580
_cell_length_c 25.68000
_cell_angle_alpha 90.00000
_cell_angle_beta  115.41600
_cell_angle_gamma 90.00000
_space_group_name_H-M_alt      'P 1'


loop_
_space_group_symop_operation_xyz
  'x, y, z' 

loop_
_atom_site_label
_atom_site_fract_x
_atom_site_fract_y
_atom_site_fract_z
_atom_site_type_symbol
C      0.00162   0.4245  0.90749     C
C      0.00162   0.5755  0.40749     C
C      0.00206   0.3827  0.99671     C
C      0.00206   0.6173  0.49671     C
H       0.0202   0.4532   0.8866     H
H       0.0202   0.5468   0.3866     H
H       0.0215   0.3818   0.0368     H
H       0.0215   0.6182   0.5368     H
C      0.02603   0.1638  0.00012     C
C      0.02603   0.8362  0.50012     C
C      0.02652   0.1455  0.61558     C
C      0.02652   0.8545  0.11558     C
C      0.03248   0.4247   0.9674     C
C      0.03248   0.5753   0.4674     C
C       0.0329    0.188  0.91119     C
C       0.0329    0.812  0.41119     C
C      0.03372   0.1239  0.53052     C
C      0.03372   0.8761  0.03052     C
H       0.0436   0.1375   0.6552     H
H       0.0436    0.168     0.04     H
H       0.0436    0.832     0.54     H
H       0.0436   0.8625   0.1552     H
H       0.0544   0.2095     0.89     H
H       0.0544   0.7905     0.39     H
H       0.0563   0.1021   0.5104     H
H       0.0563   0.8979   0.0104     H
C      0.05727    0.381  0.62033     C
C      0.05727    0.619  0.12033     C
C      0.05734   0.3424  0.53449     C
C      0.05734   0.6576  0.03449     C
C      0.05978   0.1979  0.97046     C
C      0.05978   0.8021  0.47046     C
N      0.06114   0.1149  0.58816     N
N      0.06114   0.8851  0.08816     N
H        0.077   0.3798   0.6604     H
H        0.077   0.6202   0.1604     H
H       0.0777   0.3152   0.5144     H
H       0.0777   0.6848   0.0144     H
N      0.08766   0.3401  0.59254     N
N      0.08766   0.6599  0.09254     N
C      0.09703   0.4686   0.0015     C
C      0.09703   0.5314   0.5015     C
N      0.12131    0.462  0.05897     N
N      0.12131    0.538  0.55897     N
C       0.1239   0.2425  0.00268     C
C       0.1239   0.7575  0.50268     C
N      0.12583   0.4906  0.47338     N
N      0.12583   0.5094  0.97338     N
H       0.1322   0.0164   0.0052     H
H       0.1322   0.9836   0.5052     H
H       0.1334   0.4386   0.1618     H
H       0.1334   0.5614   0.6618     H
H       0.1347   0.1734   0.7328     H
H       0.1347   0.8266   0.2328     H
H        0.144   0.4149   0.3964     H
H        0.144   0.5851   0.8964     H
N      0.14806   0.2895  0.97292     N
N      0.14806   0.7105  0.47292     N
H       0.1502   0.0243   0.2362     H
H       0.1502   0.9757   0.7362     H
H        0.151   0.2034   0.4994     H
H        0.151   0.7966   0.9994     H
N      0.15314   0.2317  0.05984     N
N      0.15314   0.7683  0.55984     N
Ag     0.15652  0.04275  0.63233    Ag
Ag     0.15652  0.95725  0.13233    Ag
H       0.1629   0.3649   0.8938     H
H       0.1629   0.6351   0.3938     H
C       0.1734   0.2025  0.75531     C
C       0.1734   0.7975  0.25531     C
C      0.17389   0.0406  0.02563     C
C      0.17389   0.9594  0.52563     C
Ag      0.1772  0.24959  0.63259    Ag
Ag      0.1772  0.75041  0.13259    Ag
H       0.1773   0.1621   0.8311     H
H       0.1773   0.1812   0.1567     H
H       0.1773   0.8188   0.6567     H
H       0.1773   0.8379   0.3311     H
C       0.1774   0.4567  0.18173     C
C       0.1774   0.5433  0.68173     C
C      0.17909   0.4979  0.58844     C
C      0.17909   0.5021  0.08844     C
H       0.1791   0.0886    0.955     H
H       0.1791   0.9114    0.455     H
C      0.18198   0.4496  0.50718     C
C      0.18198   0.5504  0.00718     C
C      0.18585    0.392  0.41853     C
C      0.18585    0.608  0.91853     C
H       0.1873   0.4245     0.26     H
H       0.1873   0.5755     0.76     H
C       0.1924   0.1787  0.52037     C
C       0.1924   0.8213  0.02037     C
C       0.1942   0.0069  0.25711     C
C       0.1942   0.9931  0.75711     C
C       0.1988   0.1945  0.81436     C
C       0.1988   0.8055  0.31436     C
H        0.199   0.0412   0.3345     H
H        0.199   0.9588   0.8345     H
H       0.1993   0.3447   0.3525     H
H       0.1993   0.6553   0.8525     H
N      0.20096   0.2494  0.72829     N
N      0.20096   0.7506  0.22829     N
C      0.20152   0.0844  0.99488     C
C      0.20152   0.9156  0.49488     C
H       0.2017   0.1338   0.4504     H
H       0.2017   0.8662   0.9504     H
N      0.20368   0.0311  0.08309     N
N      0.20368   0.9689  0.58309     N
C      0.20471   0.3883  0.91534     C
C      0.20471   0.6117  0.41534     C
C        0.206   0.3273  0.00572     C
C        0.206   0.6727  0.50572     C
C      0.20969   0.2737  0.08792     C
C      0.20969   0.7263  0.58792     C
C       0.2102   0.4482  0.24074     C
C       0.2102   0.5518  0.74074     C
N      0.21046   0.4512  0.56488     N
N      0.21046   0.5488  0.06488     N
C      0.21073   0.4928  0.15211     C
C      0.21073   0.5072  0.65211     C
H        0.214   0.4396   0.8488     H
H        0.214   0.5604   0.3488     H
C       0.2151   0.2122  0.17851     C
C       0.2151   0.7878  0.67851     C
C      0.21522   0.4002  0.47813     C
C      0.21522   0.5998  0.97813     C
C       0.2195   0.3495  0.39247     C
C       0.2195   0.6505  0.89247     C
N      0.22037  0.18523   0.5784     N
N      0.22037  0.81477   0.0784     N
C       0.2225   0.1369  0.49045     C
C       0.2225   0.8631  0.99045     C
C       0.2232   0.0177  0.31626     C
C       0.2232   0.9823  0.81626     C
H       0.2255    0.172   0.2553     H
H       0.2255    0.828   0.7553     H
N       0.2259   0.0274   0.7282     N
N       0.2259   0.9726   0.2282     N
C      0.23588   0.4333  0.88856     C
C      0.23588   0.5667  0.38856     C
C      0.23636    0.378  0.97502     C
C      0.23636    0.622  0.47502     C
N      0.23848   0.3227  0.06333     N
N      0.23848   0.6773  0.56333     N
C      0.24281   0.2639  0.15192     C
C      0.24281   0.7361  0.65192     C
C       0.2444   0.2071  0.23784     C
C       0.2444   0.7929  0.73784     C
C       0.2556   0.2929  0.76216     C
C       0.2556   0.7071  0.26216     C
C      0.25719   0.2361  0.84808     C
C      0.25719   0.7639  0.34808     C
N      0.26152   0.1773  0.93667     N
N      0.26152   0.8227  0.43667     N
C      0.26364    0.122  0.02498     C
C      0.26364    0.878  0.52498     C
C      0.26412   0.0667  0.11144     C
C      0.26412   0.9333  0.61144     C
N       0.2741   0.4726   0.2718     N
N       0.2741   0.5274   0.7718     N
H       0.2745    0.328   0.7447     H
H       0.2745    0.672   0.2447     H
C       0.2768   0.4823  0.68374     C
C       0.2768   0.5177  0.18374     C
C       0.2775   0.3631  0.50955     C
C       0.2775   0.6369  0.00955     C
N      0.27963  0.31477   0.4216     N
N      0.27963  0.68523   0.9216     N
C       0.2805   0.1505  0.60753     C
C       0.2805   0.8495  0.10753     C
C      0.28478   0.0998  0.52187     C
C      0.28478   0.9002  0.02187     C
C       0.2849   0.2878  0.82149     C
C       0.2849   0.7122  0.32149     C
H        0.286   0.0604   0.1512     H
H        0.286   0.9396   0.6512     H
C      0.28927   0.0072  0.84789     C
C      0.28927   0.9928  0.34789     C
N      0.28954   0.0488  0.43512     N
N      0.28954   0.9512  0.93512     N
C       0.2898   0.0518  0.75926     C
C       0.2898   0.9482  0.25926     C
C      0.29031   0.2263  0.91208     C
C      0.29031   0.7737  0.41208     C
C        0.294   0.1727  0.99428     C
C        0.294   0.8273  0.49428     C
C      0.29529   0.1117  0.08466     C
C      0.29529   0.8883  0.58466     C
N      0.29632   0.4689  0.91691     N
N      0.29632   0.5311  0.41691     N
H       0.2983   0.3662   0.5496     H
H       0.2983   0.6338   0.0496     H
C      0.29848   0.4156  0.00512     C
C      0.29848   0.5844  0.50512     C
N      0.29904   0.2506  0.27171     N
N      0.29904   0.7494  0.77171     N
H       0.3007   0.1553   0.6475     H
H       0.3007   0.8447   0.1475     H
H        0.301   0.4588   0.6655     H
H        0.301   0.5412   0.1655     H
C       0.3012   0.3055  0.18564     C
C       0.3012   0.6945  0.68564     C
C       0.3058   0.4931  0.74289     C
C       0.3058   0.5069  0.24289     C
C       0.3076   0.3213  0.47963     C
C       0.3076   0.6787  0.97963     C
H       0.3127   0.0755     0.74     H
H       0.3127   0.9245     0.24     H
C      0.31415    0.108  0.58147     C
C      0.31415    0.892  0.08147     C
C      0.31802   0.0504  0.49282     C
C      0.31802   0.9496  0.99282     C
H       0.3209   0.4114    0.045     H
H       0.3209   0.5886    0.545     H
C      0.32091   0.0021  0.41156     C
C      0.32091   0.9979  0.91156     C
C       0.3226   0.0433  0.81827     C
C       0.3226   0.9567  0.31827     C
H       0.3227   0.3188   0.8433     H
H       0.3227   0.3379   0.1689     H
H       0.3227   0.6621   0.6689     H
H       0.3227   0.6812   0.3433     H
Ag      0.3228  0.25041  0.36741    Ag
Ag      0.3228  0.74959  0.86741    Ag
C      0.32611   0.4594  0.97437     C
C      0.32611   0.5406  0.47437     C
C       0.3266   0.2975  0.24469     C
C       0.3266   0.7025  0.74469     C
H       0.3371   0.1351   0.1062     H
H       0.3371   0.8649   0.6062     H
Ag     0.34348  0.45725  0.36767    Ag
Ag     0.34348  0.54275  0.86767    Ag
N      0.34686   0.2683  0.94016     N
N      0.34686   0.7317  0.44016     N
H        0.349   0.2966   0.5006     H
H        0.349   0.7034   0.0006     H
H       0.3498   0.4757   0.7638     H
H       0.3498   0.5243   0.2638     H
N      0.35194   0.2105  0.02708     N
N      0.35194   0.7895  0.52708     N
H        0.356   0.0851   0.6036     H
H        0.356   0.9149   0.1036     H
H       0.3653   0.3266   0.2672     H
H       0.3653   0.6734   0.7672     H
H       0.3666   0.0614   0.8382     H
H       0.3666   0.9386   0.3382     H
H       0.3678   0.4836   0.9948     H
H       0.3678   0.5164   0.4948     H
N      0.37417   0.0094  0.52662     N
N      0.37417   0.9906  0.02662     N
C       0.3761   0.2575  0.99732     C
C       0.3761   0.7425  0.49732     C
N      0.37869    0.038  0.94103     N
N      0.37869    0.962  0.44103     N
C      0.40297   0.0314   0.9985     C
C      0.40297   0.9686   0.4985     C
N      0.41234   0.1599  0.40746     N
N      0.41234   0.8401  0.90746     N
H       0.4223   0.1848   0.4856     H
H       0.4223   0.8152   0.9856     H
H        0.423   0.1202   0.3396     H
H        0.423   0.8798   0.8396     H
N      0.43886   0.3851  0.41184     N
N      0.43886   0.6149  0.91184     N
C      0.44022   0.3021  0.02954     C
C      0.44022   0.6979  0.52954     C
C      0.44266   0.1576  0.46551     C
C      0.44266   0.8424  0.96551     C
C      0.44273    0.119  0.37967     C
C      0.44273    0.881  0.87967     C
H       0.4437   0.3979   0.4896     H
H       0.4437   0.6021   0.9896     H
H       0.4456   0.2905     0.11     H
H       0.4456   0.7095     0.61     H
H       0.4564    0.332     0.96     H
H       0.4564   0.3625   0.3448     H
H       0.4564   0.6375   0.8448     H
H       0.4564    0.668     0.46     H
C      0.46628   0.3761  0.46948     C
C      0.46628   0.6239  0.96948     C
C       0.4671    0.312  0.08881     C
C       0.4671    0.688  0.58881     C
C      0.46752   0.0753   0.0326     C
C      0.46752   0.9247   0.5326     C
C      0.47348   0.3545  0.38442     C
C      0.47348   0.6455  0.88442     C
C      0.47397   0.3362  0.99988     C
C      0.47397   0.6638  0.49988     C
H       0.4785   0.1182   0.9632     H
H       0.4785   0.8818   0.4632     H
H       0.4798   0.0468   0.1134     H
H       0.4798   0.9532   0.6134     H
C      0.49794   0.1173  0.00329     C
C      0.49794   0.8827  0.50329     C
C      0.49838   0.0755  0.09251     C
C      0.49838   0.9245  0.59251     C
C      0.50162   0.0755  0.40749     C
C      0.50162   0.9245  0.90749     C
C      0.50206   0.1173  0.49671     C
C      0.50206   0.8827  0.99671     C
H       0.5202   0.0468   0.3866     H
H       0.5202   0.9532   0.8866     H
H       0.5215   0.1182   0.5368     H
H       0.5215   0.8818   0.0368     H
C      0.52603   0.3362  0.50012     C
C      0.52603   0.6638  0.00012     C
C      0.52652   0.3545  0.11558     C
C      0.52652   0.6455  0.61558     C
C      0.53248   0.0753   0.4674     C
C      0.53248   0.9247   0.9674     C
C       0.5329    0.312  0.41119     C
C       0.5329    0.688  0.91119     C
C      0.53372   0.3761  0.03052     C
C      0.53372   0.6239  0.53052     C
H       0.5436    0.332     0.54     H
H       0.5436   0.3625   0.1552     H
H       0.5436   0.6375   0.6552     H
H       0.5436    0.668     0.04     H
H       0.5544   0.2905     0.39     H
H       0.5544   0.7095     0.89     H
H       0.5563   0.3979   0.0104     H
H       0.5563   0.6021   0.5104     H
C      0.55727    0.119  0.12033     C
C      0.55727    0.881  0.62033     C
C      0.55734   0.1576  0.03449     C
C      0.55734   0.8424  0.53449     C
C      0.55978   0.3021  0.47046     C
C      0.55978   0.6979  0.97046     C
N      0.56114   0.3851  0.08816     N
N      0.56114   0.6149  0.58816     N
H        0.577   0.1202   0.1604     H
H        0.577   0.8798   0.6604     H
H       0.5777   0.1848   0.0144     H
H       0.5777   0.8152   0.5144     H
N      0.58766   0.1599  0.09254     N
N      0.58766   0.8401  0.59254     N
C      0.59703   0.0314   0.5015     C
C      0.59703   0.9686   0.0015     C
N      0.62131    0.038  0.55897     N
N      0.62131    0.962  0.05897     N
C       0.6239   0.2575  0.50268     C
C       0.6239   0.7425  0.00268     C
N      0.62583   0.0094  0.97338     N
N      0.62583   0.9906  0.47338     N
H       0.6322   0.4836   0.5052     H
H       0.6322   0.5164   0.0052     H
H       0.6334   0.0614   0.6618     H
H       0.6334   0.9386   0.1618     H
H       0.6347   0.3266   0.2328     H
H       0.6347   0.6734   0.7328     H
H        0.644   0.0851   0.8964     H
H        0.644   0.9149   0.3964     H
N      0.64806   0.2105  0.47292     N
N      0.64806   0.7895  0.97292     N
H       0.6502   0.4757   0.7362     H
H       0.6502   0.5243   0.2362     H
H        0.651   0.2966   0.9994     H
H        0.651   0.7034   0.4994     H
N      0.65314   0.2683  0.55984     N
N      0.65314   0.7317  0.05984     N
Ag     0.65652  0.45725  0.13233    Ag
Ag     0.65652  0.54275  0.63233    Ag
H       0.6629   0.1351   0.3938     H
H       0.6629   0.8649   0.8938     H
C       0.6734   0.2975  0.25531     C
C       0.6734   0.7025  0.75531     C
C      0.67389   0.4594  0.52563     C
C      0.67389   0.5406  0.02563     C
Ag      0.6772  0.25041  0.13259    Ag
Ag      0.6772  0.74959  0.63259    Ag
H       0.6773   0.3188   0.6567     H
H       0.6773   0.3379   0.3311     H
H       0.6773   0.6621   0.8311     H
H       0.6773   0.6812   0.1567     H
C       0.6774   0.0433  0.68173     C
C       0.6774   0.9567  0.18173     C
C      0.67909   0.0021  0.08844     C
C      0.67909   0.9979  0.58844     C
H       0.6791   0.4114    0.455     H
H       0.6791   0.5886    0.955     H
C      0.68198   0.0504  0.00718     C
C      0.68198   0.9496  0.50718     C
C      0.68585    0.108  0.91853     C
C      0.68585    0.892  0.41853     C
H       0.6873   0.0755     0.76     H
H       0.6873   0.9245     0.26     H
C       0.6924   0.3213  0.02037     C
C       0.6924   0.6787  0.52037     C
C       0.6942   0.4931  0.75711     C
C       0.6942   0.5069  0.25711     C
C       0.6988   0.3055  0.31436     C
C       0.6988   0.6945  0.81436     C
H        0.699   0.4588   0.8345     H
H        0.699   0.5412   0.3345     H
H       0.6993   0.1553   0.8525     H
H       0.6993   0.8447   0.3525     H
N      0.70096   0.2506  0.22829     N
N      0.70096   0.7494  0.72829     N
C      0.70152   0.4156  0.49488     C
C      0.70152   0.5844  0.99488     C
H       0.7017   0.3662   0.9504     H
H       0.7017   0.6338   0.4504     H
N      0.70368   0.4689  0.58309     N
N      0.70368   0.5311  0.08309     N
C      0.70471   0.1117  0.41534     C
C      0.70471   0.8883  0.91534     C
C        0.706   0.1727  0.50572     C
C        0.706   0.8273  0.00572     C
C      0.70969   0.2263  0.58792     C
C      0.70969   0.7737  0.08792     C
C       0.7102   0.0518  0.74074     C
C       0.7102   0.9482  0.24074     C
N      0.71046   0.0488  0.06488     N
N      0.71046   0.9512  0.56488     N
C      0.71073   0.0072  0.65211     C
C      0.71073   0.9928  0.15211     C
H        0.714   0.0604   0.3488     H
H        0.714   0.9396   0.8488     H
C       0.7151   0.2878  0.67851     C
C       0.7151   0.7122  0.17851     C
C      0.71522   0.0998  0.97813     C
C      0.71522   0.9002  0.47813     C
C       0.7195   0.1505  0.89247     C
C       0.7195   0.8495  0.39247     C
N      0.72037  0.31477   0.0784     N
N      0.72037  0.68523   0.5784     N
C       0.7225   0.3631  0.99045     C
C       0.7225   0.6369  0.49045     C
C       0.7232   0.4823  0.81626     C
C       0.7232   0.5177  0.31626     C
H       0.7255    0.328   0.7553     H
H       0.7255    0.672   0.2553     H
N       0.7259   0.4726   0.2282     N
N       0.7259   0.5274   0.7282     N
C      0.73588   0.0667  0.38856     C
C      0.73588   0.9333  0.88856     C
C      0.73636    0.122  0.47502     C
C      0.73636    0.878  0.97502     C
N      0.73848   0.1773  0.56333     N
N      0.73848   0.8227  0.06333     N
C      0.74281   0.2361  0.65192     C
C      0.74281   0.7639  0.15192     C
C       0.7444   0.2929  0.73784     C
C       0.7444   0.7071  0.23784     C
C       0.7556   0.2071  0.26216     C
C       0.7556   0.7929  0.76216     C
C      0.75719   0.2639  0.34808     C
C      0.75719   0.7361  0.84808     C
N      0.76152   0.3227  0.43667     N
N      0.76152   0.6773  0.93667     N
C      0.76364    0.378  0.52498     C
C      0.76364    0.622  0.02498     C
C      0.76412   0.4333  0.61144     C
C      0.76412   0.5667  0.11144     C
N       0.7741   0.0274   0.7718     N
N       0.7741   0.9726   0.2718     N
H       0.7745    0.172   0.2447     H
H       0.7745    0.828   0.7447     H
C       0.7768   0.0177  0.18374     C
C       0.7768   0.9823  0.68374     C
C       0.7775   0.1369  0.00955     C
C       0.7775   0.8631  0.50955     C
N      0.77963  0.18523   0.9216     N
N      0.77963  0.81477   0.4216     N
C       0.7805   0.3495  0.10753     C
C       0.7805   0.6505  0.60753     C
C      0.78478   0.4002  0.02187     C
C      0.78478   0.5998  0.52187     C
C       0.7849   0.2122  0.32149     C
C       0.7849   0.7878  0.82149     C
H        0.786   0.4396   0.6512     H
H        0.786   0.5604   0.1512     H
C      0.78927   0.4928  0.34789     C
C      0.78927   0.5072  0.84789     C
N      0.78954   0.4512  0.93512     N
N      0.78954   0.5488  0.43512     N
C       0.7898   0.4482  0.25926     C
C       0.7898   0.5518  0.75926     C
C      0.79031   0.2737  0.41208     C
C      0.79031   0.7263  0.91208     C
C        0.794   0.3273  0.49428     C
C        0.794   0.6727  0.99428     C
C      0.79529   0.3883  0.58466     C
C      0.79529   0.6117  0.08466     C
N      0.79632   0.0311  0.41691     N
N      0.79632   0.9689  0.91691     N
H       0.7983   0.1338   0.0496     H
H       0.7983   0.8662   0.5496     H
C      0.79848   0.0844  0.50512     C
C      0.79848   0.9156  0.00512     C
N      0.79904   0.2494  0.77171     N
N      0.79904   0.7506  0.27171     N
H       0.8007   0.3447   0.1475     H
H       0.8007   0.6553   0.6475     H
H        0.801   0.0412   0.1655     H
H        0.801   0.9588   0.6655     H
C       0.8012   0.1945  0.68564     C
C       0.8012   0.8055  0.18564     C
C       0.8058   0.0069  0.24289     C
C       0.8058   0.9931  0.74289     C
C       0.8076   0.1787  0.97963     C
C       0.8076   0.8213  0.47963     C
H       0.8127   0.4245     0.24     H
H       0.8127   0.5755     0.74     H
C      0.81415    0.392  0.08147     C
C      0.81415    0.608  0.58147     C
C      0.81802   0.4496  0.99282     C
C      0.81802   0.5504  0.49282     C
H       0.8209   0.0886    0.545     H
H       0.8209   0.9114    0.045     H
C      0.82091   0.4979  0.91156     C
C      0.82091   0.5021  0.41156     C
C       0.8226   0.4567  0.31827     C
C       0.8226   0.5433  0.81827     C
H       0.8227   0.1621   0.6689     H
H       0.8227   0.1812   0.3433     H
H       0.8227   0.8188   0.8433     H
H       0.8227   0.8379   0.1689     H
Ag      0.8228  0.24959  0.86741    Ag
Ag      0.8228  0.75041  0.36741    Ag
C      0.82611   0.0406  0.47437     C
C      0.82611   0.9594  0.97437     C
C       0.8266   0.2025  0.74469     C
C       0.8266   0.7975  0.24469     C
H       0.8371   0.3649   0.6062     H
H       0.8371   0.6351   0.1062     H
Ag     0.84348  0.04275  0.86767    Ag
Ag     0.84348  0.95725  0.36767    Ag
N      0.84686   0.2317  0.44016     N
N      0.84686   0.7683  0.94016     N
H        0.849   0.2034   0.0006     H
H        0.849   0.7966   0.5006     H
H       0.8498   0.0243   0.2638     H
H       0.8498   0.9757   0.7638     H
N      0.85194   0.2895  0.52708     N
N      0.85194   0.7105  0.02708     N
H        0.856   0.4149   0.1036     H
H        0.856   0.5851   0.6036     H
H       0.8653   0.1734   0.7672     H
H       0.8653   0.8266   0.2672     H
H       0.8666   0.4386   0.3382     H
H       0.8666   0.5614   0.8382     H
H       0.8678   0.0164   0.4948     H
H       0.8678   0.9836   0.9948     H
N      0.87417   0.4906  0.02662     N
N      0.87417   0.5094  0.52662     N
C       0.8761   0.2425  0.49732     C
C       0.8761   0.7575  0.99732     C
N      0.87869    0.462  0.44103     N
N      0.87869    0.538  0.94103     N
C      0.90297   0.4686   0.4985     C
C      0.90297   0.5314   0.9985     C
N      0.91234   0.3401  0.90746     N
N      0.91234   0.6599  0.40746     N
H       0.9223   0.3152   0.9856     H
H       0.9223   0.6848   0.4856     H
H        0.923   0.3798   0.8396     H
H        0.923   0.6202   0.3396     H
N      0.93886   0.1149  0.91184     N
N      0.93886   0.8851  0.41184     N
C      0.94022   0.1979  0.52954     C
C      0.94022   0.8021  0.02954     C
C      0.94266   0.3424  0.96551     C
C      0.94266   0.6576  0.46551     C
C      0.94273    0.381  0.87967     C
C      0.94273    0.619  0.37967     C
H       0.9437   0.1021   0.9896     H
H       0.9437   0.8979   0.4896     H
H       0.9456   0.2095     0.61     H
H       0.9456   0.7905     0.11     H
H       0.9564   0.1375   0.8448     H
H       0.9564    0.168     0.46     H
H       0.9564    0.832     0.96     H
H       0.9564   0.8625   0.3448     H
C      0.96628   0.1239  0.96948     C
C      0.96628   0.8761  0.46948     C
C       0.9671    0.188  0.58881     C
C       0.9671    0.812  0.08881     C
C      0.96752   0.4247   0.5326     C
C      0.96752   0.5753   0.0326     C
C      0.97348   0.1455  0.88442     C
C      0.97348   0.8545  0.38442     C
C      0.97397   0.1638  0.49988     C
C      0.97397   0.8362  0.99988     C
H       0.9785   0.3818   0.4632     H
H       0.9785   0.6182   0.9632     H
H       0.9798   0.4532   0.6134     H
H       0.9798   0.5468   0.1134     H
C      0.99794   0.3827  0.50329     C
C      0.99794   0.6173  0.00329     C
C      0.99838   0.4245  0.59251     C
C      0.99838   0.5755  0.09251     C
