data_I
_chemical_name_common  '/home/zhangsd/repos/MofS-CGCNN/ML/data/TSD/clean_cifs/QOFBIY01_clean'
_cell_length_a 22.06000
_cell_length_b 16.34720
_cell_length_c 25.67700
_cell_angle_alpha 90.00000
_cell_angle_beta  115.39200
_cell_angle_gamma 90.00000
_space_group_name_H-M_alt      'P 1'


loop_
_space_group_symop_operation_xyz
  'x, y, z' 

loop_
_atom_site_label
_atom_site_fract_x
_atom_site_fract_y
_atom_site_fract_z
_atom_site_type_symbol
C      0.00189   0.0751   0.9076     C
C      0.00189   0.9249   0.4076     C
C      0.00229   0.1172  0.99677     C
C      0.00229   0.8828  0.49677     C
H       0.0204   0.0462   0.8867     H
H       0.0204   0.9538   0.3867     H
H       0.0219    0.118   0.0369     H
H       0.0219    0.882   0.5369     H
C      0.02626    0.336  0.00017     C
C      0.02626    0.664  0.50017     C
C      0.02664   0.3545  0.61549     C
C      0.02664   0.6455  0.11549     C
C       0.0325   0.0752  0.96725     C
C       0.0325   0.9248  0.46725     C
C      0.03309   0.3116  0.91143     C
C      0.03309   0.6884  0.41143     C
C      0.03341   0.3763  0.53017     C
C      0.03341   0.6237  0.03017     C
H       0.0438   0.3315   0.0401     H
H       0.0438   0.3624   0.6551     H
H       0.0438   0.6376   0.1551     H
H       0.0438   0.6685   0.5401     H
H       0.0545   0.2898   0.8903     H
H       0.0545   0.7102   0.3903     H
H       0.0558   0.3984   0.5099     H
H       0.0558   0.6016   0.0099     H
C      0.05701    0.119  0.62028     C
C      0.05701    0.881  0.12028     C
C      0.05707   0.1577   0.5342     C
C      0.05707   0.8423   0.0342     C
C      0.05995   0.3022  0.97058     C
C      0.05995   0.6978  0.47058     C
N      0.06086    0.385  0.58802     N
N      0.06086    0.615  0.08802     N
H       0.0767   0.1204   0.6604     H
H       0.0767   0.8796   0.1604     H
H       0.0774    0.185   0.5141     H
H       0.0774    0.815   0.0141     H
N      0.08722   0.1597  0.59218     N
N      0.08722   0.8403  0.09218     N
C      0.09719   0.0308  0.00141     C
C      0.09719   0.9692  0.50141     C
N      0.12166  0.03776   0.0593     N
N      0.12166  0.96224   0.5593     N
C      0.12415    0.257  0.00266     C
C      0.12415    0.743  0.50266     C
N      0.12602   0.0096  0.47325     N
N      0.12602   0.9904  0.97325     N
H       0.1321   0.4831   0.0053     H
H       0.1321   0.5169   0.5053     H
H       0.1336   0.0606   0.1617     H
H       0.1336   0.9394   0.6617     H
H       0.1344   0.3259   0.7326     H
H       0.1344   0.6741   0.2326     H
H       0.1444   0.0851   0.3964     H
H       0.1444   0.9149   0.8964     H
N      0.14795   0.2109  0.97297     N
N      0.14795   0.7891  0.47297     N
H         0.15   0.4761   0.2362     H
H         0.15   0.5239   0.7362     H
H       0.1508   0.2977   0.4995     H
H       0.1508   0.7023   0.9995     H
N      0.15326   0.2686  0.05986     N
N      0.15326   0.7314  0.55986     N
Ag      0.1563  0.45764  0.63217    Ag
Ag      0.1563  0.54236  0.13217    Ag
H       0.1626   0.1339   0.8941     H
H       0.1626   0.8661   0.3941     H
C       0.1732   0.2971  0.75525     C
C       0.1732   0.7029  0.25525     C
C      0.17399   0.4592  0.02563     C
C      0.17399   0.5408  0.52563     C
Ag     0.17708  0.25016  0.63251    Ag
Ag     0.17708  0.74984  0.13251    Ag
H       0.1772   0.3382   0.8312     H
H       0.1772   0.6618   0.3312     H
H       0.1773   0.3189   0.1569     H
H       0.1773   0.6811   0.6569     H
C      0.17763   0.0429  0.18162     C
C      0.17763   0.9571  0.68162     C
H       0.1792   0.4121   0.9547     H
H       0.1792   0.5879   0.4547     H
C      0.17946   0.0021  0.58865     C
C      0.17946   0.9979  0.08865     C
C      0.18197   0.0507  0.50724     C
C      0.18197   0.9493  0.00724     C
C      0.18613   0.1081  0.41859     C
C      0.18613   0.8919  0.91859     C
H       0.1876   0.0755   0.2598     H
H       0.1876   0.9245   0.7598     H
C      0.19245   0.3217  0.52049     C
C      0.19245   0.6783  0.02049     C
C      0.19417   0.4932  0.25712     C
C      0.19417   0.5068  0.75712     C
C      0.19855   0.3055  0.81454     C
C      0.19855   0.6945  0.31454     C
H       0.1987   0.4579   0.3342     H
H       0.1987   0.5421   0.8342     H
H       0.1991    0.155   0.3527     H
H       0.1991    0.845   0.8527     H
N      0.20078   0.2503  0.72838     N
N      0.20078   0.7497  0.22838     N
C      0.20146   0.4159  0.99463     C
C      0.20146   0.5841  0.49463     C
H       0.2015   0.3653   0.4505     H
H       0.2015   0.6347   0.9505     H
N      0.20372  0.46908  0.08285     N
N      0.20372  0.53092  0.58285     N
C      0.20468   0.1112  0.91552     C
C      0.20468   0.8888  0.41552     C
C      0.20614   0.1726  0.00561     C
C      0.20614   0.8274  0.50561     C
C       0.2098   0.2265  0.08774     C
C       0.2098   0.7735  0.58774     C
C      0.21051   0.0516  0.24065     C
C      0.21051   0.9484  0.74065     C
N      0.21071   0.0491  0.56479     N
N      0.21071   0.9509  0.06479     N
C      0.21098   0.0073  0.15224     C
C      0.21098   0.9927  0.65224     C
H       0.2141   0.0612   0.8486     H
H       0.2141   0.9388   0.3486     H
C      0.21506      0.1  0.47804     C
C      0.21506      0.9  0.97804     C
C      0.21527   0.2882   0.1786     C
C      0.21527   0.7118   0.6786     C
C      0.21942   0.1504  0.39267     C
C      0.21942   0.8496  0.89267     C
N      0.22019  0.31458  0.57823     N
N      0.22019  0.68542  0.07823     N
C      0.22234   0.3626   0.4905     C
C      0.22234   0.6374   0.9905     C
C      0.22279   0.4818  0.31608     C
C      0.22279   0.5182  0.81608     C
N      0.22542    0.473  0.72803     N
N      0.22542    0.527  0.22803     N
H       0.2263   0.3286   0.2554     H
H       0.2263   0.6714   0.7554     H
C      0.23576   0.0668   0.8885     C
C      0.23576   0.9332   0.3885     C
C      0.23629   0.1222  0.97503     C
C      0.23629   0.8778  0.47503     C
N       0.2385  0.17723   0.0633     N
N       0.2385  0.82277   0.5633     N
C      0.24292   0.2367  0.15184     C
C      0.24292   0.7633  0.65184     C
C      0.24494   0.2932  0.23787     C
C      0.24494   0.7068  0.73787     C
C      0.25506   0.2068  0.76213     C
C      0.25506   0.7932  0.26213     C
C      0.25708   0.2633  0.84816     C
C      0.25708   0.7367  0.34816     C
N       0.2615  0.32277   0.9367     N
N       0.2615  0.67723   0.4367     N
C      0.26371   0.3778  0.02497     C
C      0.26371   0.6222  0.52497     C
C      0.26424   0.4332   0.1115     C
C      0.26424   0.5668   0.6115     C
H       0.2737   0.1714   0.7446     H
H       0.2737   0.8286   0.2446     H
N      0.27458    0.027  0.27197     N
N      0.27458    0.973  0.77197     N
C      0.27721   0.0182  0.68392     C
C      0.27721   0.9818  0.18392     C
C      0.27766   0.1374   0.5095     C
C      0.27766   0.8626   0.0095     C
N      0.27981  0.18542  0.42177     N
N      0.27981  0.81458  0.92177     N
C      0.28058   0.3496  0.60733     C
C      0.28058   0.6504  0.10733     C
C      0.28473   0.2118   0.8214     C
C      0.28473   0.7882   0.3214     C
C      0.28494      0.4  0.52196     C
C      0.28494      0.6  0.02196     C
H       0.2859   0.4388   0.1514     H
H       0.2859   0.5612   0.6514     H
C      0.28902   0.4927  0.84776     C
C      0.28902   0.5073  0.34776     C
N      0.28929   0.4509  0.43521     N
N      0.28929   0.5491  0.93521     N
C      0.28949   0.4484  0.75935     C
C      0.28949   0.5516  0.25935     C
C       0.2902   0.2735  0.91226     C
C       0.2902   0.7265  0.41226     C
C      0.29386   0.3274  0.99439     C
C      0.29386   0.6726  0.49439     C
C      0.29532   0.3888  0.08448     C
C      0.29532   0.6112  0.58448     C
N      0.29628  0.03092  0.91715     N
N      0.29628  0.96908  0.41715     N
H       0.2985   0.1347   0.5495     H
H       0.2985   0.8653   0.0495     H
C      0.29854   0.0841  0.00537     C
C      0.29854   0.9159  0.50537     C
N      0.29922   0.2497  0.27162     N
N      0.29922   0.7503  0.77162     N
H       0.3009    0.345   0.6473     H
H       0.3009    0.655   0.1473     H
H       0.3013   0.0421   0.6658     H
H       0.3013   0.9579   0.1658     H
C      0.30145   0.1945  0.18546     C
C      0.30145   0.8055  0.68546     C
C      0.30583   0.0068  0.74288     C
C      0.30583   0.9932  0.24288     C
C      0.30755   0.1783  0.47951     C
C      0.30755   0.8217  0.97951     C
H       0.3124   0.4245   0.7402     H
H       0.3124   0.5755   0.2402     H
C      0.31387   0.3919  0.58141     C
C      0.31387   0.6081  0.08141     C
C      0.31803   0.4493  0.49276     C
C      0.31803   0.5507  0.99276     C
C      0.32054   0.4979  0.41135     C
C      0.32054   0.5021  0.91135     C
H       0.3208   0.0879   0.0453     H
H       0.3208   0.9121   0.5453     H
C      0.32237   0.4571  0.81838     C
C      0.32237   0.5429  0.31838     C
H       0.3227   0.1811   0.8431     H
H       0.3227   0.8189   0.3431     H
H       0.3228   0.1618   0.1688     H
H       0.3228   0.8382   0.6688     H
Ag     0.32292  0.24984  0.36749    Ag
Ag     0.32292  0.75016  0.86749    Ag
C      0.32601   0.0408  0.97437     C
C      0.32601   0.9592  0.47437     C
C       0.3268   0.2029  0.24475     C
C       0.3268   0.7971  0.74475     C
H       0.3374   0.3661   0.1059     H
H       0.3374   0.6339   0.6059     H
Ag      0.3437  0.04236  0.36783    Ag
Ag      0.3437  0.95764  0.86783    Ag
N      0.34674   0.2314  0.94014     N
N      0.34674   0.7686  0.44014     N
H       0.3492   0.2023   0.5005     H
H       0.3492   0.7977   0.0005     H
H         0.35   0.0239   0.7638     H
H         0.35   0.9761   0.2638     H
N      0.35205   0.2891  0.02703     N
N      0.35205   0.7109  0.52703     N
H       0.3556   0.4149   0.6036     H
H       0.3556   0.5851   0.1036     H
H       0.3656   0.1741   0.2674     H
H       0.3656   0.8259   0.7674     H
H       0.3664   0.4394   0.8383     H
H       0.3664   0.5606   0.3383     H
H       0.3679   0.0169   0.9947     H
H       0.3679   0.9831   0.4947     H
N      0.37398   0.4904  0.52675     N
N      0.37398   0.5096  0.02675     N
C      0.37585    0.243  0.99734     C
C      0.37585    0.757  0.49734     C
N      0.37834  0.46224   0.9407     N
N      0.37834  0.53776   0.4407     N
C      0.40281   0.4692  0.99859     C
C      0.40281   0.5308  0.49859     C
N      0.41278   0.3403  0.40782     N
N      0.41278   0.6597  0.90782     N
H       0.4226    0.315   0.4859     H
H       0.4226    0.685   0.9859     H
H       0.4233   0.3796   0.3396     H
H       0.4233   0.6204   0.8396     H
N      0.43914    0.115  0.41198     N
N      0.43914    0.885  0.91198     N
C      0.44005   0.1978  0.02942     C
C      0.44005   0.8022  0.52942     C
C      0.44293   0.3423   0.4658     C
C      0.44293   0.6577   0.9658     C
C      0.44299    0.381  0.37972     C
C      0.44299    0.619  0.87972     C
H       0.4442   0.1016   0.4901     H
H       0.4442   0.8984   0.9901     H
H       0.4455   0.2102   0.1097     H
H       0.4455   0.7898   0.6097     H
H       0.4562   0.1376   0.3449     H
H       0.4562   0.1685   0.9599     H
H       0.4562   0.8315   0.4599     H
H       0.4562   0.8624   0.8449     H
C      0.46659   0.1237  0.46983     C
C      0.46659   0.8763  0.96983     C
C      0.46691   0.1884  0.08857     C
C      0.46691   0.8116  0.58857     C
C       0.4675   0.4248  0.03275     C
C       0.4675   0.5752  0.53275     C
C      0.47336   0.1455  0.38451     C
C      0.47336   0.8545  0.88451     C
C      0.47374    0.164  0.99983     C
C      0.47374    0.836  0.49983     C
H       0.4781    0.382   0.9631     H
H       0.4781    0.618   0.4631     H
H       0.4796   0.4538   0.1133     H
H       0.4796   0.5462   0.6133     H
C      0.49771   0.3828  0.00323     C
C      0.49771   0.6172  0.50323     C
C      0.49811   0.4249   0.0924     C
C      0.49811   0.5751   0.5924     C
C      0.50189   0.4249   0.4076     C
C      0.50189   0.5751   0.9076     C
C      0.50229   0.3828  0.49677     C
C      0.50229   0.6172  0.99677     C
H       0.5204   0.4538   0.3867     H
H       0.5204   0.5462   0.8867     H
H       0.5219    0.382   0.5369     H
H       0.5219    0.618   0.0369     H
C      0.52626    0.164  0.50017     C
C      0.52626    0.836  0.00017     C
C      0.52664   0.1455  0.11549     C
C      0.52664   0.8545  0.61549     C
C       0.5325   0.4248  0.46725     C
C       0.5325   0.5752  0.96725     C
C      0.53309   0.1884  0.41143     C
C      0.53309   0.8116  0.91143     C
C      0.53341   0.1237  0.03017     C
C      0.53341   0.8763  0.53017     C
H       0.5438   0.1376   0.1551     H
H       0.5438   0.1685   0.5401     H
H       0.5438   0.8315   0.0401     H
H       0.5438   0.8624   0.6551     H
H       0.5545   0.2102   0.3903     H
H       0.5545   0.7898   0.8903     H
H       0.5558   0.1016   0.0099     H
H       0.5558   0.8984   0.5099     H
C      0.55701    0.381  0.12028     C
C      0.55701    0.619  0.62028     C
C      0.55707   0.3423   0.0342     C
C      0.55707   0.6577   0.5342     C
C      0.55995   0.1978  0.47058     C
C      0.55995   0.8022  0.97058     C
N      0.56086    0.115  0.08802     N
N      0.56086    0.885  0.58802     N
H       0.5767   0.3796   0.1604     H
H       0.5767   0.6204   0.6604     H
H       0.5774    0.315   0.0141     H
H       0.5774    0.685   0.5141     H
N      0.58722   0.3403  0.09218     N
N      0.58722   0.6597  0.59218     N
C      0.59719   0.4692  0.50141     C
C      0.59719   0.5308  0.00141     C
N      0.62166  0.46224   0.5593     N
N      0.62166  0.53776   0.0593     N
C      0.62415    0.243  0.50266     C
C      0.62415    0.757  0.00266     C
N      0.62602   0.4904  0.97325     N
N      0.62602   0.5096  0.47325     N
H       0.6321   0.0169   0.5053     H
H       0.6321   0.9831   0.0053     H
H       0.6336   0.4394   0.6617     H
H       0.6336   0.5606   0.1617     H
H       0.6344   0.1741   0.2326     H
H       0.6344   0.8259   0.7326     H
H       0.6444   0.4149   0.8964     H
H       0.6444   0.5851   0.3964     H
N      0.64795   0.2891  0.47297     N
N      0.64795   0.7109  0.97297     N
H         0.65   0.0239   0.7362     H
H         0.65   0.9761   0.2362     H
H       0.6508   0.2023   0.9995     H
H       0.6508   0.7977   0.4995     H
N      0.65326   0.2314  0.55986     N
N      0.65326   0.7686  0.05986     N
Ag      0.6563  0.04236  0.13217    Ag
Ag      0.6563  0.95764  0.63217    Ag
H       0.6626   0.3661   0.3941     H
H       0.6626   0.6339   0.8941     H
C       0.6732   0.2029  0.25525     C
C       0.6732   0.7971  0.75525     C
C      0.67399   0.0408  0.52563     C
C      0.67399   0.9592  0.02563     C
Ag     0.67708  0.24984  0.13251    Ag
Ag     0.67708  0.75016  0.63251    Ag
H       0.6772   0.1618   0.3312     H
H       0.6772   0.8382   0.8312     H
H       0.6773   0.1811   0.6569     H
H       0.6773   0.8189   0.1569     H
C      0.67763   0.4571  0.68162     C
C      0.67763   0.5429  0.18162     C
H       0.6792   0.0879   0.4547     H
H       0.6792   0.9121   0.9547     H
C      0.67946   0.4979  0.08865     C
C      0.67946   0.5021  0.58865     C
C      0.68197   0.4493  0.00724     C
C      0.68197   0.5507  0.50724     C
C      0.68613   0.3919  0.91859     C
C      0.68613   0.6081  0.41859     C
H       0.6876   0.4245   0.7598     H
H       0.6876   0.5755   0.2598     H
C      0.69245   0.1783  0.02049     C
C      0.69245   0.8217  0.52049     C
C      0.69417   0.0068  0.75712     C
C      0.69417   0.9932  0.25712     C
C      0.69855   0.1945  0.31454     C
C      0.69855   0.8055  0.81454     C
H       0.6987   0.0421   0.8342     H
H       0.6987   0.9579   0.3342     H
H       0.6991    0.345   0.8527     H
H       0.6991    0.655   0.3527     H
N      0.70078   0.2497  0.22838     N
N      0.70078   0.7503  0.72838     N
C      0.70146   0.0841  0.49463     C
C      0.70146   0.9159  0.99463     C
H       0.7015   0.1347   0.9505     H
H       0.7015   0.8653   0.4505     H
N      0.70372  0.03092  0.58285     N
N      0.70372  0.96908  0.08285     N
C      0.70468   0.3888  0.41552     C
C      0.70468   0.6112  0.91552     C
C      0.70614   0.3274  0.50561     C
C      0.70614   0.6726  0.00561     C
C       0.7098   0.2735  0.58774     C
C       0.7098   0.7265  0.08774     C
C      0.71051   0.4484  0.74065     C
C      0.71051   0.5516  0.24065     C
N      0.71071   0.4509  0.06479     N
N      0.71071   0.5491  0.56479     N
C      0.71098   0.4927  0.65224     C
C      0.71098   0.5073  0.15224     C
H       0.7141   0.4388   0.3486     H
H       0.7141   0.5612   0.8486     H
C      0.71506      0.4  0.97804     C
C      0.71506      0.6  0.47804     C
C      0.71527   0.2118   0.6786     C
C      0.71527   0.7882   0.1786     C
C      0.71942   0.3496  0.89267     C
C      0.71942   0.6504  0.39267     C
N      0.72019  0.18542  0.07823     N
N      0.72019  0.81458  0.57823     N
C      0.72234   0.1374   0.9905     C
C      0.72234   0.8626   0.4905     C
C      0.72279   0.0182  0.81608     C
C      0.72279   0.9818  0.31608     C
N      0.72542    0.027  0.22803     N
N      0.72542    0.973  0.72803     N
H       0.7263   0.1714   0.7554     H
H       0.7263   0.8286   0.2554     H
C      0.73576   0.4332   0.3885     C
C      0.73576   0.5668   0.8885     C
C      0.73629   0.3778  0.47503     C
C      0.73629   0.6222  0.97503     C
N       0.7385  0.32277   0.5633     N
N       0.7385  0.67723   0.0633     N
C      0.74292   0.2633  0.65184     C
C      0.74292   0.7367  0.15184     C
C      0.74494   0.2068  0.73787     C
C      0.74494   0.7932  0.23787     C
C      0.75506   0.2932  0.26213     C
C      0.75506   0.7068  0.76213     C
C      0.75708   0.2367  0.34816     C
C      0.75708   0.7633  0.84816     C
N       0.7615  0.17723   0.4367     N
N       0.7615  0.82277   0.9367     N
C      0.76371   0.1222  0.52497     C
C      0.76371   0.8778  0.02497     C
C      0.76424   0.0668   0.6115     C
C      0.76424   0.9332   0.1115     C
H       0.7737   0.3286   0.2446     H
H       0.7737   0.6714   0.7446     H
N      0.77458    0.473  0.77197     N
N      0.77458    0.527  0.27197     N
C      0.77721   0.4818  0.18392     C
C      0.77721   0.5182  0.68392     C
C      0.77766   0.3626   0.0095     C
C      0.77766   0.6374   0.5095     C
N      0.77981  0.31458  0.92177     N
N      0.77981  0.68542  0.42177     N
C      0.78058   0.1504  0.10733     C
C      0.78058   0.8496  0.60733     C
C      0.78473   0.2882   0.3214     C
C      0.78473   0.7118   0.8214     C
C      0.78494      0.1  0.02196     C
C      0.78494      0.9  0.52196     C
H       0.7859   0.0612   0.6514     H
H       0.7859   0.9388   0.1514     H
C      0.78902   0.0073  0.34776     C
C      0.78902   0.9927  0.84776     C
N      0.78929   0.0491  0.93521     N
N      0.78929   0.9509  0.43521     N
C      0.78949   0.0516  0.25935     C
C      0.78949   0.9484  0.75935     C
C       0.7902   0.2265  0.41226     C
C       0.7902   0.7735  0.91226     C
C      0.79386   0.1726  0.49439     C
C      0.79386   0.8274  0.99439     C
C      0.79532   0.1112  0.58448     C
C      0.79532   0.8888  0.08448     C
N      0.79628  0.46908  0.41715     N
N      0.79628  0.53092  0.91715     N
H       0.7985   0.3653   0.0495     H
H       0.7985   0.6347   0.5495     H
C      0.79854   0.4159  0.50537     C
C      0.79854   0.5841  0.00537     C
N      0.79922   0.2503  0.77162     N
N      0.79922   0.7497  0.27162     N
H       0.8009    0.155   0.1473     H
H       0.8009    0.845   0.6473     H
H       0.8013   0.4579   0.1658     H
H       0.8013   0.5421   0.6658     H
C      0.80145   0.3055  0.68546     C
C      0.80145   0.6945  0.18546     C
C      0.80583   0.4932  0.24288     C
C      0.80583   0.5068  0.74288     C
C      0.80755   0.3217  0.97951     C
C      0.80755   0.6783  0.47951     C
H       0.8124   0.0755   0.2402     H
H       0.8124   0.9245   0.7402     H
C      0.81387   0.1081  0.08141     C
C      0.81387   0.8919  0.58141     C
C      0.81803   0.0507  0.99276     C
C      0.81803   0.9493  0.49276     C
C      0.82054   0.0021  0.91135     C
C      0.82054   0.9979  0.41135     C
H       0.8208   0.4121   0.5453     H
H       0.8208   0.5879   0.0453     H
C      0.82237   0.0429  0.31838     C
C      0.82237   0.9571  0.81838     C
H       0.8227   0.3189   0.3431     H
H       0.8227   0.6811   0.8431     H
H       0.8228   0.3382   0.6688     H
H       0.8228   0.6618   0.1688     H
Ag     0.82292  0.25016  0.86749    Ag
Ag     0.82292  0.74984  0.36749    Ag
C      0.82601   0.4592  0.47437     C
C      0.82601   0.5408  0.97437     C
C       0.8268   0.2971  0.74475     C
C       0.8268   0.7029  0.24475     C
H       0.8374   0.1339   0.6059     H
H       0.8374   0.8661   0.1059     H
Ag      0.8437  0.45764  0.86783    Ag
Ag      0.8437  0.54236  0.36783    Ag
N      0.84674   0.2686  0.44014     N
N      0.84674   0.7314  0.94014     N
H       0.8492   0.2977   0.0005     H
H       0.8492   0.7023   0.5005     H
H         0.85   0.4761   0.2638     H
H         0.85   0.5239   0.7638     H
N      0.85205   0.2109  0.52703     N
N      0.85205   0.7891  0.02703     N
H       0.8556   0.0851   0.1036     H
H       0.8556   0.9149   0.6036     H
H       0.8656   0.3259   0.7674     H
H       0.8656   0.6741   0.2674     H
H       0.8664   0.0606   0.3383     H
H       0.8664   0.9394   0.8383     H
H       0.8679   0.4831   0.4947     H
H       0.8679   0.5169   0.9947     H
N      0.87398   0.0096  0.02675     N
N      0.87398   0.9904  0.52675     N
C      0.87585    0.257  0.49734     C
C      0.87585    0.743  0.99734     C
N      0.87834  0.03776   0.4407     N
N      0.87834  0.96224   0.9407     N
C      0.90281   0.0308  0.49859     C
C      0.90281   0.9692  0.99859     C
N      0.91278   0.1597  0.90782     N
N      0.91278   0.8403  0.40782     N
H       0.9226    0.185   0.9859     H
H       0.9226    0.815   0.4859     H
H       0.9233   0.1204   0.8396     H
H       0.9233   0.8796   0.3396     H
N      0.93914    0.385  0.91198     N
N      0.93914    0.615  0.41198     N
C      0.94005   0.3022  0.52942     C
C      0.94005   0.6978  0.02942     C
C      0.94293   0.1577   0.9658     C
C      0.94293   0.8423   0.4658     C
C      0.94299    0.119  0.87972     C
C      0.94299    0.881  0.37972     C
H       0.9442   0.3984   0.9901     H
H       0.9442   0.6016   0.4901     H
H       0.9455   0.2898   0.6097     H
H       0.9455   0.7102   0.1097     H
H       0.9562   0.3315   0.4599     H
H       0.9562   0.3624   0.8449     H
H       0.9562   0.6376   0.3449     H
H       0.9562   0.6685   0.9599     H
C      0.96659   0.3763  0.96983     C
C      0.96659   0.6237  0.46983     C
C      0.96691   0.3116  0.58857     C
C      0.96691   0.6884  0.08857     C
C       0.9675   0.0752  0.53275     C
C       0.9675   0.9248  0.03275     C
C      0.97336   0.3545  0.88451     C
C      0.97336   0.6455  0.38451     C
C      0.97374    0.336  0.49983     C
C      0.97374    0.664  0.99983     C
H       0.9781    0.118   0.4631     H
H       0.9781    0.882   0.9631     H
H       0.9796   0.0462   0.6133     H
H       0.9796   0.9538   0.1133     H
C      0.99771   0.1172  0.50323     C
C      0.99771   0.8828  0.00323     C
C      0.99811   0.0751   0.5924     C
C      0.99811   0.9249   0.0924     C
