data_I
_chemical_name_common  '/home/zhangsd/repos/MofS-CGCNN/ML/data/TSD/clean_cifs/QOFCAR_clean'
_cell_length_a 22.03830
_cell_length_b 16.41510
_cell_length_c 25.67900
_cell_angle_alpha 90.00000
_cell_angle_beta  115.40400
_cell_angle_gamma 90.00000
_space_group_name_H-M_alt      'P 1'


loop_
_space_group_symop_operation_xyz
  'x, y, z' 

loop_
_atom_site_label
_atom_site_fract_x
_atom_site_fract_y
_atom_site_fract_z
_atom_site_type_symbol
C       0.0023   0.0755  0.90795     C
C       0.0023   0.9245  0.40795     C
C      0.00281    0.117   0.9968     C
C      0.00281    0.883   0.4968     C
H       0.0209   0.0469    0.887     H
H       0.0209   0.9531    0.387     H
H       0.0222   0.1173   0.0369     H
H       0.0222   0.8827   0.5369     H
C      0.02651   0.3552  0.61545     C
C      0.02651   0.6448  0.11545     C
C      0.02672   0.3366   0.0003     C
C      0.02672   0.6634   0.5003     C
C      0.03298   0.0754  0.96759     C
C      0.03298   0.9246  0.46759     C
C      0.03307    0.377  0.53045     C
C      0.03307    0.623  0.03045     C
C       0.0332   0.3119   0.9113     C
C       0.0332   0.6881   0.4113     C
H       0.0437   0.3634   0.6551     H
H       0.0437   0.6366   0.1551     H
H       0.0442   0.3323   0.0402     H
H       0.0442   0.6677   0.5402     H
H       0.0544   0.2899   0.8901     H
H       0.0544   0.7101   0.3901     H
H       0.0554   0.3994   0.5103     H
H       0.0554   0.6006   0.0103     H
C      0.05653   0.1581  0.53411     C
C      0.05653   0.8419  0.03411     C
C      0.05678   0.1191  0.61992     C
C      0.05678   0.8809  0.11992     C
C      0.06013   0.3025  0.97065     C
C      0.06013   0.6975  0.47065     C
N      0.06049  0.38572  0.58781     N
N      0.06049  0.61428  0.08781     N
H       0.0766   0.1202     0.66     H
H       0.0766   0.1858    0.514     H
H       0.0766   0.8142    0.014     H
H       0.0766   0.8798     0.16     H
N      0.08678   0.1598  0.59226     N
N      0.08678   0.8402  0.09226     N
C      0.09731   0.0309  0.00158     C
C      0.09731   0.9691  0.50158     C
N      0.12201  0.03761  0.05936     N
N      0.12201  0.96239  0.55936     N
C      0.12428   0.2575  0.00295     C
C      0.12428   0.7425  0.50295     C
N       0.1259  0.00982   0.4734     N
N       0.1259  0.99018   0.9734     N
H       0.1326   0.4833   0.0054     H
H       0.1326   0.5167   0.5054     H
H       0.1341   0.3259   0.7328     H
H       0.1341   0.6741   0.2328     H
H       0.1342   0.0615   0.1617     H
H       0.1342   0.9385   0.6617     H
H       0.1444   0.0856   0.3969     H
H       0.1444   0.9144   0.8969     H
N      0.14811  0.21096  0.97305     N
N      0.14811  0.78904  0.47305     N
H       0.1495    0.476   0.2355     H
H       0.1495    0.524   0.7355     H
H       0.1505   0.2977   0.4991     H
H       0.1505   0.7023   0.9991     H
N      0.15352  0.26841  0.05984     N
N      0.15352  0.73159  0.55984     N
Ag     0.15596  0.45836  0.63189    Ag
Ag     0.15596  0.54164  0.13189    Ag
H       0.1626   0.1339   0.8941     H
H       0.1626   0.8661   0.3941     H
C      0.17276   0.2969   0.7554     C
C      0.17276   0.7031   0.2554     C
C      0.17438   0.4592  0.02569     C
C      0.17438   0.5408  0.52569     C
H       0.1765   0.3378    0.831     H
H       0.1765   0.6622    0.331     H
Ag     0.17695  0.24999  0.63235    Ag
Ag     0.17695  0.75001  0.13235    Ag
C      0.17813   0.0431  0.18178     C
C      0.17813   0.9569  0.68178     C
H       0.1784   0.3196   0.1567     H
H       0.1784   0.6804   0.6567     H
H       0.1789   0.4119   0.9546     H
H       0.1789   0.5881   0.4546     H
C      0.17975   0.0026  0.58896     C
C      0.17975   0.9974  0.08896     C
C      0.18211   0.0505  0.50736     C
C      0.18211   0.9495  0.00736     C
C      0.18635   0.1083  0.41899     C
C      0.18635   0.8917  0.91899     C
H       0.1874   0.0748   0.2598     H
H       0.1874   0.9252   0.7598     H
C      0.19213   0.3218  0.52013     C
C      0.19213   0.6782  0.02013     C
C      0.19359    0.493  0.25659     C
C      0.19359    0.507  0.75659     C
C      0.19801   0.3053  0.81435     C
C      0.19801   0.6947  0.31435     C
H       0.1984   0.4576    0.334     H
H       0.1984   0.5424    0.834     H
H       0.1995   0.1544    0.353     H
H       0.1995   0.8456    0.853     H
N      0.19981   0.2502  0.72825     N
N      0.19981   0.7498  0.22825     N
H       0.2014    0.366   0.4502     H
H       0.2014    0.634   0.9502     H
C      0.20144   0.4158  0.99451     C
C      0.20144   0.5842  0.49451     C
N      0.20383  0.46893  0.08266     N
N      0.20383  0.53107  0.58266     N
C      0.20461   0.1111  0.91566     C
C      0.20461   0.8889  0.41566     C
C      0.20578   0.1728  0.00573     C
C      0.20578   0.8272  0.50573     C
C      0.21035   0.2266  0.08824     C
C      0.21035   0.7734  0.58824     C
C      0.21054   0.0514  0.24062     C
C      0.21054   0.9486  0.74062     C
N      0.21091  0.04912  0.56483     N
N      0.21091  0.95088  0.06483     N
C      0.21131   0.0074   0.1525     C
C      0.21131   0.9926   0.6525     C
H       0.2139   0.0609   0.8492     H
H       0.2139   0.9391   0.3492     H
C      0.21538      0.1  0.47817     C
C      0.21538      0.9  0.97817     C
C      0.21602   0.2884  0.17845     C
C      0.21602   0.7116  0.67845     C
C      0.21976   0.1501  0.39295     C
C      0.21976   0.8499  0.89295     C
N      0.21986  0.31468  0.57794     N
N      0.21986  0.68532  0.07794     N
C       0.2222    0.363  0.49024     C
C       0.2222    0.637  0.99024     C
C      0.22243   0.4817  0.31585     C
C      0.22243   0.5183  0.81585     C
N      0.22523   0.4732  0.72813     N
N      0.22523   0.5268  0.22813     N
H       0.2271   0.3286   0.2554     H
H       0.2271   0.6714   0.7554     H
C       0.2357   0.0667  0.88904     C
C       0.2357   0.9333  0.38904     C
C      0.23623    0.122  0.97519     C
C      0.23623    0.878  0.47519     C
N      0.23846   0.1773  0.06327     N
N      0.23846   0.8227  0.56327     N
C      0.24307   0.2365  0.15187     C
C      0.24307   0.7635  0.65187     C
C       0.2457   0.2933  0.23784     C
C       0.2457   0.7067  0.73784     C
C       0.2543   0.2067  0.76216     C
C       0.2543   0.7933  0.26216     C
C      0.25693   0.2635  0.84813     C
C      0.25693   0.7365  0.34813     C
N      0.26154   0.3227  0.93673     N
N      0.26154   0.6773  0.43673     N
C      0.26377    0.378  0.02481     C
C      0.26377    0.622  0.52481     C
C       0.2643   0.4333  0.11096     C
C       0.2643   0.5667  0.61096     C
H       0.2729   0.1714   0.7446     H
H       0.2729   0.8286   0.2446     H
N      0.27477   0.0268  0.27187     N
N      0.27477   0.9732  0.77187     N
C      0.27757   0.0183  0.68415     C
C      0.27757   0.9817  0.18415     C
C       0.2778    0.137  0.50976     C
C       0.2778    0.863  0.00976     C
N      0.28014  0.18532  0.42206     N
N      0.28014  0.81468  0.92206     N
C      0.28024   0.3499  0.60705     C
C      0.28024   0.6501  0.10705     C
C      0.28398   0.2116  0.82155     C
C      0.28398   0.7884  0.32155     C
C      0.28462      0.4  0.52183     C
C      0.28462      0.6  0.02183     C
H       0.2861   0.4391   0.1508     H
H       0.2861   0.5609   0.6508     H
C      0.28869   0.4926   0.8475     C
C      0.28869   0.5074   0.3475     C
N      0.28909  0.45088  0.43517     N
N      0.28909  0.54912  0.93517     N
C      0.28946   0.4486  0.75938     C
C      0.28946   0.5514  0.25938     C
C      0.28965   0.2734  0.91176     C
C      0.28965   0.7266  0.41176     C
C      0.29422   0.3272  0.99427     C
C      0.29422   0.6728  0.49427     C
C      0.29539   0.3889  0.08434     C
C      0.29539   0.6111  0.58434     C
N      0.29617  0.03107  0.91734     N
N      0.29617  0.96893  0.41734     N
C      0.29856   0.0842  0.00549     C
C      0.29856   0.9158  0.50549     C
H       0.2986    0.134   0.5498     H
H       0.2986    0.866   0.0498     H
N      0.30019   0.2498  0.27175     N
N      0.30019   0.7502  0.77175     N
H       0.3005   0.3456    0.647     H
H       0.3005   0.6544    0.147     H
H       0.3016   0.0424    0.666     H
H       0.3016   0.9576    0.166     H
C      0.30199   0.1947  0.18565     C
C      0.30199   0.8053  0.68565     C
C      0.30641    0.007  0.74341     C
C      0.30641    0.993  0.24341     C
C      0.30787   0.1782  0.47987     C
C      0.30787   0.8218  0.97987     C
H       0.3126   0.4252   0.7402     H
H       0.3126   0.5748   0.2402     H
C      0.31365   0.3917  0.58101     C
C      0.31365   0.6083  0.08101     C
C      0.31789   0.4495  0.49264     C
C      0.31789   0.5505  0.99264     C
C      0.32025   0.4974  0.41104     C
C      0.32025   0.5026  0.91104     C
H       0.3211   0.0881   0.0454     H
H       0.3211   0.9119   0.5454     H
H       0.3216   0.1804   0.8433     H
H       0.3216   0.8196   0.3433     H
C      0.32187   0.4569  0.81822     C
C      0.32187   0.5431  0.31822     C
Ag     0.32305  0.25001  0.36765    Ag
Ag     0.32305  0.74999  0.86765    Ag
H       0.3235   0.1622    0.169     H
H       0.3235   0.8378    0.669     H
C      0.32562   0.0408  0.97431     C
C      0.32562   0.9592  0.47431     C
C      0.32724   0.2031   0.2446     C
C      0.32724   0.7969   0.7446     C
H       0.3374   0.3661   0.1059     H
H       0.3374   0.6339   0.6059     H
Ag     0.34404  0.04164  0.36811    Ag
Ag     0.34404  0.95836  0.86811    Ag
N      0.34648  0.23159  0.94016     N
N      0.34648  0.76841  0.44016     N
H       0.3495   0.2023   0.5009     H
H       0.3495   0.7977   0.0009     H
H       0.3505    0.024   0.7645     H
H       0.3505    0.976   0.2645     H
N      0.35189  0.28904  0.02695     N
N      0.35189  0.71096  0.52695     N
H       0.3556   0.4144   0.6031     H
H       0.3556   0.5856   0.1031     H
H       0.3658   0.4385   0.8383     H
H       0.3658   0.5615   0.3383     H
H       0.3659   0.1741   0.2672     H
H       0.3659   0.8259   0.7672     H
H       0.3674   0.0167   0.9946     H
H       0.3674   0.9833   0.4946     H
N       0.3741  0.49018   0.5266     N
N       0.3741  0.50982   0.0266     N
C      0.37572   0.2425  0.99705     C
C      0.37572   0.7575  0.49705     C
N      0.37799  0.46239  0.94064     N
N      0.37799  0.53761  0.44064     N
C      0.40269   0.4691  0.99842     C
C      0.40269   0.5309  0.49842     C
N      0.41322   0.3402  0.40774     N
N      0.41322   0.6598  0.90774     N
H       0.4234   0.3142    0.486     H
H       0.4234   0.3798     0.34     H
H       0.4234   0.6202     0.84     H
H       0.4234   0.6858    0.986     H
N      0.43951  0.11428  0.41219     N
N      0.43951  0.88572  0.91219     N
C      0.43987   0.1975  0.02935     C
C      0.43987   0.8025  0.52935     C
C      0.44322   0.3809  0.38008     C
C      0.44322   0.6191  0.88008     C
C      0.44347   0.3419  0.46589     C
C      0.44347   0.6581  0.96589     C
H       0.4446   0.1006   0.4897     H
H       0.4446   0.8994   0.9897     H
H       0.4456   0.2101   0.1099     H
H       0.4456   0.7899   0.6099     H
H       0.4558   0.1677   0.9598     H
H       0.4558   0.8323   0.4598     H
H       0.4563   0.1366   0.3449     H
H       0.4563   0.8634   0.8449     H
C       0.4668   0.1881   0.0887     C
C       0.4668   0.8119   0.5887     C
C      0.46693    0.123  0.46955     C
C      0.46693    0.877  0.96955     C
C      0.46702   0.4246  0.03241     C
C      0.46702   0.5754  0.53241     C
C      0.47328   0.1634   0.9997     C
C      0.47328   0.8366   0.4997     C
C      0.47349   0.1448  0.38455     C
C      0.47349   0.8552  0.88455     C
H       0.4778   0.3827   0.9631     H
H       0.4778   0.6173   0.4631     H
H       0.4791   0.4531    0.113     H
H       0.4791   0.5469    0.613     H
C      0.49719    0.383   0.0032     C
C      0.49719    0.617   0.5032     C
C       0.4977   0.4245  0.09205     C
C       0.4977   0.5755  0.59205     C
C       0.5023   0.4245  0.40795     C
C       0.5023   0.5755  0.90795     C
C      0.50281    0.383   0.4968     C
C      0.50281    0.617   0.9968     C
H       0.5209   0.4531    0.387     H
H       0.5209   0.5469    0.887     H
H       0.5222   0.3827   0.5369     H
H       0.5222   0.6173   0.0369     H
C      0.52651   0.1448  0.11545     C
C      0.52651   0.8552  0.61545     C
C      0.52672   0.1634   0.5003     C
C      0.52672   0.8366   0.0003     C
C      0.53298   0.4246  0.46759     C
C      0.53298   0.5754  0.96759     C
C      0.53307    0.123  0.03045     C
C      0.53307    0.877  0.53045     C
C       0.5332   0.1881   0.4113     C
C       0.5332   0.8119   0.9113     C
H       0.5437   0.1366   0.1551     H
H       0.5437   0.8634   0.6551     H
H       0.5442   0.1677   0.5402     H
H       0.5442   0.8323   0.0402     H
H       0.5544   0.2101   0.3901     H
H       0.5544   0.7899   0.8901     H
H       0.5554   0.1006   0.0103     H
H       0.5554   0.8994   0.5103     H
C      0.55653   0.3419  0.03411     C
C      0.55653   0.6581  0.53411     C
C      0.55678   0.3809  0.11992     C
C      0.55678   0.6191  0.61992     C
C      0.56013   0.1975  0.47065     C
C      0.56013   0.8025  0.97065     C
N      0.56049  0.11428  0.08781     N
N      0.56049  0.88572  0.58781     N
H       0.5766   0.3142    0.014     H
H       0.5766   0.3798     0.16     H
H       0.5766   0.6202     0.66     H
H       0.5766   0.6858    0.514     H
N      0.58678   0.3402  0.09226     N
N      0.58678   0.6598  0.59226     N
C      0.59731   0.4691  0.50158     C
C      0.59731   0.5309  0.00158     C
N      0.62201  0.46239  0.55936     N
N      0.62201  0.53761  0.05936     N
C      0.62428   0.2425  0.50295     C
C      0.62428   0.7575  0.00295     C
N       0.6259  0.49018   0.9734     N
N       0.6259  0.50982   0.4734     N
H       0.6326   0.0167   0.5054     H
H       0.6326   0.9833   0.0054     H
H       0.6341   0.1741   0.2328     H
H       0.6341   0.8259   0.7328     H
H       0.6342   0.4385   0.6617     H
H       0.6342   0.5615   0.1617     H
H       0.6444   0.4144   0.8969     H
H       0.6444   0.5856   0.3969     H
N      0.64811  0.28904  0.47305     N
N      0.64811  0.71096  0.97305     N
H       0.6495    0.024   0.7355     H
H       0.6495    0.976   0.2355     H
H       0.6505   0.2023   0.9991     H
H       0.6505   0.7977   0.4991     H
N      0.65352  0.23159  0.55984     N
N      0.65352  0.76841  0.05984     N
Ag     0.65596  0.04164  0.13189    Ag
Ag     0.65596  0.95836  0.63189    Ag
H       0.6626   0.3661   0.3941     H
H       0.6626   0.6339   0.8941     H
C      0.67276   0.2031   0.2554     C
C      0.67276   0.7969   0.7554     C
C      0.67438   0.0408  0.52569     C
C      0.67438   0.9592  0.02569     C
H       0.6765   0.1622    0.331     H
H       0.6765   0.8378    0.831     H
Ag     0.67695  0.25001  0.13235    Ag
Ag     0.67695  0.74999  0.63235    Ag
C      0.67813   0.4569  0.68178     C
C      0.67813   0.5431  0.18178     C
H       0.6784   0.1804   0.6567     H
H       0.6784   0.8196   0.1567     H
H       0.6789   0.0881   0.4546     H
H       0.6789   0.9119   0.9546     H
C      0.67975   0.4974  0.08896     C
C      0.67975   0.5026  0.58896     C
C      0.68211   0.4495  0.00736     C
C      0.68211   0.5505  0.50736     C
C      0.68635   0.3917  0.91899     C
C      0.68635   0.6083  0.41899     C
H       0.6874   0.4252   0.7598     H
H       0.6874   0.5748   0.2598     H
C      0.69213   0.1782  0.02013     C
C      0.69213   0.8218  0.52013     C
C      0.69359    0.007  0.75659     C
C      0.69359    0.993  0.25659     C
C      0.69801   0.1947  0.31435     C
C      0.69801   0.8053  0.81435     C
H       0.6984   0.0424    0.834     H
H       0.6984   0.9576    0.334     H
H       0.6995   0.3456    0.853     H
H       0.6995   0.6544    0.353     H
N      0.69981   0.2498  0.22825     N
N      0.69981   0.7502  0.72825     N
H       0.7014    0.134   0.9502     H
H       0.7014    0.866   0.4502     H
C      0.70144   0.0842  0.49451     C
C      0.70144   0.9158  0.99451     C
N      0.70383  0.03107  0.58266     N
N      0.70383  0.96893  0.08266     N
C      0.70461   0.3889  0.41566     C
C      0.70461   0.6111  0.91566     C
C      0.70578   0.3272  0.50573     C
C      0.70578   0.6728  0.00573     C
C      0.71035   0.2734  0.58824     C
C      0.71035   0.7266  0.08824     C
C      0.71054   0.4486  0.74062     C
C      0.71054   0.5514  0.24062     C
N      0.71091  0.45088  0.06483     N
N      0.71091  0.54912  0.56483     N
C      0.71131   0.4926   0.6525     C
C      0.71131   0.5074   0.1525     C
H       0.7139   0.4391   0.3492     H
H       0.7139   0.5609   0.8492     H
C      0.71538      0.4  0.97817     C
C      0.71538      0.6  0.47817     C
C      0.71602   0.2116  0.67845     C
C      0.71602   0.7884  0.17845     C
C      0.71976   0.3499  0.89295     C
C      0.71976   0.6501  0.39295     C
N      0.71986  0.18532  0.07794     N
N      0.71986  0.81468  0.57794     N
C       0.7222    0.137  0.99024     C
C       0.7222    0.863  0.49024     C
C      0.72243   0.0183  0.81585     C
C      0.72243   0.9817  0.31585     C
N      0.72523   0.0268  0.22813     N
N      0.72523   0.9732  0.72813     N
H       0.7271   0.1714   0.7554     H
H       0.7271   0.8286   0.2554     H
C       0.7357   0.4333  0.38904     C
C       0.7357   0.5667  0.88904     C
C      0.73623    0.378  0.47519     C
C      0.73623    0.622  0.97519     C
N      0.73846   0.3227  0.56327     N
N      0.73846   0.6773  0.06327     N
C      0.74307   0.2635  0.65187     C
C      0.74307   0.7365  0.15187     C
C       0.7457   0.2067  0.73784     C
C       0.7457   0.7933  0.23784     C
C       0.7543   0.2933  0.26216     C
C       0.7543   0.7067  0.76216     C
C      0.75693   0.2365  0.34813     C
C      0.75693   0.7635  0.84813     C
N      0.76154   0.1773  0.43673     N
N      0.76154   0.8227  0.93673     N
C      0.76377    0.122  0.52481     C
C      0.76377    0.878  0.02481     C
C       0.7643   0.0667  0.61096     C
C       0.7643   0.9333  0.11096     C
H       0.7729   0.3286   0.2446     H
H       0.7729   0.6714   0.7446     H
N      0.77477   0.4732  0.77187     N
N      0.77477   0.5268  0.27187     N
C      0.77757   0.4817  0.18415     C
C      0.77757   0.5183  0.68415     C
C       0.7778    0.363  0.00976     C
C       0.7778    0.637  0.50976     C
N      0.78014  0.31468  0.92206     N
N      0.78014  0.68532  0.42206     N
C      0.78024   0.1501  0.10705     C
C      0.78024   0.8499  0.60705     C
C      0.78398   0.2884  0.32155     C
C      0.78398   0.7116  0.82155     C
C      0.78462      0.1  0.02183     C
C      0.78462      0.9  0.52183     C
H       0.7861   0.0609   0.6508     H
H       0.7861   0.9391   0.1508     H
C      0.78869   0.0074   0.3475     C
C      0.78869   0.9926   0.8475     C
N      0.78909  0.04912  0.93517     N
N      0.78909  0.95088  0.43517     N
C      0.78946   0.0514  0.25938     C
C      0.78946   0.9486  0.75938     C
C      0.78965   0.2266  0.41176     C
C      0.78965   0.7734  0.91176     C
C      0.79422   0.1728  0.49427     C
C      0.79422   0.8272  0.99427     C
C      0.79539   0.1111  0.58434     C
C      0.79539   0.8889  0.08434     C
N      0.79617  0.46893  0.41734     N
N      0.79617  0.53107  0.91734     N
C      0.79856   0.4158  0.50549     C
C      0.79856   0.5842  0.00549     C
H       0.7986    0.366   0.0498     H
H       0.7986    0.634   0.5498     H
N      0.80019   0.2502  0.77175     N
N      0.80019   0.7498  0.27175     N
H       0.8005   0.1544    0.147     H
H       0.8005   0.8456    0.647     H
H       0.8016   0.4576    0.166     H
H       0.8016   0.5424    0.666     H
C      0.80199   0.3053  0.68565     C
C      0.80199   0.6947  0.18565     C
C      0.80641    0.493  0.24341     C
C      0.80641    0.507  0.74341     C
C      0.80787   0.3218  0.97987     C
C      0.80787   0.6782  0.47987     C
H       0.8126   0.0748   0.2402     H
H       0.8126   0.9252   0.7402     H
C      0.81365   0.1083  0.08101     C
C      0.81365   0.8917  0.58101     C
C      0.81789   0.0505  0.99264     C
C      0.81789   0.9495  0.49264     C
C      0.82025   0.0026  0.91104     C
C      0.82025   0.9974  0.41104     C
H       0.8211   0.4119   0.5454     H
H       0.8211   0.5881   0.0454     H
H       0.8216   0.3196   0.3433     H
H       0.8216   0.6804   0.8433     H
C      0.82187   0.0431  0.31822     C
C      0.82187   0.9569  0.81822     C
Ag     0.82305  0.24999  0.86765    Ag
Ag     0.82305  0.75001  0.36765    Ag
H       0.8235   0.3378    0.669     H
H       0.8235   0.6622    0.169     H
C      0.82562   0.4592  0.47431     C
C      0.82562   0.5408  0.97431     C
C      0.82724   0.2969   0.7446     C
C      0.82724   0.7031   0.2446     C
H       0.8374   0.1339   0.6059     H
H       0.8374   0.8661   0.1059     H
Ag     0.84404  0.45836  0.86811    Ag
Ag     0.84404  0.54164  0.36811    Ag
N      0.84648  0.26841  0.44016     N
N      0.84648  0.73159  0.94016     N
H       0.8495   0.2977   0.0009     H
H       0.8495   0.7023   0.5009     H
H       0.8505    0.476   0.2645     H
H       0.8505    0.524   0.7645     H
N      0.85189  0.21096  0.52695     N
N      0.85189  0.78904  0.02695     N
H       0.8556   0.0856   0.1031     H
H       0.8556   0.9144   0.6031     H
H       0.8658   0.0615   0.3383     H
H       0.8658   0.9385   0.8383     H
H       0.8659   0.3259   0.7672     H
H       0.8659   0.6741   0.2672     H
H       0.8674   0.4833   0.4946     H
H       0.8674   0.5167   0.9946     H
N       0.8741  0.00982   0.0266     N
N       0.8741  0.99018   0.5266     N
C      0.87572   0.2575  0.49705     C
C      0.87572   0.7425  0.99705     C
N      0.87799  0.03761  0.44064     N
N      0.87799  0.96239  0.94064     N
C      0.90269   0.0309  0.49842     C
C      0.90269   0.9691  0.99842     C
N      0.91322   0.1598  0.90774     N
N      0.91322   0.8402  0.40774     N
H       0.9234   0.1202     0.84     H
H       0.9234   0.1858    0.986     H
H       0.9234   0.8142    0.486     H
H       0.9234   0.8798     0.34     H
N      0.93951  0.38572  0.91219     N
N      0.93951  0.61428  0.41219     N
C      0.93987   0.3025  0.52935     C
C      0.93987   0.6975  0.02935     C
C      0.94322   0.1191  0.88008     C
C      0.94322   0.8809  0.38008     C
C      0.94347   0.1581  0.96589     C
C      0.94347   0.8419  0.46589     C
H       0.9446   0.3994   0.9897     H
H       0.9446   0.6006   0.4897     H
H       0.9456   0.2899   0.6099     H
H       0.9456   0.7101   0.1099     H
H       0.9558   0.3323   0.4598     H
H       0.9558   0.6677   0.9598     H
H       0.9563   0.3634   0.8449     H
H       0.9563   0.6366   0.3449     H
C       0.9668   0.3119   0.5887     C
C       0.9668   0.6881   0.0887     C
C      0.96693    0.377  0.96955     C
C      0.96693    0.623  0.46955     C
C      0.96702   0.0754  0.53241     C
C      0.96702   0.9246  0.03241     C
C      0.97328   0.3366   0.4997     C
C      0.97328   0.6634   0.9997     C
C      0.97349   0.3552  0.88455     C
C      0.97349   0.6448  0.38455     C
H       0.9778   0.1173   0.4631     H
H       0.9778   0.8827   0.9631     H
H       0.9791   0.0469    0.613     H
H       0.9791   0.9531    0.113     H
C      0.99719    0.117   0.5032     C
C      0.99719    0.883   0.0032     C
C       0.9977   0.0755  0.59205     C
C       0.9977   0.9245  0.09205     C
