data_I
_chemical_name_common  '/home/zhangsd/repos/MofS-CGCNN/ML/data/TSD/clean_cifs/QOFCOF_clean'
_cell_length_a 22.01210
_cell_length_b 16.53010
_cell_length_c 25.66410
_cell_angle_alpha 90.00000
_cell_angle_beta  115.38600
_cell_angle_gamma 90.00000
_space_group_name_H-M_alt      'P 1'


loop_
_space_group_symop_operation_xyz
  'x, y, z' 

loop_
_atom_site_label
_atom_site_fract_x
_atom_site_fract_y
_atom_site_fract_z
_atom_site_type_symbol
H       0.0007   0.3842   0.0495     H
H       0.0007   0.6158   0.5495     H
H       0.0015   0.3349   0.8967     H
H       0.0015   0.6651   0.3967     H
C      0.01086    0.128  0.52517     C
C      0.01086    0.872  0.02517     C
C      0.01259   0.3501  0.97803     C
C      0.01259   0.6499  0.47803     C
C      0.01794   0.3582  0.58116     C
C      0.01794   0.6418  0.08116     C
C       0.0184   0.3872  0.49052     C
C       0.0184   0.6128  0.99052     C
H        0.019   0.1149   0.6058     H
H        0.019   0.8851   0.1058     H
H       0.0253   0.1622   0.4547     H
H       0.0253   0.8378   0.9547     H
C       0.0391   0.1384  0.58412     C
C       0.0391   0.8616  0.08412     C
C       0.0429   0.1661  0.49464     C
C       0.0429   0.8339  0.99464     C
C       0.0501   0.0773  0.00587     C
C       0.0501   0.9227  0.50587     C
N      0.07457   0.0392  0.97277     N
N      0.07457   0.9608  0.47277     N
N      0.07492   0.0724  0.06312     N
N      0.07492   0.9276  0.56312     N
C      0.07521   0.3008  0.00726     C
C      0.07521   0.6992  0.50726     C
C      0.07686   0.4005  0.60736     C
C      0.07686   0.5995  0.10736     C
C       0.0779   0.4284   0.5203     C
C       0.0779   0.5716   0.0203     C
H       0.0856   0.0398     0.39     H
H       0.0856   0.9602     0.89     H
H       0.0959   0.0879   0.1689     H
H       0.0959   0.9121   0.6689     H
H       0.0962   0.4056   0.6473     H
H       0.0962   0.5944   0.1473     H
C       0.0968   0.1833  0.61092     C
C       0.0968   0.8167  0.11092     C
N      0.09757   0.2605  0.97338     N
N      0.09757   0.7395  0.47338     N
H       0.0981   0.4529   0.4991     H
H       0.0981   0.5471   0.9991     H
C        0.101   0.2093  0.52529     C
C        0.101   0.7907  0.02529     C
N      0.10392    0.299  0.06458     N
N      0.10392    0.701  0.56458     N
N      0.10831   0.4354  0.57793     N
N      0.10831   0.5646  0.07793     N
H       0.1143   0.2923   0.1662     H
H       0.1143   0.7077   0.6662     H
H       0.1149   0.1894   0.6508     H
H       0.1149   0.8106   0.1508     H
H       0.1159   0.2031   0.8868     H
H       0.1159   0.7969   0.3868     H
H       0.1224   0.2331   0.5048     H
H       0.1224   0.7669   0.0048     H
C        0.128   0.0618  0.41127     C
C        0.128   0.9382  0.91127     C
C      0.12806   0.0237  0.08826     C
C      0.12806   0.9763  0.58826     C
C      0.12825   0.0072  0.50256     C
C      0.12825   0.9928  0.00256     C
N      0.12859   0.2191  0.58231     N
N      0.12859   0.7809  0.08231     N
C       0.1337    0.055   0.1855     C
C       0.1337    0.945   0.6855     C
H       0.1383   0.1127   0.3447     H
H       0.1383   0.8873   0.8447     H
H       0.1504   0.0752   0.2666     H
H       0.1504   0.9248   0.7666     H
C      0.15399   0.2193  0.00136     C
C      0.15399   0.7807  0.50136     C
C       0.1553   0.1746  0.90776     C
C       0.1553   0.8254  0.40776     C
N       0.1559   0.0184  0.55942     N
N       0.1559   0.9816  0.05942     N
C       0.1565   0.2683   0.1841     C
C       0.1565   0.7317   0.6841     C
C      0.15821   0.0133  0.15163     C
C      0.15821   0.9867  0.65163     C
C      0.15897   0.2525  0.08851     C
C      0.15897   0.7475  0.58851     C
C      0.15995   0.0526  0.47042     C
C      0.15995   0.9474  0.97042     C
C       0.1607   0.1048  0.38433     C
C       0.1607   0.8952  0.88433     C
H       0.1637   0.2748   0.2638     H
H       0.1637   0.7252   0.7638     H
H       0.1659   0.1296   0.8399     H
H       0.1659   0.8704   0.3399     H
C       0.1668   0.0465   0.2442     C
C       0.1668   0.9535   0.7442     C
H       0.1784   0.3257   0.7403     H
H       0.1784   0.6743   0.2403     H
C      0.18403   0.1749  0.96727     C
C      0.18403   0.8251  0.46727     C
C       0.1864    0.131  0.87999     C
C       0.1864    0.869  0.37999     C
C       0.1867   0.2573   0.2428     C
C       0.1867   0.7427   0.7428     C
N      0.18686   0.2127  0.05897     N
N      0.18686   0.7873  0.55897     N
H       0.1879   0.4349   0.0141     H
H       0.1879   0.5651   0.5141     H
C       0.1904   0.2426  0.15193     C
C       0.1904   0.7574  0.65193     C
Ag     0.20518  0.49904  0.13231    Ag
Ag     0.20518  0.50096  0.63231    Ag
H       0.2055   0.3513   0.5102     H
H       0.2055   0.6487   0.0102     H
C       0.2121   0.0379   0.6784     C
C       0.2121   0.9621   0.1784     C
C       0.2204   0.3017   0.7594     C
C       0.2204   0.6983   0.2594     C
N       0.2211   0.0002  0.77175     N
N       0.2211   0.9998  0.27175     N
N      0.22223   0.1354  0.41198     N
N      0.22223   0.8646  0.91198     N
H       0.2225   0.4207   0.2451     H
H       0.2225   0.5793   0.7451     H
H       0.2231   0.3106   0.8388     H
H       0.2231   0.6894   0.3388     H
C       0.2233   0.0863  0.49984     C
C       0.2233   0.9137  0.99984     C
Ag     0.22608  0.29117  0.63175    Ag
Ag     0.22608  0.70883  0.13175    Ag
C       0.2281   0.4074  0.03433     C
C       0.2281   0.5926  0.53433     C
H       0.2284   0.0683   0.6566     H
H       0.2284   0.9317   0.1566     H
H       0.2358   0.3668   0.9631     H
H       0.2358   0.6332   0.4631     H
C       0.2417   0.0437   0.7376     C
C       0.2417   0.9563   0.2376     C
C      0.24355   0.1335  0.99678     C
C      0.24355   0.8665  0.49678     C
N      0.24452   0.0905  0.90771     N
N      0.24452   0.9095  0.40771     N
H       0.2461   0.0817   0.5397     H
H       0.2461   0.9183   0.0397     H
N      0.24695   0.2232  0.27181     N
N      0.24695   0.7768  0.77181     N
C       0.2471   0.2928  0.81876     C
C       0.2471   0.7072  0.31876     C
C        0.248   0.3736   0.5305     C
C        0.248   0.6264   0.0305     C
C        0.252   0.1264   0.4695     C
C        0.252   0.8736   0.9695     C
C       0.2529   0.2072  0.18124     C
C       0.2529   0.7928  0.68124     C
N      0.25305   0.2768  0.72819     N
N      0.25305   0.7232  0.22819     N
H       0.2539   0.4183   0.4603     H
H       0.2539   0.5817   0.9603     H
N      0.25548   0.4095  0.09229     N
N      0.25548   0.5905  0.59229     N
C      0.25645   0.3665  0.00322     C
C      0.25645   0.6335  0.50322     C
C       0.2583   0.4563   0.2624     C
C       0.2583   0.5437   0.7624     C
H       0.2642   0.1332   0.0369     H
H       0.2642   0.8668   0.5369     H
H       0.2716   0.4317   0.3434     H
H       0.2716   0.5683   0.8434     H
C       0.2719   0.0926  0.96567     C
C       0.2719   0.9074  0.46567     C
Ag     0.27392  0.20883  0.36825    Ag
Ag     0.27392  0.79117  0.86825    Ag
C       0.2767   0.4137  0.50016     C
C       0.2767   0.5863  0.00016     C
H       0.2769   0.1894   0.1612     H
H       0.2769   0.8106   0.6612     H
H       0.2775   0.0793   0.7549     H
H       0.2775   0.9207   0.2549     H
N      0.27777   0.3646  0.58802     N
N      0.27777   0.6354  0.08802     N
N       0.2789   0.4998  0.22825     N
N       0.2789   0.5002  0.72825     N
C       0.2796   0.1983   0.2406     C
C       0.2796   0.8017   0.7406     C
C       0.2879   0.4621   0.3216     C
C       0.2879   0.5379   0.8216     C
H       0.2945   0.1487   0.4898     H
H       0.2945   0.8513   0.9898     H
Ag     0.29482  0.00096  0.86769    Ag
Ag     0.29482  0.99904  0.36769    Ag
C       0.3096   0.2574  0.84807     C
C       0.3096   0.7426  0.34807     C
H       0.3121   0.0651   0.9859     H
H       0.3121   0.9349   0.4859     H
N      0.31314   0.2873  0.94103     N
N      0.31314   0.7127  0.44103     N
C       0.3133   0.2427   0.7572     C
C       0.3133   0.7573   0.2572     C
C       0.3136    0.369  0.12001     C
C       0.3136    0.631  0.62001     C
C      0.31597   0.3251  0.03273     C
C      0.31597   0.6749  0.53273     C
H       0.3216   0.1743   0.2597     H
H       0.3216   0.8257   0.7597     H
C       0.3332   0.4535   0.7558     C
C       0.3332   0.5465   0.2558     C
H       0.3341   0.3704   0.1601     H
H       0.3341   0.6296   0.6601     H
H       0.3363   0.2252   0.7362     H
H       0.3363   0.7748   0.2362     H
C       0.3393   0.3952  0.61567     C
C       0.3393   0.6048  0.11567     C
C      0.34005   0.4474  0.52958     C
C      0.34005   0.5526  0.02958     C
C      0.34103   0.2475  0.91149     C
C      0.34103   0.7525  0.41149     C
C      0.34179   0.4867  0.84837     C
C      0.34179   0.5133  0.34837     C
C       0.3435   0.2317   0.8159     C
C       0.3435   0.7683   0.3159     C
N       0.3441   0.4816  0.44058     N
N       0.3441   0.5184  0.94058     N
C       0.3447   0.3254  0.09224     C
C       0.3447   0.6746  0.59224     C
C      0.34601   0.2807  0.99864     C
C      0.34601   0.7193  0.49864     C
H       0.3496   0.4248   0.7334     H
H       0.3496   0.5752   0.2334     H
H       0.3617   0.3873   0.6553     H
H       0.3617   0.6127   0.1553     H
C       0.3663    0.445   0.8145     C
C       0.3663    0.555   0.3145     C
N      0.37141   0.2809  0.41769     N
N      0.37141   0.7191  0.91769     N
C      0.37175   0.4928  0.49744     C
C      0.37175   0.5072  0.99744     C
C      0.37194   0.4763  0.91174     C
C      0.37194   0.5237  0.41174     C
C        0.372   0.4382  0.58873     C
C        0.372   0.5618  0.08873     C
H       0.3776   0.2669   0.4952     H
H       0.3776   0.7331   0.9952     H
H       0.3841   0.2969   0.1132     H
H       0.3841   0.7031   0.6132     H
H       0.3851   0.3106   0.3492     H
H       0.3851   0.6894   0.8492     H
H       0.3857   0.2077   0.8338     H
H       0.3857   0.7923   0.3338     H
N      0.39169   0.0646  0.42207     N
N      0.39169   0.9354  0.92207     N
N      0.39608    0.201  0.93542     N
N      0.39608    0.799  0.43542     N
C        0.399   0.2907  0.47471     C
C        0.399   0.7093  0.97471     C
H       0.4019   0.0471   0.5009     H
H       0.4019   0.9529   0.0009     H
N      0.40243   0.2395  0.02662     N
N      0.40243   0.7605  0.52662     N
C       0.4032   0.3167  0.38908     C
C       0.4032   0.6833  0.88908     C
H       0.4038   0.0944   0.3527     H
H       0.4038   0.9056   0.8527     H
H       0.4041   0.4121   0.8311     H
H       0.4041   0.5879   0.3311     H
H       0.4144   0.4602     0.61     H
H       0.4144   0.5398     0.11     H
C       0.4221   0.0716   0.4797     C
C       0.4221   0.9284   0.9797     C
C      0.42314   0.0995  0.39264     C
C      0.42314   0.9005  0.89264     C
C      0.42479   0.1992  0.99274     C
C      0.42479   0.8008  0.49274     C
N      0.42508   0.4276  0.93688     N
N      0.42508   0.5724  0.43688     N
N      0.42543   0.4608  0.02723     N
N      0.42543   0.5392  0.52723     N
C       0.4499   0.4227  0.99413     C
C       0.4499   0.5773  0.49413     C
C       0.4571   0.3339  0.50536     C
C       0.4571   0.6661  0.00536     C
C       0.4609   0.3616  0.41588     C
C       0.4609   0.6384  0.91588     C
H       0.4747   0.3378   0.5453     H
H       0.4747   0.6622   0.0453     H
H        0.481   0.3851   0.3942     H
H        0.481   0.6149   0.8942     H
C       0.4816   0.1128  0.50948     C
C       0.4816   0.8872  0.00948     C
C      0.48206   0.1418  0.41884     C
C      0.48206   0.8582  0.91884     C
C      0.48741   0.1499  0.02197     C
C      0.48741   0.8501  0.52197     C
C      0.48914    0.372  0.47483     C
C      0.48914    0.628  0.97483     C
H       0.4985   0.1651   0.1033     H
H       0.4985   0.8349   0.6033     H
H       0.4993   0.1158   0.9505     H
H       0.4993   0.8842   0.4505     H
H       0.5007   0.1158   0.5495     H
H       0.5007   0.8842   0.0495     H
H       0.5015   0.1651   0.3967     H
H       0.5015   0.8349   0.8967     H
C      0.51086    0.372  0.02517     C
C      0.51086    0.628  0.52517     C
C      0.51259   0.1499  0.47803     C
C      0.51259   0.8501  0.97803     C
C      0.51794   0.1418  0.08116     C
C      0.51794   0.8582  0.58116     C
C       0.5184   0.1128  0.99052     C
C       0.5184   0.8872  0.49052     C
H        0.519   0.3851   0.1058     H
H        0.519   0.6149   0.6058     H
H       0.5253   0.3378   0.9547     H
H       0.5253   0.6622   0.4547     H
C       0.5391   0.3616  0.08412     C
C       0.5391   0.6384  0.58412     C
C       0.5429   0.3339  0.99464     C
C       0.5429   0.6661  0.49464     C
C       0.5501   0.4227  0.50587     C
C       0.5501   0.5773  0.00587     C
N      0.57457   0.4608  0.47277     N
N      0.57457   0.5392  0.97277     N
N      0.57492   0.4276  0.56312     N
N      0.57492   0.5724  0.06312     N
C      0.57521   0.1992  0.50726     C
C      0.57521   0.8008  0.00726     C
C      0.57686   0.0995  0.10736     C
C      0.57686   0.9005  0.60736     C
C       0.5779   0.0716   0.0203     C
C       0.5779   0.9284   0.5203     C
H       0.5856   0.4602     0.89     H
H       0.5856   0.5398     0.39     H
H       0.5959   0.4121   0.6689     H
H       0.5959   0.5879   0.1689     H
H       0.5962   0.0944   0.1473     H
H       0.5962   0.9056   0.6473     H
C       0.5968   0.3167  0.11092     C
C       0.5968   0.6833  0.61092     C
N      0.59757   0.2395  0.47338     N
N      0.59757   0.7605  0.97338     N
H       0.5981   0.0471   0.9991     H
H       0.5981   0.9529   0.4991     H
C        0.601   0.2907  0.02529     C
C        0.601   0.7093  0.52529     C
N      0.60392    0.201  0.56458     N
N      0.60392    0.799  0.06458     N
N      0.60831   0.0646  0.07793     N
N      0.60831   0.9354  0.57793     N
H       0.6143   0.2077   0.6662     H
H       0.6143   0.7923   0.1662     H
H       0.6149   0.3106   0.1508     H
H       0.6149   0.6894   0.6508     H
H       0.6159   0.2969   0.3868     H
H       0.6159   0.7031   0.8868     H
H       0.6224   0.2669   0.0048     H
H       0.6224   0.7331   0.5048     H
C        0.628   0.4382  0.91127     C
C        0.628   0.5618  0.41127     C
C      0.62806   0.4763  0.58826     C
C      0.62806   0.5237  0.08826     C
C      0.62825   0.4928  0.00256     C
C      0.62825   0.5072  0.50256     C
N      0.62859   0.2809  0.08231     N
N      0.62859   0.7191  0.58231     N
C       0.6337    0.445   0.6855     C
C       0.6337    0.555   0.1855     C
H       0.6383   0.3873   0.8447     H
H       0.6383   0.6127   0.3447     H
H       0.6504   0.4248   0.7666     H
H       0.6504   0.5752   0.2666     H
C      0.65399   0.2807  0.50136     C
C      0.65399   0.7193  0.00136     C
C       0.6553   0.3254  0.40776     C
C       0.6553   0.6746  0.90776     C
N       0.6559   0.4816  0.05942     N
N       0.6559   0.5184  0.55942     N
C       0.6565   0.2317   0.6841     C
C       0.6565   0.7683   0.1841     C
C      0.65821   0.4867  0.65163     C
C      0.65821   0.5133  0.15163     C
C      0.65897   0.2475  0.58851     C
C      0.65897   0.7525  0.08851     C
C      0.65995   0.4474  0.97042     C
C      0.65995   0.5526  0.47042     C
C       0.6607   0.3952  0.88433     C
C       0.6607   0.6048  0.38433     C
H       0.6637   0.2252   0.7638     H
H       0.6637   0.7748   0.2638     H
H       0.6659   0.3704   0.3399     H
H       0.6659   0.6296   0.8399     H
C       0.6668   0.4535   0.7442     C
C       0.6668   0.5465   0.2442     C
H       0.6784   0.1743   0.2403     H
H       0.6784   0.8257   0.7403     H
C      0.68403   0.3251  0.46727     C
C      0.68403   0.6749  0.96727     C
C       0.6864    0.369  0.37999     C
C       0.6864    0.631  0.87999     C
C       0.6867   0.2427   0.7428     C
C       0.6867   0.7573   0.2428     C
N      0.68686   0.2873  0.55897     N
N      0.68686   0.7127  0.05897     N
H       0.6879   0.0651   0.5141     H
H       0.6879   0.9349   0.0141     H
C       0.6904   0.2574  0.65193     C
C       0.6904   0.7426  0.15193     C
Ag     0.70518  0.00096  0.63231    Ag
Ag     0.70518  0.99904  0.13231    Ag
H       0.7055   0.1487   0.0102     H
H       0.7055   0.8513   0.5102     H
C       0.7121   0.4621   0.1784     C
C       0.7121   0.5379   0.6784     C
C       0.7204   0.1983   0.2594     C
C       0.7204   0.8017   0.7594     C
N       0.7211   0.4998  0.27175     N
N       0.7211   0.5002  0.77175     N
N      0.72223   0.3646  0.91198     N
N      0.72223   0.6354  0.41198     N
H       0.7225   0.0793   0.7451     H
H       0.7225   0.9207   0.2451     H
H       0.7231   0.1894   0.3388     H
H       0.7231   0.8106   0.8388     H
C       0.7233   0.4137  0.99984     C
C       0.7233   0.5863  0.49984     C
Ag     0.72608  0.20883  0.13175    Ag
Ag     0.72608  0.79117  0.63175    Ag
C       0.7281   0.0926  0.53433     C
C       0.7281   0.9074  0.03433     C
H       0.7284   0.4317   0.1566     H
H       0.7284   0.5683   0.6566     H
H       0.7358   0.1332   0.4631     H
H       0.7358   0.8668   0.9631     H
C       0.7417   0.4563   0.2376     C
C       0.7417   0.5437   0.7376     C
C      0.74355   0.3665  0.49678     C
C      0.74355   0.6335  0.99678     C
N      0.74452   0.4095  0.40771     N
N      0.74452   0.5905  0.90771     N
H       0.7461   0.4183   0.0397     H
H       0.7461   0.5817   0.5397     H
N      0.74695   0.2768  0.77181     N
N      0.74695   0.7232  0.27181     N
C       0.7471   0.2072  0.31876     C
C       0.7471   0.7928  0.81876     C
C        0.748   0.1264   0.0305     C
C        0.748   0.8736   0.5305     C
C        0.752   0.3736   0.9695     C
C        0.752   0.6264   0.4695     C
C       0.7529   0.2928  0.68124     C
C       0.7529   0.7072  0.18124     C
N      0.75305   0.2232  0.22819     N
N      0.75305   0.7768  0.72819     N
H       0.7539   0.0817   0.9603     H
H       0.7539   0.9183   0.4603     H
N      0.75548   0.0905  0.59229     N
N      0.75548   0.9095  0.09229     N
C      0.75645   0.1335  0.50322     C
C      0.75645   0.8665  0.00322     C
C       0.7583   0.0437   0.7624     C
C       0.7583   0.9563   0.2624     C
H       0.7642   0.3668   0.5369     H
H       0.7642   0.6332   0.0369     H
H       0.7716   0.0683   0.8434     H
H       0.7716   0.9317   0.3434     H
C       0.7719   0.4074  0.46567     C
C       0.7719   0.5926  0.96567     C
Ag     0.77392  0.29117  0.86825    Ag
Ag     0.77392  0.70883  0.36825    Ag
C       0.7767   0.0863  0.00016     C
C       0.7767   0.9137  0.50016     C
H       0.7769   0.3106   0.6612     H
H       0.7769   0.6894   0.1612     H
H       0.7775   0.4207   0.2549     H
H       0.7775   0.5793   0.7549     H
N      0.77777   0.1354  0.08802     N
N      0.77777   0.8646  0.58802     N
N       0.7789   0.0002  0.72825     N
N       0.7789   0.9998  0.22825     N
C       0.7796   0.3017   0.7406     C
C       0.7796   0.6983   0.2406     C
C       0.7879   0.0379   0.8216     C
C       0.7879   0.9621   0.3216     C
H       0.7945   0.3513   0.9898     H
H       0.7945   0.6487   0.4898     H
Ag     0.79482  0.49904  0.36769    Ag
Ag     0.79482  0.50096  0.86769    Ag
C       0.8096   0.2426  0.34807     C
C       0.8096   0.7574  0.84807     C
H       0.8121   0.4349   0.4859     H
H       0.8121   0.5651   0.9859     H
N      0.81314   0.2127  0.44103     N
N      0.81314   0.7873  0.94103     N
C       0.8133   0.2573   0.2572     C
C       0.8133   0.7427   0.7572     C
C       0.8136    0.131  0.62001     C
C       0.8136    0.869  0.12001     C
C      0.81597   0.1749  0.53273     C
C      0.81597   0.8251  0.03273     C
H       0.8216   0.3257   0.7597     H
H       0.8216   0.6743   0.2597     H
C       0.8332   0.0465   0.2558     C
C       0.8332   0.9535   0.7558     C
H       0.8341   0.1296   0.6601     H
H       0.8341   0.8704   0.1601     H
H       0.8363   0.2748   0.2362     H
H       0.8363   0.7252   0.7362     H
C       0.8393   0.1048  0.11567     C
C       0.8393   0.8952  0.61567     C
C      0.84005   0.0526  0.02958     C
C      0.84005   0.9474  0.52958     C
C      0.84103   0.2525  0.41149     C
C      0.84103   0.7475  0.91149     C
C      0.84179   0.0133  0.34837     C
C      0.84179   0.9867  0.84837     C
C       0.8435   0.2683   0.3159     C
C       0.8435   0.7317   0.8159     C
N       0.8441   0.0184  0.94058     N
N       0.8441   0.9816  0.44058     N
C       0.8447   0.1746  0.59224     C
C       0.8447   0.8254  0.09224     C
C      0.84601   0.2193  0.49864     C
C      0.84601   0.7807  0.99864     C
H       0.8496   0.0752   0.2334     H
H       0.8496   0.9248   0.7334     H
H       0.8617   0.1127   0.1553     H
H       0.8617   0.8873   0.6553     H
C       0.8663    0.055   0.3145     C
C       0.8663    0.945   0.8145     C
N      0.87141   0.2191  0.91769     N
N      0.87141   0.7809  0.41769     N
C      0.87175   0.0072  0.99744     C
C      0.87175   0.9928  0.49744     C
C      0.87194   0.0237  0.41174     C
C      0.87194   0.9763  0.91174     C
C        0.872   0.0618  0.08873     C
C        0.872   0.9382  0.58873     C
H       0.8776   0.2331   0.9952     H
H       0.8776   0.7669   0.4952     H
H       0.8841   0.2031   0.6132     H
H       0.8841   0.7969   0.1132     H
H       0.8851   0.1894   0.8492     H
H       0.8851   0.8106   0.3492     H
H       0.8857   0.2923   0.3338     H
H       0.8857   0.7077   0.8338     H
N      0.89169   0.4354  0.92207     N
N      0.89169   0.5646  0.42207     N
N      0.89608    0.299  0.43542     N
N      0.89608    0.701  0.93542     N
C        0.899   0.2093  0.97471     C
C        0.899   0.7907  0.47471     C
H       0.9019   0.4529   0.0009     H
H       0.9019   0.5471   0.5009     H
N      0.90243   0.2605  0.52662     N
N      0.90243   0.7395  0.02662     N
C       0.9032   0.1833  0.88908     C
C       0.9032   0.8167  0.38908     C
H       0.9038   0.4056   0.8527     H
H       0.9038   0.5944   0.3527     H
H       0.9041   0.0879   0.3311     H
H       0.9041   0.9121   0.8311     H
H       0.9144   0.0398     0.11     H
H       0.9144   0.9602     0.61     H
C       0.9221   0.4284   0.9797     C
C       0.9221   0.5716   0.4797     C
C      0.92314   0.4005  0.89264     C
C      0.92314   0.5995  0.39264     C
C      0.92479   0.3008  0.49274     C
C      0.92479   0.6992  0.99274     C
N      0.92508   0.0724  0.43688     N
N      0.92508   0.9276  0.93688     N
N      0.92543   0.0392  0.52723     N
N      0.92543   0.9608  0.02723     N
C       0.9499   0.0773  0.49413     C
C       0.9499   0.9227  0.99413     C
C       0.9571   0.1661  0.00536     C
C       0.9571   0.8339  0.50536     C
C       0.9609   0.1384  0.91588     C
C       0.9609   0.8616  0.41588     C
H       0.9747   0.1622   0.0453     H
H       0.9747   0.8378   0.5453     H
H        0.981   0.1149   0.8942     H
H        0.981   0.8851   0.3942     H
C       0.9816   0.3872  0.00948     C
C       0.9816   0.6128  0.50948     C
C      0.98206   0.3582  0.91884     C
C      0.98206   0.6418  0.41884     C
C      0.98741   0.3501  0.52197     C
C      0.98741   0.6499  0.02197     C
C      0.98914    0.128  0.97483     C
C      0.98914    0.872  0.47483     C
H       0.9985   0.3349   0.6033     H
H       0.9985   0.6651   0.1033     H
H       0.9993   0.3842   0.4505     H
H       0.9993   0.6158   0.9505     H
