data_I
_chemical_name_common  '/home/zhangsd/repos/MofS-CGCNN/ML/data/TSD/clean_cifs/QOFCIZ_clean'
_cell_length_a 22.02480
_cell_length_b 16.49330
_cell_length_c 25.67660
_cell_angle_alpha 90.00000
_cell_angle_beta  115.38500
_cell_angle_gamma 90.00000
_space_group_name_H-M_alt      'P 1'


loop_
_space_group_symop_operation_xyz
  'x, y, z' 

loop_
_atom_site_label
_atom_site_fract_x
_atom_site_fract_y
_atom_site_fract_z
_atom_site_type_symbol
H       0.0011   0.1161   0.0497     H
H       0.0011   0.8839   0.5497     H
H        0.002   0.1652    0.897     H
H        0.002   0.8348    0.397     H
C      0.01077    0.372  0.52469     C
C      0.01077    0.628  0.02469     C
C      0.01252   0.1501  0.97817     C
C      0.01252   0.8499  0.47817     C
C      0.01773   0.1422  0.58089     C
C      0.01773   0.8578  0.08089     C
C      0.01815   0.1131  0.49033     C
C      0.01815   0.8869  0.99033     C
H       0.0187   0.3842   0.6057     H
H       0.0187   0.6158   0.1057     H
H       0.0254   0.3381   0.4546     H
H       0.0254   0.6619   0.9546     H
C      0.03898   0.3612  0.58406     C
C      0.03898   0.6388  0.08406     C
C      0.04293   0.3341  0.49449     C
C      0.04293   0.6659  0.99449     C
C      0.04988   0.4227  0.00579     C
C      0.04988   0.5773  0.50579     C
N      0.07468    0.461    0.973     N
N      0.07468    0.539    0.473     N
N      0.07488   0.4275  0.06315     N
N      0.07488   0.5725  0.56315     N
C      0.07522    0.199  0.00741     C
C      0.07522    0.801  0.50741     C
C      0.07731      0.1  0.60731     C
C      0.07731      0.9  0.10731     C
C       0.0779   0.0717  0.52007     C
C       0.0779   0.9283  0.02007     C
H       0.0853   0.4592     0.39     H
H       0.0853   0.5408     0.89     H
H       0.0957   0.4117   0.1688     H
H       0.0957   0.5883   0.6688     H
C      0.09682   0.3164  0.61073     C
C      0.09682   0.6836  0.11073     C
H        0.097   0.0957   0.6473     H
H        0.097   0.9043   0.1473     H
N      0.09751   0.2398  0.97349     N
N      0.09751   0.7602  0.47349     N
H       0.0981   0.0472   0.4989     H
H       0.0981   0.9528   0.9989     H
C       0.1011   0.2906  0.52508     C
C       0.1011   0.7094  0.02508     C
N      0.10405   0.2007  0.06481     N
N      0.10405   0.7993  0.56481     N
N      0.10827   0.0648  0.57788     N
N      0.10827   0.9352  0.07788     N
H       0.1144   0.2079   0.1661     H
H       0.1144   0.7921   0.6661     H
H       0.1149   0.3105   0.6506     H
H       0.1149   0.6895   0.1506     H
H       0.1162   0.2969   0.8868     H
H       0.1162   0.7031   0.3868     H
H       0.1224   0.2666   0.5046     H
H       0.1224   0.7334   0.0046     H
C      0.12797   0.4767  0.08817     C
C      0.12797   0.5233  0.58817     C
C      0.12799   0.4378  0.41131     C
C      0.12799   0.5622  0.91131     C
C      0.12828   0.4928  0.50273     C
C      0.12828   0.5072  0.00273     C
N      0.12875  0.28079  0.58238     N
N      0.12875  0.71921  0.08238     N
C       0.1335   0.4445  0.18542     C
C       0.1335   0.5555  0.68542     C
H       0.1389   0.3879   0.3451     H
H       0.1389   0.6121   0.8451     H
H       0.1511   0.4242   0.2669     H
H       0.1511   0.5758   0.7669     H
C      0.15417   0.2809  0.00159     C
C      0.15417   0.7191  0.50159     C
C       0.1556   0.3254  0.90785     C
C       0.1556   0.6746  0.40785     C
N      0.15627   0.4815  0.55984     N
N      0.15627   0.5185  0.05984     N
C       0.1566   0.2319  0.18412     C
C       0.1566   0.7681  0.68412     C
C      0.15826   0.4866  0.15177     C
C      0.15826   0.5134  0.65177     C
C      0.15874   0.2476  0.08861     C
C      0.15874   0.7524  0.58861     C
C      0.16035   0.4476   0.4706     C
C      0.16035   0.5524   0.9706     C
C      0.16105   0.3953  0.38475     C
C      0.16105   0.6047  0.88475     C
H       0.1637   0.2258   0.2641     H
H       0.1637   0.7742   0.7641     H
H       0.1665   0.3701     0.84     H
H       0.1665   0.6299     0.34     H
C       0.1672   0.4533   0.2444     C
C       0.1672   0.5467   0.7444     C
H       0.1781   0.1746   0.7402     H
H       0.1781   0.8254   0.2402     H
C      0.18396    0.325  0.96714     C
C      0.18396    0.675  0.46714     C
C       0.1867   0.3689   0.8801     C
C       0.1867   0.6311   0.3801     C
C       0.1868   0.2429  0.24319     C
C       0.1868   0.7571  0.74319     C
N      0.18699   0.2874  0.05933     N
N      0.18699   0.7126  0.55933     N
H       0.1877   0.0648   0.0143     H
H       0.1877   0.9352   0.5143     H
C      0.19074   0.2573  0.15224     C
C      0.19074   0.7427  0.65224     C
Ag     0.20528  0.00057   0.1323    Ag
Ag     0.20528  0.99943   0.6323    Ag
H       0.2056   0.1494   0.5103     H
H       0.2056   0.8506   0.0103     H
C       0.2123   0.4616  0.67844     C
C       0.2123   0.5384  0.17844     C
C       0.2202   0.1986  0.75929     C
C       0.2202   0.8014  0.25929     C
N       0.2212   0.4998   0.7718     N
N       0.2212   0.5002   0.2718     N
N      0.22237   0.3644  0.41218     N
N      0.22237   0.6356  0.91218     N
H       0.2225   0.0795   0.2449     H
H       0.2225   0.1898   0.8383     H
H       0.2225   0.8102   0.3383     H
H       0.2225   0.9205   0.7449     H
C      0.22338   0.4133   0.5001     C
C      0.22338   0.5867   0.0001     C
Ag     0.22604  0.20871  0.63175    Ag
Ag     0.22604  0.79129  0.13175    Ag
C      0.22792   0.0923  0.03448     C
C      0.22792   0.9077  0.53448     C
H       0.2285   0.4311   0.6567     H
H       0.2285   0.5689   0.1567     H
H       0.2359   0.1327   0.9633     H
H       0.2359   0.8673   0.4633     H
C       0.2417   0.4561  0.73765     C
C       0.2417   0.5439  0.23765     C
C      0.24352   0.3668  0.99657     C
C      0.24352   0.6332  0.49657     C
N      0.24471   0.4098  0.90804     N
N      0.24471   0.5902  0.40804     N
H       0.2459   0.4175     0.54     H
H       0.2459   0.5825     0.04     H
C       0.2466   0.2074  0.81828     C
C       0.2466   0.7926  0.31828     C
N      0.24701   0.2767  0.27197     N
N      0.24701   0.7233  0.77197     N
C        0.248   0.1269  0.53051     C
C        0.248   0.8731  0.03051     C
C        0.252   0.3731  0.46949     C
C        0.252   0.6269  0.96949     C
N      0.25299   0.2233  0.72803     N
N      0.25299   0.7767  0.22803     N
C       0.2534   0.2926  0.18172     C
C       0.2534   0.7074  0.68172     C
H       0.2541   0.0825     0.46     H
H       0.2541   0.9175     0.96     H
N      0.25529   0.0902  0.09196     N
N      0.25529   0.9098  0.59196     N
C      0.25648   0.1332  0.00343     C
C      0.25648   0.8668  0.50343     C
C       0.2583   0.0439  0.26235     C
C       0.2583   0.9561  0.76235     C
H       0.2641   0.3673   0.0367     H
H       0.2641   0.6327   0.5367     H
H       0.2715   0.0689   0.3433     H
H       0.2715   0.9311   0.8433     H
C      0.27208   0.4077  0.96552     C
C      0.27208   0.5923  0.46552     C
Ag     0.27396  0.29129  0.36825    Ag
Ag     0.27396  0.70871  0.86825    Ag
C      0.27662   0.0867   0.4999     C
C      0.27662   0.9133   0.9999     C
H       0.2775   0.3102   0.1617     H
H       0.2775   0.4205   0.7551     H
H       0.2775   0.5795   0.2551     H
H       0.2775   0.6898   0.6617     H
N      0.27763   0.1356  0.58782     N
N      0.27763   0.8644  0.08782     N
N       0.2788   0.0002   0.2282     N
N       0.2788   0.9998   0.7282     N
C       0.2798   0.3014  0.24071     C
C       0.2798   0.6986  0.74071     C
C       0.2877   0.0384  0.32156     C
C       0.2877   0.9616  0.82156     C
H       0.2944   0.3506   0.4897     H
H       0.2944   0.6494   0.9897     H
Ag     0.29472  0.49943   0.8677    Ag
Ag     0.29472  0.50057   0.3677    Ag
C      0.30926   0.2427  0.84776     C
C      0.30926   0.7573  0.34776     C
H       0.3123   0.4352   0.9857     H
H       0.3123   0.5648   0.4857     H
N      0.31301   0.2126  0.94067     N
N      0.31301   0.7874  0.44067     N
C       0.3132   0.2571  0.75681     C
C       0.3132   0.7429  0.25681     C
C       0.3133   0.1311   0.1199     C
C       0.3133   0.8689   0.6199     C
C      0.31604    0.175  0.03286     C
C      0.31604    0.825  0.53286     C
H       0.3219   0.3254   0.2598     H
H       0.3219   0.6746   0.7598     H
C       0.3328   0.0467   0.7556     C
C       0.3328   0.9533   0.2556     C
H       0.3335   0.1299     0.16     H
H       0.3335   0.8701     0.66     H
H       0.3363   0.2742   0.7359     H
H       0.3363   0.7258   0.2359     H
C      0.33895   0.1047  0.61525     C
C      0.33895   0.8953  0.11525     C
C      0.33965   0.0524   0.5294     C
C      0.33965   0.9476   0.0294     C
C      0.34126   0.2524  0.91139     C
C      0.34126   0.7476  0.41139     C
C      0.34174   0.0134  0.84823     C
C      0.34174   0.9866  0.34823     C
C       0.3434   0.2681  0.81588     C
C       0.3434   0.7319  0.31588     C
N      0.34373   0.0185  0.44016     N
N      0.34373   0.9815  0.94016     N
C       0.3444   0.1746  0.09215     C
C       0.3444   0.8254  0.59215     C
C      0.34583   0.2191  0.99841     C
C      0.34583   0.7809  0.49841     C
H       0.3489   0.0758   0.7331     H
H       0.3489   0.9242   0.2331     H
H       0.3611   0.1121   0.6549     H
H       0.3611   0.8879   0.1549     H
C       0.3665   0.0555  0.81458     C
C       0.3665   0.9445  0.31458     C
N      0.37125  0.21921  0.41762     N
N      0.37125  0.78079  0.91762     N
C      0.37172   0.0072  0.49727     C
C      0.37172   0.9928  0.99727     C
C      0.37201   0.0622  0.58869     C
C      0.37201   0.9378  0.08869     C
C      0.37203   0.0233  0.91183     C
C      0.37203   0.9767  0.41183     C
H       0.3776   0.2334   0.4954     H
H       0.3776   0.7666   0.9954     H
H       0.3838   0.2031   0.1132     H
H       0.3838   0.7969   0.6132     H
H       0.3851   0.1895   0.3494     H
H       0.3851   0.8105   0.8494     H
H       0.3856   0.2921   0.8339     H
H       0.3856   0.7079   0.3339     H
N      0.39173   0.4352  0.42212     N
N      0.39173   0.5648  0.92212     N
N      0.39595   0.2993  0.93519     N
N      0.39595   0.7007  0.43519     N
C       0.3989   0.2094  0.47492     C
C       0.3989   0.7906  0.97492     C
H       0.4019   0.4528   0.5011     H
H       0.4019   0.5472   0.0011     H
N      0.40249   0.2602  0.02651     N
N      0.40249   0.7398  0.52651     N
H        0.403   0.4043   0.3527     H
H        0.403   0.5957   0.8527     H
C      0.40318   0.1836  0.38927     C
C      0.40318   0.8164  0.88927     C
H       0.4043   0.0883   0.8312     H
H       0.4043   0.9117   0.3312     H
H       0.4147   0.0408     0.61     H
H       0.4147   0.9592     0.11     H
C       0.4221   0.4283  0.47993     C
C       0.4221   0.5717  0.97993     C
C      0.42269      0.4  0.39269     C
C      0.42269      0.6  0.89269     C
C      0.42478    0.301  0.99259     C
C      0.42478    0.699  0.49259     C
N      0.42512   0.0725  0.93685     N
N      0.42512   0.9275  0.43685     N
N      0.42532    0.039    0.027     N
N      0.42532    0.961    0.527     N
C      0.45012   0.0773  0.99421     C
C      0.45012   0.9227  0.49421     C
C      0.45707   0.1659  0.50551     C
C      0.45707   0.8341  0.00551     C
C      0.46102   0.1388  0.41594     C
C      0.46102   0.8612  0.91594     C
H       0.4746   0.1619   0.5454     H
H       0.4746   0.8381   0.0454     H
H       0.4813   0.1158   0.3943     H
H       0.4813   0.8842   0.8943     H
C      0.48185   0.3869  0.50967     C
C      0.48185   0.6131  0.00967     C
C      0.48227   0.3578  0.41911     C
C      0.48227   0.6422  0.91911     C
C      0.48748   0.3499  0.02183     C
C      0.48748   0.6501  0.52183     C
C      0.48923    0.128  0.47531     C
C      0.48923    0.872  0.97531     C
H        0.498   0.3348    0.103     H
H        0.498   0.6652    0.603     H
H       0.4989   0.3839   0.9503     H
H       0.4989   0.6161   0.4503     H
H       0.5011   0.3839   0.5497     H
H       0.5011   0.6161   0.0497     H
H        0.502   0.3348    0.397     H
H        0.502   0.6652    0.897     H
C      0.51077    0.128  0.02469     C
C      0.51077    0.872  0.52469     C
C      0.51252   0.3499  0.47817     C
C      0.51252   0.6501  0.97817     C
C      0.51773   0.3578  0.08089     C
C      0.51773   0.6422  0.58089     C
C      0.51815   0.3869  0.99033     C
C      0.51815   0.6131  0.49033     C
H       0.5187   0.1158   0.1057     H
H       0.5187   0.8842   0.6057     H
H       0.5254   0.1619   0.9546     H
H       0.5254   0.8381   0.4546     H
C      0.53898   0.1388  0.08406     C
C      0.53898   0.8612  0.58406     C
C      0.54293   0.1659  0.99449     C
C      0.54293   0.8341  0.49449     C
C      0.54988   0.0773  0.50579     C
C      0.54988   0.9227  0.00579     C
N      0.57468    0.039    0.473     N
N      0.57468    0.961    0.973     N
N      0.57488   0.0725  0.56315     N
N      0.57488   0.9275  0.06315     N
C      0.57522    0.301  0.50741     C
C      0.57522    0.699  0.00741     C
C      0.57731      0.4  0.10731     C
C      0.57731      0.6  0.60731     C
C       0.5779   0.4283  0.02007     C
C       0.5779   0.5717  0.52007     C
H       0.5853   0.0408     0.89     H
H       0.5853   0.9592     0.39     H
H       0.5957   0.0883   0.6688     H
H       0.5957   0.9117   0.1688     H
C      0.59682   0.1836  0.11073     C
C      0.59682   0.8164  0.61073     C
H        0.597   0.4043   0.1473     H
H        0.597   0.5957   0.6473     H
N      0.59751   0.2602  0.47349     N
N      0.59751   0.7398  0.97349     N
H       0.5981   0.4528   0.9989     H
H       0.5981   0.5472   0.4989     H
C       0.6011   0.2094  0.02508     C
C       0.6011   0.7906  0.52508     C
N      0.60405   0.2993  0.56481     N
N      0.60405   0.7007  0.06481     N
N      0.60827   0.4352  0.07788     N
N      0.60827   0.5648  0.57788     N
H       0.6144   0.2921   0.6661     H
H       0.6144   0.7079   0.1661     H
H       0.6149   0.1895   0.1506     H
H       0.6149   0.8105   0.6506     H
H       0.6162   0.2031   0.3868     H
H       0.6162   0.7969   0.8868     H
H       0.6224   0.2334   0.0046     H
H       0.6224   0.7666   0.5046     H
C      0.62797   0.0233  0.58817     C
C      0.62797   0.9767  0.08817     C
C      0.62799   0.0622  0.91131     C
C      0.62799   0.9378  0.41131     C
C      0.62828   0.0072  0.00273     C
C      0.62828   0.9928  0.50273     C
N      0.62875  0.21921  0.08238     N
N      0.62875  0.78079  0.58238     N
C       0.6335   0.0555  0.68542     C
C       0.6335   0.9445  0.18542     C
H       0.6389   0.1121   0.8451     H
H       0.6389   0.8879   0.3451     H
H       0.6511   0.0758   0.7669     H
H       0.6511   0.9242   0.2669     H
C      0.65417   0.2191  0.50159     C
C      0.65417   0.7809  0.00159     C
C       0.6556   0.1746  0.40785     C
C       0.6556   0.8254  0.90785     C
N      0.65627   0.0185  0.05984     N
N      0.65627   0.9815  0.55984     N
C       0.6566   0.2681  0.68412     C
C       0.6566   0.7319  0.18412     C
C      0.65826   0.0134  0.65177     C
C      0.65826   0.9866  0.15177     C
C      0.65874   0.2524  0.58861     C
C      0.65874   0.7476  0.08861     C
C      0.66035   0.0524   0.9706     C
C      0.66035   0.9476   0.4706     C
C      0.66105   0.1047  0.88475     C
C      0.66105   0.8953  0.38475     C
H       0.6637   0.2742   0.7641     H
H       0.6637   0.7258   0.2641     H
H       0.6665   0.1299     0.34     H
H       0.6665   0.8701     0.84     H
C       0.6672   0.0467   0.7444     C
C       0.6672   0.9533   0.2444     C
H       0.6781   0.3254   0.2402     H
H       0.6781   0.6746   0.7402     H
C      0.68396    0.175  0.46714     C
C      0.68396    0.825  0.96714     C
C       0.6867   0.1311   0.3801     C
C       0.6867   0.8689   0.8801     C
C       0.6868   0.2571  0.74319     C
C       0.6868   0.7429  0.24319     C
N      0.68699   0.2126  0.55933     N
N      0.68699   0.7874  0.05933     N
H       0.6877   0.4352   0.5143     H
H       0.6877   0.5648   0.0143     H
C      0.69074   0.2427  0.65224     C
C      0.69074   0.7573  0.15224     C
Ag     0.70528  0.49943   0.6323    Ag
Ag     0.70528  0.50057   0.1323    Ag
H       0.7056   0.3506   0.0103     H
H       0.7056   0.6494   0.5103     H
C       0.7123   0.0384  0.17844     C
C       0.7123   0.9616  0.67844     C
C       0.7202   0.3014  0.25929     C
C       0.7202   0.6986  0.75929     C
N       0.7212   0.0002   0.2718     N
N       0.7212   0.9998   0.7718     N
N      0.72237   0.1356  0.91218     N
N      0.72237   0.8644  0.41218     N
H       0.7225   0.3102   0.3383     H
H       0.7225   0.4205   0.7449     H
H       0.7225   0.5795   0.2449     H
H       0.7225   0.6898   0.8383     H
C      0.72338   0.0867   0.0001     C
C      0.72338   0.9133   0.5001     C
Ag     0.72604  0.29129  0.13175    Ag
Ag     0.72604  0.70871  0.63175    Ag
C      0.72792   0.4077  0.53448     C
C      0.72792   0.5923  0.03448     C
H       0.7285   0.0689   0.1567     H
H       0.7285   0.9311   0.6567     H
H       0.7359   0.3673   0.4633     H
H       0.7359   0.6327   0.9633     H
C       0.7417   0.0439  0.23765     C
C       0.7417   0.9561  0.73765     C
C      0.74352   0.1332  0.49657     C
C      0.74352   0.8668  0.99657     C
N      0.74471   0.0902  0.40804     N
N      0.74471   0.9098  0.90804     N
H       0.7459   0.0825     0.04     H
H       0.7459   0.9175     0.54     H
C       0.7466   0.2926  0.31828     C
C       0.7466   0.7074  0.81828     C
N      0.74701   0.2233  0.77197     N
N      0.74701   0.7767  0.27197     N
C        0.748   0.3731  0.03051     C
C        0.748   0.6269  0.53051     C
C        0.752   0.1269  0.96949     C
C        0.752   0.8731  0.46949     C
N      0.75299   0.2767  0.22803     N
N      0.75299   0.7233  0.72803     N
C       0.7534   0.2074  0.68172     C
C       0.7534   0.7926  0.18172     C
H       0.7541   0.4175     0.96     H
H       0.7541   0.5825     0.46     H
N      0.75529   0.4098  0.59196     N
N      0.75529   0.5902  0.09196     N
C      0.75648   0.3668  0.50343     C
C      0.75648   0.6332  0.00343     C
C       0.7583   0.4561  0.76235     C
C       0.7583   0.5439  0.26235     C
H       0.7641   0.1327   0.5367     H
H       0.7641   0.8673   0.0367     H
H       0.7715   0.4311   0.8433     H
H       0.7715   0.5689   0.3433     H
C      0.77208   0.0923  0.46552     C
C      0.77208   0.9077  0.96552     C
Ag     0.77396  0.20871  0.86825    Ag
Ag     0.77396  0.79129  0.36825    Ag
C      0.77662   0.4133   0.9999     C
C      0.77662   0.5867   0.4999     C
H       0.7775   0.0795   0.2551     H
H       0.7775   0.1898   0.6617     H
H       0.7775   0.8102   0.1617     H
H       0.7775   0.9205   0.7551     H
N      0.77763   0.3644  0.08782     N
N      0.77763   0.6356  0.58782     N
N       0.7788   0.4998   0.7282     N
N       0.7788   0.5002   0.2282     N
C       0.7798   0.1986  0.74071     C
C       0.7798   0.8014  0.24071     C
C       0.7877   0.4616  0.82156     C
C       0.7877   0.5384  0.32156     C
H       0.7944   0.1494   0.9897     H
H       0.7944   0.8506   0.4897     H
Ag     0.79472  0.00057   0.3677    Ag
Ag     0.79472  0.99943   0.8677    Ag
C      0.80926   0.2573  0.34776     C
C      0.80926   0.7427  0.84776     C
H       0.8123   0.0648   0.4857     H
H       0.8123   0.9352   0.9857     H
N      0.81301   0.2874  0.44067     N
N      0.81301   0.7126  0.94067     N
C       0.8132   0.2429  0.25681     C
C       0.8132   0.7571  0.75681     C
C       0.8133   0.3689   0.6199     C
C       0.8133   0.6311   0.1199     C
C      0.81604    0.325  0.53286     C
C      0.81604    0.675  0.03286     C
H       0.8219   0.1746   0.7598     H
H       0.8219   0.8254   0.2598     H
C       0.8328   0.4533   0.2556     C
C       0.8328   0.5467   0.7556     C
H       0.8335   0.3701     0.66     H
H       0.8335   0.6299     0.16     H
H       0.8363   0.2258   0.2359     H
H       0.8363   0.7742   0.7359     H
C      0.83895   0.3953  0.11525     C
C      0.83895   0.6047  0.61525     C
C      0.83965   0.4476   0.0294     C
C      0.83965   0.5524   0.5294     C
C      0.84126   0.2476  0.41139     C
C      0.84126   0.7524  0.91139     C
C      0.84174   0.4866  0.34823     C
C      0.84174   0.5134  0.84823     C
C       0.8434   0.2319  0.31588     C
C       0.8434   0.7681  0.81588     C
N      0.84373   0.4815  0.94016     N
N      0.84373   0.5185  0.44016     N
C       0.8444   0.3254  0.59215     C
C       0.8444   0.6746  0.09215     C
C      0.84583   0.2809  0.49841     C
C      0.84583   0.7191  0.99841     C
H       0.8489   0.4242   0.2331     H
H       0.8489   0.5758   0.7331     H
H       0.8611   0.3879   0.1549     H
H       0.8611   0.6121   0.6549     H
C       0.8665   0.4445  0.31458     C
C       0.8665   0.5555  0.81458     C
N      0.87125  0.28079  0.91762     N
N      0.87125  0.71921  0.41762     N
C      0.87172   0.4928  0.99727     C
C      0.87172   0.5072  0.49727     C
C      0.87201   0.4378  0.08869     C
C      0.87201   0.5622  0.58869     C
C      0.87203   0.4767  0.41183     C
C      0.87203   0.5233  0.91183     C
H       0.8776   0.2666   0.9954     H
H       0.8776   0.7334   0.4954     H
H       0.8838   0.2969   0.6132     H
H       0.8838   0.7031   0.1132     H
H       0.8851   0.3105   0.8494     H
H       0.8851   0.6895   0.3494     H
H       0.8856   0.2079   0.3339     H
H       0.8856   0.7921   0.8339     H
N      0.89173   0.0648  0.92212     N
N      0.89173   0.9352  0.42212     N
N      0.89595   0.2007  0.43519     N
N      0.89595   0.7993  0.93519     N
C       0.8989   0.2906  0.97492     C
C       0.8989   0.7094  0.47492     C
H       0.9019   0.0472   0.0011     H
H       0.9019   0.9528   0.5011     H
N      0.90249   0.2398  0.52651     N
N      0.90249   0.7602  0.02651     N
H        0.903   0.0957   0.8527     H
H        0.903   0.9043   0.3527     H
C      0.90318   0.3164  0.88927     C
C      0.90318   0.6836  0.38927     C
H       0.9043   0.4117   0.3312     H
H       0.9043   0.5883   0.8312     H
H       0.9147   0.4592     0.11     H
H       0.9147   0.5408     0.61     H
C       0.9221   0.0717  0.97993     C
C       0.9221   0.9283  0.47993     C
C      0.92269      0.1  0.89269     C
C      0.92269      0.9  0.39269     C
C      0.92478    0.199  0.49259     C
C      0.92478    0.801  0.99259     C
N      0.92512   0.4275  0.43685     N
N      0.92512   0.5725  0.93685     N
N      0.92532    0.461    0.527     N
N      0.92532    0.539    0.027     N
C      0.95012   0.4227  0.49421     C
C      0.95012   0.5773  0.99421     C
C      0.95707   0.3341  0.00551     C
C      0.95707   0.6659  0.50551     C
C      0.96102   0.3612  0.91594     C
C      0.96102   0.6388  0.41594     C
H       0.9746   0.3381   0.0454     H
H       0.9746   0.6619   0.5454     H
H       0.9813   0.3842   0.8943     H
H       0.9813   0.6158   0.3943     H
C      0.98185   0.1131  0.00967     C
C      0.98185   0.8869  0.50967     C
C      0.98227   0.1422  0.91911     C
C      0.98227   0.8578  0.41911     C
C      0.98748   0.1501  0.52183     C
C      0.98748   0.8499  0.02183     C
C      0.98923    0.372  0.97531     C
C      0.98923    0.628  0.47531     C
H        0.998   0.1652    0.603     H
H        0.998   0.8348    0.103     H
H       0.9989   0.1161   0.4503     H
H       0.9989   0.8839   0.9503     H
