data_I
_chemical_name_common  '/home/zhangsd/repos/MofS-CGCNN/ML/data/TSD/clean_cifs/QOFDIA07_clean'
_cell_length_a 21.98670
_cell_length_b 16.59160
_cell_length_c 25.55200
_cell_angle_alpha 90.00000
_cell_angle_beta  115.20300
_cell_angle_gamma 90.00000
_space_group_name_H-M_alt      'P 1'


loop_
_space_group_symop_operation_xyz
  'x, y, z' 

loop_
_atom_site_label
_atom_site_fract_x
_atom_site_fract_y
_atom_site_fract_z
_atom_site_type_symbol
C        0.002    0.072   0.4057     C
C        0.002    0.928   0.9057     C
C       0.0038   0.1153   0.4951     C
C       0.0038   0.8847   0.9951     C
H       0.0197   0.0423   0.3846     H
H       0.0197   0.9577   0.8846     H
H       0.0237   0.1169   0.5353     H
H       0.0237   0.8831   0.0353     H
C       0.0256   0.3351    0.498     C
C       0.0256   0.6649    0.998     C
C       0.0267   0.3528   0.1172     C
C       0.0267   0.6472   0.6172     C
C       0.0329    0.311   0.4101     C
C       0.0329    0.689   0.9101     C
C        0.033   0.3744   0.0321     C
C        0.033   0.6256   0.5321     C
C       0.0333   0.0725   0.4655     C
C       0.0333   0.9275   0.9655     C
H       0.0429   0.3308   0.5381     H
H       0.0429   0.6692   0.0381     H
H       0.0441   0.3603    0.157     H
H       0.0441   0.6397    0.657     H
H       0.0545   0.2898   0.3888     H
H       0.0545   0.7102   0.8888     H
H       0.0552   0.3968   0.0116     H
H       0.0552   0.6032   0.5116     H
C       0.0559   0.1163   0.1219     C
C       0.0559   0.1558   0.0364     C
C       0.0559   0.8442   0.5364     C
C       0.0559   0.8837   0.6219     C
C       0.0596   0.3014   0.4684     C
C       0.0596   0.6986   0.9684     C
N       0.0606   0.3827    0.089     N
N       0.0606   0.6173    0.589     N
H       0.0752   0.1183   0.1621     H
H       0.0752   0.8817   0.6621     H
H       0.0759   0.1838   0.0163     H
H       0.0759   0.8162   0.5163     H
N       0.0863   0.1567   0.0942     N
N       0.0863   0.8433   0.5942     N
C       0.0978   0.0295   0.4994     C
C       0.0978   0.9705   0.9994     C
N       0.1227   0.0367   0.5573     N
N       0.1227   0.9633   0.0573     N
C       0.1237   0.2559   0.5012     C
C       0.1237   0.7441   0.0012     C
N       0.1256   0.0127   0.9718     N
N       0.1256   0.9873   0.4718     N
H       0.1324   0.4816   0.5061     H
H       0.1324   0.5184   0.0061     H
H       0.1327   0.3192   0.2341     H
H       0.1327   0.6808   0.7341     H
H       0.1349   0.0619   0.6596     H
H       0.1349   0.9381   0.1596     H
H       0.1442   0.0878   0.8947     H
H       0.1442   0.9122   0.3947     H
N       0.1479   0.2101   0.4713     N
N       0.1479   0.7899   0.9713     N
H       0.1489   0.4784   0.7374     H
H       0.1489   0.5216   0.2374     H
H       0.1513   0.2946   0.0007     H
H       0.1513   0.7054   0.5007     H
N       0.1527   0.2669   0.5582     N
N       0.1527   0.7331   0.0582     N
Ag     0.15573  0.45709  0.13275    Ag
Ag     0.15573  0.54291  0.63275    Ag
H       0.1618   0.1318   0.3923     H
H       0.1618   0.8682   0.8923     H
C       0.1719   0.2915   0.2568     C
C       0.1719   0.7085   0.7568     C
C       0.1747    0.459   0.5266     C
C       0.1747    0.541   0.0266     C
H       0.1756   0.3322   0.3325     H
H       0.1756   0.6678   0.8325     H
H       0.1758   0.3172    0.655     H
H       0.1758   0.6828    0.155     H
Ag     0.17779  0.24492  0.13326    Ag
Ag     0.17779  0.75508  0.63326    Ag
C       0.1789   0.0441   0.6798     C
C       0.1789   0.9559   0.1798     C
C       0.1801   0.0023   0.0867     C
C       0.1801   0.9977   0.5867     C
H       0.1806   0.4125    0.456     H
H       0.1806   0.5875    0.956     H
C       0.1818   0.0525   0.0055     C
C       0.1818   0.9475   0.5055     C
C        0.186   0.1103   0.9172     C
C        0.186   0.8897   0.4172     C
H       0.1885   0.0778   0.7581     H
H       0.1885   0.9222   0.2581     H
C       0.1926   0.3193   0.0217     C
C       0.1926   0.6807   0.5217     C
C       0.1932    0.495   0.7584     C
C       0.1932    0.505   0.2584     C
C       0.1979   0.3009    0.316     C
C       0.1979   0.6991    0.816     C
H       0.1982   0.4591   0.8357     H
H       0.1982   0.5409   0.3357     H
N       0.1995   0.2451   0.2303     N
N       0.1995   0.7549   0.7303     N
H       0.2004   0.1581   0.8511     H
H       0.2004   0.8419   0.3511     H
H       0.2021    0.365   0.9515     H
H       0.2021    0.635   0.4515     H
C       0.2026   0.4164   0.4961     C
C       0.2026   0.5836   0.9961     C
C       0.2039   0.1095    0.414     C
C       0.2039   0.8905    0.914     C
N       0.2046   0.4698   0.5835     N
N       0.2046   0.5302   0.0835     N
C        0.205   0.1723   0.5036     C
C        0.205   0.8277   0.0036     C
C         0.21   0.2262   0.5864     C
C         0.21   0.7738   0.0864     C
N       0.2111   0.0499   0.0635     N
N       0.2111   0.9501   0.5635     N
C       0.2114   0.0534    0.739     C
C       0.2114   0.9466    0.239     C
C       0.2123   0.0082    0.651     C
C       0.2123   0.9918    0.151     C
H       0.2143   0.0585   0.3478     H
H       0.2143   0.9415   0.8478     H
C       0.2145    0.288   0.6767     C
C       0.2145    0.712   0.1767     C
C       0.2147   0.1013   0.9766     C
C       0.2147   0.8987   0.4766     C
C       0.2201    0.153   0.8912     C
C       0.2201    0.847   0.3912     C
N       0.2202    0.313   0.0788     N
N       0.2202    0.687   0.5788     N
C       0.2222   0.4832   0.8175     C
C       0.2222   0.5168   0.3175     C
C       0.2228   0.3616   0.9916     C
C       0.2228   0.6384   0.4916     C
N       0.2249   0.4714   0.2297     N
N       0.2249   0.5286   0.7297     N
H       0.2265   0.3287   0.7536     H
H       0.2265   0.6713   0.2536     H
C       0.2355   0.1209   0.4733     C
C       0.2355   0.8791   0.9733     C
C       0.2356   0.0648   0.3878     C
C       0.2356   0.9352   0.8878     C
N       0.2376   0.1773   0.5615     N
N       0.2376   0.8227   0.0615     N
C       0.2431   0.2364   0.6502     C
C       0.2431   0.7636   0.1502     C
C       0.2455   0.2942    0.736     C
C       0.2455   0.7058    0.236     C
C       0.2545   0.2058    0.264     C
C       0.2545   0.7942    0.764     C
C       0.2569   0.2636   0.3498     C
C       0.2569   0.7364   0.8498     C
N       0.2624   0.3227   0.4385     N
N       0.2624   0.6773   0.9385     N
C       0.2644   0.4352   0.6122     C
C       0.2644   0.5648   0.1122     C
C       0.2645   0.3791   0.5267     C
C       0.2645   0.6209   0.0267     C
H       0.2735   0.1713   0.2464     H
H       0.2735   0.8287   0.7464     H
N       0.2751   0.0286   0.7703     N
N       0.2751   0.9714   0.2703     N
C       0.2772   0.1384   0.0084     C
C       0.2772   0.8616   0.5084     C
C       0.2778   0.0168   0.1825     C
C       0.2778   0.9832   0.6825     C
N       0.2798    0.187   0.9212     N
N       0.2798    0.813   0.4212     N
C       0.2799    0.347   0.1088     C
C       0.2799    0.653   0.6088     C
C       0.2853   0.3987   0.0234     C
C       0.2853   0.6013   0.5234     C
C       0.2855    0.212   0.3233     C
C       0.2855    0.788   0.8233     C
H       0.2857   0.4415   0.6522     H
H       0.2857   0.5585   0.1522     H
C       0.2877   0.4918    0.349     C
C       0.2877   0.5082    0.849     C
C       0.2886   0.4466    0.261     C
C       0.2886   0.5534    0.761     C
N       0.2889   0.4501   0.9365     N
N       0.2889   0.5499   0.4365     N
C         0.29   0.2738   0.4136     C
C         0.29   0.7262   0.9136     C
C        0.295   0.3277   0.4964     C
C        0.295   0.6723   0.9964     C
N       0.2954   0.0302   0.4165     N
N       0.2954   0.9698   0.9165     N
C       0.2961   0.3905    0.586     C
C       0.2961   0.6095    0.086     C
C       0.2974   0.0836   0.5039     C
C       0.2974   0.9164   0.0039     C
H       0.2979    0.135   0.0485     H
H       0.2979    0.865   0.5485     H
H       0.2996   0.3419   0.1489     H
H       0.2996   0.6581   0.6489     H
N       0.3005   0.2549   0.7697     N
N       0.3005   0.7451   0.2697     N
H       0.3018   0.0409   0.1643     H
H       0.3018   0.9591   0.6643     H
C       0.3021   0.1991    0.684     C
C       0.3021   0.8009    0.184     C
C       0.3068    0.005   0.2416     C
C       0.3068    0.995   0.7416     C
C       0.3074   0.1807   0.9783     C
C       0.3074   0.8193   0.4783     C
H       0.3115   0.4222   0.2419     H
H       0.3115   0.5778   0.7419     H
C        0.314   0.3897   0.0828     C
C        0.314   0.6103   0.5828     C
C       0.3182   0.4475   0.9945     C
C       0.3182   0.5525   0.4945     C
H       0.3194   0.0875    0.544     H
H       0.3194   0.9125    0.044     H
C       0.3199   0.4977   0.9133     C
C       0.3199   0.5023   0.4133     C
C       0.3211   0.4559   0.3202     C
C       0.3211   0.5441   0.8202     C
Ag     0.32221  0.25508  0.86674    Ag
Ag     0.32221  0.74492  0.36674    Ag
H       0.3242   0.1828    0.345     H
H       0.3242   0.8172    0.845     H
H       0.3244   0.1678   0.6675     H
H       0.3244   0.8322   0.1675     H
C       0.3253    0.041   0.4734     C
C       0.3253    0.959   0.9734     C
C       0.3281   0.2085   0.7432     C
C       0.3281   0.7915   0.2432     C
H       0.3382   0.3682   0.6077     H
H       0.3382   0.6318   0.1077     H
Ag     0.34427  0.04291  0.86725    Ag
Ag     0.34427  0.95709  0.36725    Ag
N       0.3473   0.2331   0.4418     N
N       0.3473   0.7669   0.9418     N
H       0.3487   0.2054   0.9993     H
H       0.3487   0.7946   0.4993     H
H       0.3511   0.0216   0.2626     H
H       0.3511   0.9784   0.7626     H
N       0.3521   0.2899   0.5287     N
N       0.3521   0.7101   0.0287     N
H       0.3558   0.4122   0.1053     H
H       0.3558   0.5878   0.6053     H
H       0.3651   0.4381   0.3404     H
H       0.3651   0.5619   0.8404     H
H       0.3673   0.1808   0.7659     H
H       0.3673   0.8192   0.2659     H
H       0.3676   0.0184   0.4939     H
H       0.3676   0.9816   0.9939     H
N       0.3744   0.4873   0.0282     N
N       0.3744   0.5127   0.5282     N
C       0.3763   0.2441   0.4988     C
C       0.3763   0.7559   0.9988     C
N       0.3773   0.4633   0.4427     N
N       0.3773   0.5367   0.9427     N
C       0.4022   0.4705   0.5006     C
C       0.4022   0.5295   0.0006     C
N       0.4137   0.3433   0.9058     N
N       0.4137   0.6567   0.4058     N
H       0.4241   0.3162   0.9837     H
H       0.4241   0.6838   0.4837     H
H       0.4248   0.3817   0.8379     H
H       0.4248   0.6183   0.3379     H
N       0.4394   0.1173    0.911     N
N       0.4394   0.8827    0.411     N
C       0.4404   0.1986   0.5316     C
C       0.4404   0.8014   0.0316     C
C       0.4441   0.3442   0.9636     C
C       0.4441   0.3837   0.8781     C
C       0.4441   0.6163   0.3781     C
C       0.4441   0.6558   0.4636     C
H       0.4448   0.1032   0.9884     H
H       0.4448   0.8968   0.4884     H
H       0.4455   0.2102   0.6112     H
H       0.4455   0.7898   0.1112     H
H       0.4559   0.1397    0.843     H
H       0.4559   0.8603    0.343     H
H       0.4571   0.1692   0.4619     H
H       0.4571   0.8308   0.9619     H
C       0.4667   0.4275   0.5345     C
C       0.4667   0.5725   0.0345     C
C        0.467   0.1256   0.9679     C
C        0.467   0.8744   0.4679     C
C       0.4671    0.189   0.5899     C
C       0.4671    0.811   0.0899     C
C       0.4733   0.1472   0.8828     C
C       0.4733   0.8528   0.3828     C
C       0.4744   0.1649    0.502     C
C       0.4744   0.8351    0.002     C
H       0.4763   0.3831   0.4647     H
H       0.4763   0.6169   0.9647     H
H       0.4803   0.4577   0.6154     H
H       0.4803   0.5423   0.1154     H
C       0.4962   0.3847   0.5049     C
C       0.4962   0.6153   0.0049     C
C        0.498    0.428   0.5943     C
C        0.498    0.572   0.0943     C
C        0.502    0.428   0.9057     C
C        0.502    0.572   0.4057     C
C       0.5038   0.3847   0.9951     C
C       0.5038   0.6153   0.4951     C
H       0.5197   0.4577   0.8846     H
H       0.5197   0.5423   0.3846     H
H       0.5237   0.3831   0.0353     H
H       0.5237   0.6169   0.5353     H
C       0.5256   0.1649    0.998     C
C       0.5256   0.8351    0.498     C
C       0.5267   0.1472   0.6172     C
C       0.5267   0.8528   0.1172     C
C       0.5329    0.189   0.9101     C
C       0.5329    0.811   0.4101     C
C        0.533   0.1256   0.5321     C
C        0.533   0.8744   0.0321     C
C       0.5333   0.4275   0.9655     C
C       0.5333   0.5725   0.4655     C
H       0.5429   0.1692   0.0381     H
H       0.5429   0.8308   0.5381     H
H       0.5441   0.1397    0.657     H
H       0.5441   0.8603    0.157     H
H       0.5545   0.2102   0.8888     H
H       0.5545   0.7898   0.3888     H
H       0.5552   0.1032   0.5116     H
H       0.5552   0.8968   0.0116     H
C       0.5559   0.3442   0.5364     C
C       0.5559   0.3837   0.6219     C
C       0.5559   0.6163   0.1219     C
C       0.5559   0.6558   0.0364     C
C       0.5596   0.1986   0.9684     C
C       0.5596   0.8014   0.4684     C
N       0.5606   0.1173    0.589     N
N       0.5606   0.8827    0.089     N
H       0.5752   0.3817   0.6621     H
H       0.5752   0.6183   0.1621     H
H       0.5759   0.3162   0.5163     H
H       0.5759   0.6838   0.0163     H
N       0.5863   0.3433   0.5942     N
N       0.5863   0.6567   0.0942     N
C       0.5978   0.4705   0.9994     C
C       0.5978   0.5295   0.4994     C
N       0.6227   0.4633   0.0573     N
N       0.6227   0.5367   0.5573     N
C       0.6237   0.2441   0.0012     C
C       0.6237   0.7559   0.5012     C
N       0.6256   0.4873   0.4718     N
N       0.6256   0.5127   0.9718     N
H       0.6324   0.0184   0.0061     H
H       0.6324   0.9816   0.5061     H
H       0.6327   0.1808   0.7341     H
H       0.6327   0.8192   0.2341     H
H       0.6349   0.4381   0.1596     H
H       0.6349   0.5619   0.6596     H
H       0.6442   0.4122   0.3947     H
H       0.6442   0.5878   0.8947     H
N       0.6479   0.2899   0.9713     N
N       0.6479   0.7101   0.4713     N
H       0.6489   0.0216   0.2374     H
H       0.6489   0.9784   0.7374     H
H       0.6513   0.2054   0.5007     H
H       0.6513   0.7946   0.0007     H
N       0.6527   0.2331   0.0582     N
N       0.6527   0.7669   0.5582     N
Ag     0.65573  0.04291  0.63275    Ag
Ag     0.65573  0.95709  0.13275    Ag
H       0.6618   0.3682   0.8923     H
H       0.6618   0.6318   0.3923     H
C       0.6719   0.2085   0.7568     C
C       0.6719   0.7915   0.2568     C
C       0.6747    0.041   0.0266     C
C       0.6747    0.959   0.5266     C
H       0.6756   0.1678   0.8325     H
H       0.6756   0.8322   0.3325     H
H       0.6758   0.1828    0.155     H
H       0.6758   0.8172    0.655     H
Ag     0.67779  0.25508  0.63326    Ag
Ag     0.67779  0.74492  0.13326    Ag
C       0.6789   0.4559   0.1798     C
C       0.6789   0.5441   0.6798     C
C       0.6801   0.4977   0.5867     C
C       0.6801   0.5023   0.0867     C
H       0.6806   0.0875    0.956     H
H       0.6806   0.9125    0.456     H
C       0.6818   0.4475   0.5055     C
C       0.6818   0.5525   0.0055     C
C        0.686   0.3897   0.4172     C
C        0.686   0.6103   0.9172     C
H       0.6885   0.4222   0.2581     H
H       0.6885   0.5778   0.7581     H
C       0.6926   0.1807   0.5217     C
C       0.6926   0.8193   0.0217     C
C       0.6932    0.005   0.2584     C
C       0.6932    0.995   0.7584     C
C       0.6979   0.1991    0.816     C
C       0.6979   0.8009    0.316     C
H       0.6982   0.0409   0.3357     H
H       0.6982   0.9591   0.8357     H
N       0.6995   0.2549   0.7303     N
N       0.6995   0.7451   0.2303     N
H       0.7004   0.3419   0.3511     H
H       0.7004   0.6581   0.8511     H
H       0.7021    0.135   0.4515     H
H       0.7021    0.865   0.9515     H
C       0.7026   0.0836   0.9961     C
C       0.7026   0.9164   0.4961     C
C       0.7039   0.3905    0.914     C
C       0.7039   0.6095    0.414     C
N       0.7046   0.0302   0.0835     N
N       0.7046   0.9698   0.5835     N
C        0.705   0.3277   0.0036     C
C        0.705   0.6723   0.5036     C
C         0.71   0.2738   0.0864     C
C         0.71   0.7262   0.5864     C
N       0.7111   0.4501   0.5635     N
N       0.7111   0.5499   0.0635     N
C       0.7114   0.4466    0.239     C
C       0.7114   0.5534    0.739     C
C       0.7123   0.4918    0.151     C
C       0.7123   0.5082    0.651     C
H       0.7143   0.4415   0.8478     H
H       0.7143   0.5585   0.3478     H
C       0.7145    0.212   0.1767     C
C       0.7145    0.788   0.6767     C
C       0.7147   0.3987   0.4766     C
C       0.7147   0.6013   0.9766     C
C       0.7201    0.347   0.3912     C
C       0.7201    0.653   0.8912     C
N       0.7202    0.187   0.5788     N
N       0.7202    0.813   0.0788     N
C       0.7222   0.0168   0.3175     C
C       0.7222   0.9832   0.8175     C
C       0.7228   0.1384   0.4916     C
C       0.7228   0.8616   0.9916     C
N       0.7249   0.0286   0.7297     N
N       0.7249   0.9714   0.2297     N
H       0.7265   0.1713   0.2536     H
H       0.7265   0.8287   0.7536     H
C       0.7355   0.3791   0.9733     C
C       0.7355   0.6209   0.4733     C
C       0.7356   0.4352   0.8878     C
C       0.7356   0.5648   0.3878     C
N       0.7376   0.3227   0.0615     N
N       0.7376   0.6773   0.5615     N
C       0.7431   0.2636   0.1502     C
C       0.7431   0.7364   0.6502     C
C       0.7455   0.2058    0.236     C
C       0.7455   0.7942    0.736     C
C       0.7545   0.2942    0.764     C
C       0.7545   0.7058    0.264     C
C       0.7569   0.2364   0.8498     C
C       0.7569   0.7636   0.3498     C
N       0.7624   0.1773   0.9385     N
N       0.7624   0.8227   0.4385     N
C       0.7644   0.0648   0.1122     C
C       0.7644   0.9352   0.6122     C
C       0.7645   0.1209   0.0267     C
C       0.7645   0.8791   0.5267     C
H       0.7735   0.3287   0.7464     H
H       0.7735   0.6713   0.2464     H
N       0.7751   0.4714   0.2703     N
N       0.7751   0.5286   0.7703     N
C       0.7772   0.3616   0.5084     C
C       0.7772   0.6384   0.0084     C
C       0.7778   0.4832   0.6825     C
C       0.7778   0.5168   0.1825     C
N       0.7798    0.313   0.4212     N
N       0.7798    0.687   0.9212     N
C       0.7799    0.153   0.6088     C
C       0.7799    0.847   0.1088     C
C       0.7853   0.1013   0.5234     C
C       0.7853   0.8987   0.0234     C
C       0.7855    0.288   0.8233     C
C       0.7855    0.712   0.3233     C
H       0.7857   0.0585   0.1522     H
H       0.7857   0.9415   0.6522     H
C       0.7877   0.0082    0.849     C
C       0.7877   0.9918    0.349     C
C       0.7886   0.0534    0.761     C
C       0.7886   0.9466    0.261     C
N       0.7889   0.0499   0.4365     N
N       0.7889   0.9501   0.9365     N
C         0.79   0.2262   0.9136     C
C         0.79   0.7738   0.4136     C
C        0.795   0.1723   0.9964     C
C        0.795   0.8277   0.4964     C
N       0.7954   0.4698   0.9165     N
N       0.7954   0.5302   0.4165     N
C       0.7961   0.1095    0.086     C
C       0.7961   0.8905    0.586     C
C       0.7974   0.4164   0.0039     C
C       0.7974   0.5836   0.5039     C
H       0.7979    0.365   0.5485     H
H       0.7979    0.635   0.0485     H
H       0.7996   0.1581   0.6489     H
H       0.7996   0.8419   0.1489     H
N       0.8005   0.2451   0.2697     N
N       0.8005   0.7549   0.7697     N
H       0.8018   0.4591   0.6643     H
H       0.8018   0.5409   0.1643     H
C       0.8021   0.3009    0.184     C
C       0.8021   0.6991    0.684     C
C       0.8068    0.495   0.7416     C
C       0.8068    0.505   0.2416     C
C       0.8074   0.3193   0.4783     C
C       0.8074   0.6807   0.9783     C
H       0.8115   0.0778   0.7419     H
H       0.8115   0.9222   0.2419     H
C        0.814   0.1103   0.5828     C
C        0.814   0.8897   0.0828     C
C       0.8182   0.0525   0.4945     C
C       0.8182   0.9475   0.9945     C
H       0.8194   0.4125    0.044     H
H       0.8194   0.5875    0.544     H
C       0.8199   0.0023   0.4133     C
C       0.8199   0.9977   0.9133     C
C       0.8211   0.0441   0.8202     C
C       0.8211   0.9559   0.3202     C
Ag     0.82221  0.24492  0.36674    Ag
Ag     0.82221  0.75508  0.86674    Ag
H       0.8242   0.3172    0.845     H
H       0.8242   0.6828    0.345     H
H       0.8244   0.3322   0.1675     H
H       0.8244   0.6678   0.6675     H
C       0.8253    0.459   0.9734     C
C       0.8253    0.541   0.4734     C
C       0.8281   0.2915   0.2432     C
C       0.8281   0.7085   0.7432     C
H       0.8382   0.1318   0.1077     H
H       0.8382   0.8682   0.6077     H
Ag     0.84427  0.45709  0.36725    Ag
Ag     0.84427  0.54291  0.86725    Ag
N       0.8473   0.2669   0.9418     N
N       0.8473   0.7331   0.4418     N
H       0.8487   0.2946   0.4993     H
H       0.8487   0.7054   0.9993     H
H       0.8511   0.4784   0.7626     H
H       0.8511   0.5216   0.2626     H
N       0.8521   0.2101   0.0287     N
N       0.8521   0.7899   0.5287     N
H       0.8558   0.0878   0.6053     H
H       0.8558   0.9122   0.1053     H
H       0.8651   0.0619   0.8404     H
H       0.8651   0.9381   0.3404     H
H       0.8673   0.3192   0.2659     H
H       0.8673   0.6808   0.7659     H
H       0.8676   0.4816   0.9939     H
H       0.8676   0.5184   0.4939     H
N       0.8744   0.0127   0.5282     N
N       0.8744   0.9873   0.0282     N
C       0.8763   0.2559   0.9988     C
C       0.8763   0.7441   0.4988     C
N       0.8773   0.0367   0.9427     N
N       0.8773   0.9633   0.4427     N
C       0.9022   0.0295   0.0006     C
C       0.9022   0.9705   0.5006     C
N       0.9137   0.1567   0.4058     N
N       0.9137   0.8433   0.9058     N
H       0.9241   0.1838   0.4837     H
H       0.9241   0.8162   0.9837     H
H       0.9248   0.1183   0.3379     H
H       0.9248   0.8817   0.8379     H
N       0.9394   0.3827    0.411     N
N       0.9394   0.6173    0.911     N
C       0.9404   0.3014   0.0316     C
C       0.9404   0.6986   0.5316     C
C       0.9441   0.1163   0.3781     C
C       0.9441   0.1558   0.4636     C
C       0.9441   0.8442   0.9636     C
C       0.9441   0.8837   0.8781     C
H       0.9448   0.3968   0.4884     H
H       0.9448   0.6032   0.9884     H
H       0.9455   0.2898   0.1112     H
H       0.9455   0.7102   0.6112     H
H       0.9559   0.3603    0.343     H
H       0.9559   0.6397    0.843     H
H       0.9571   0.3308   0.9619     H
H       0.9571   0.6692   0.4619     H
C       0.9667   0.0725   0.0345     C
C       0.9667   0.9275   0.5345     C
C        0.967   0.3744   0.4679     C
C        0.967   0.6256   0.9679     C
C       0.9671    0.311   0.0899     C
C       0.9671    0.689   0.5899     C
C       0.9733   0.3528   0.3828     C
C       0.9733   0.6472   0.8828     C
C       0.9744   0.3351    0.002     C
C       0.9744   0.6649    0.502     C
H       0.9763   0.1169   0.9647     H
H       0.9763   0.8831   0.4647     H
H       0.9803   0.0423   0.1154     H
H       0.9803   0.9577   0.6154     H
C       0.9962   0.1153   0.0049     C
C       0.9962   0.8847   0.5049     C
C        0.998    0.072   0.0943     C
C        0.998    0.928   0.5943     C
