data_I
_chemical_name_common  '/home/zhangsd/repos/MofS-CGCNN/ML/data/TSD/clean_cifs/QOFDIA08_clean'
_cell_length_a 21.96600
_cell_length_b 16.62880
_cell_length_c 25.53150
_cell_angle_alpha 90.00000
_cell_angle_beta  115.15800
_cell_angle_gamma 90.00000
_space_group_name_H-M_alt      'P 1'


loop_
_space_group_symop_operation_xyz
  'x, y, z' 

loop_
_atom_site_label
_atom_site_fract_x
_atom_site_fract_y
_atom_site_fract_z
_atom_site_type_symbol
C       0.0022    0.072   0.4057     C
C       0.0022    0.928   0.9057     C
C       0.0034   0.1152   0.4948     C
C       0.0034   0.8848   0.9948     C
H       0.0199   0.0423   0.3846     H
H       0.0199   0.9577   0.8846     H
H       0.0229   0.1165    0.535     H
H       0.0229   0.8835    0.035     H
C       0.0256    0.335    0.498     C
C       0.0256    0.665    0.998     C
C       0.0269   0.3526   0.1172     C
C       0.0269   0.6474   0.6172     C
C       0.0328   0.3103   0.4096     C
C       0.0328   0.3738   0.0323     C
C       0.0328   0.6262   0.5323     C
C       0.0328   0.6897   0.9096     C
C       0.0333   0.0728   0.4654     C
C       0.0333   0.9272   0.9654     C
H       0.0428   0.3308   0.5381     H
H       0.0428   0.6692   0.0381     H
H       0.0441   0.3605    0.157     H
H       0.0441   0.6395    0.657     H
H        0.054   0.2886   0.3882     H
H        0.054   0.7114   0.8882     H
H        0.055   0.3961   0.0119     H
H        0.055   0.6039   0.5119     H
C       0.0557   0.1165   0.1218     C
C       0.0557   0.8835   0.6218     C
C       0.0558   0.1556   0.0368     C
C       0.0558   0.8444   0.5368     C
C       0.0596   0.3014   0.4682     C
C       0.0596   0.6986   0.9682     C
N       0.0606   0.3823   0.0893     N
N       0.0606   0.6177   0.5893     N
H       0.0746   0.1192    0.162     H
H       0.0746   0.8808    0.662     H
H       0.0754   0.1842   0.0166     H
H       0.0754   0.8158   0.5166     H
N       0.0866   0.1561   0.0942     N
N       0.0866   0.8439   0.5942     N
C       0.0976    0.029   0.4993     C
C       0.0976    0.971   0.9993     C
N       0.1226   0.0369   0.5573     N
N       0.1226   0.9631   0.0573     N
C       0.1233   0.2565   0.5007     C
C       0.1233   0.7435   0.0007     C
N       0.1254   0.0128   0.9716     N
N       0.1254   0.9872   0.4716     N
H       0.1325   0.4813   0.5062     H
H       0.1325   0.5187   0.0062     H
H       0.1334   0.3184   0.2347     H
H       0.1334   0.6816   0.7347     H
H        0.135   0.0605   0.6597     H
H        0.135   0.9395   0.1597     H
H       0.1444   0.0872   0.8948     H
H       0.1444   0.9128   0.3948     H
N       0.1478   0.2103   0.4711     N
N       0.1478   0.7897   0.9711     N
H       0.1497   0.4784   0.7381     H
H       0.1497   0.5216   0.2381     H
H       0.1523   0.2944   0.0008     H
H       0.1523   0.7056   0.5008     H
N       0.1525   0.2664   0.5578     N
N       0.1525   0.7336   0.0578     N
Ag     0.15577  0.45693  0.13294    Ag
Ag     0.15577  0.54307  0.63294    Ag
H       0.1618    0.132    0.392     H
H       0.1618    0.868    0.892     H
C       0.1726   0.2908   0.2575     C
C       0.1726   0.7092   0.7575     C
C       0.1748   0.4588   0.5267     C
C       0.1748   0.5412   0.0267     C
H       0.1754   0.3321   0.3333     H
H       0.1754   0.6679   0.8333     H
H       0.1757   0.3158   0.6547     H
H       0.1757   0.6842   0.1547     H
Ag     0.17805  0.24442  0.13341    Ag
Ag     0.17805  0.75558  0.63341    Ag
C       0.1793   0.0435   0.6798     C
C       0.1793   0.9565   0.1798     C
C       0.1797   0.0021   0.0862     C
C       0.1797   0.9979   0.5862     C
H       0.1804   0.4116    0.456     H
H       0.1804   0.5884    0.956     H
C       0.1816   0.0524   0.0056     C
C       0.1816   0.9476   0.5056     C
C       0.1861     0.11   0.9172     C
C       0.1861     0.89   0.4172     C
H       0.1891   0.0792   0.7577     H
H       0.1891   0.9208   0.2577     H
C       0.1934   0.3194   0.0219     C
C       0.1934   0.6806   0.5219     C
C       0.1939   0.4952    0.759     C
C       0.1939   0.5048    0.259     C
H       0.1977   0.4605   0.8361     H
H       0.1977   0.5395   0.3361     H
C       0.1979    0.301   0.3168     C
C       0.1979    0.699   0.8168     C
N       0.1995   0.2453   0.2307     N
N       0.1995   0.7547   0.7307     N
H          0.2   0.1583   0.8507     H
H          0.2   0.8417   0.3507     H
H        0.202   0.3654   0.9514     H
H        0.202   0.6346   0.4514     H
C       0.2026   0.4158    0.496     C
C       0.2026   0.5842    0.996     C
C       0.2039   0.1095   0.4138     C
C       0.2039   0.8905   0.9138     C
N       0.2045     0.47   0.5834     N
N       0.2045     0.53   0.0834     N
C       0.2048   0.1724   0.5033     C
C       0.2048   0.8276   0.0033     C
C       0.2094    0.226    0.586     C
C       0.2094    0.774    0.086     C
N       0.2111   0.0495   0.0634     N
N       0.2111   0.9505   0.5634     N
C       0.2118   0.0538   0.7388     C
C       0.2118   0.9462   0.2388     C
C       0.2122   0.0082   0.6506     C
C       0.2122   0.9918   0.1506     C
H       0.2142   0.0575   0.3475     H
H       0.2142   0.9425   0.8475     H
C       0.2145   0.1011   0.9764     C
C       0.2145   0.8989   0.4764     C
C       0.2146   0.2871   0.6765     C
C       0.2146   0.7129   0.1765     C
C       0.2199   0.1532   0.8907     C
C       0.2199   0.8468   0.3907     C
N       0.2204   0.3127   0.0793     N
N       0.2204   0.6873   0.5793     N
C       0.2221   0.4839    0.818     C
C       0.2221   0.5161    0.318     C
C       0.2229   0.3618   0.9915     C
C       0.2229   0.6382   0.4915     C
N       0.2247   0.4718   0.2299     N
N       0.2247   0.5282   0.7299     N
H       0.2257   0.3289    0.753     H
H       0.2257   0.6711    0.253     H
C       0.2355   0.0644   0.3875     C
C       0.2355   0.1213   0.4737     C
C       0.2355   0.8787   0.9737     C
C       0.2355   0.9356   0.8875     C
N       0.2375    0.177   0.5613     N
N       0.2375    0.823   0.0613     N
C       0.2426   0.2366   0.6497     C
C       0.2426   0.7634   0.1497     C
C        0.245   0.2944   0.7356     C
C        0.245   0.7056   0.2356     C
C        0.255   0.2056   0.2644     C
C        0.255   0.7944   0.7644     C
C       0.2574   0.2634   0.3503     C
C       0.2574   0.7366   0.8503     C
N       0.2625    0.323   0.4387     N
N       0.2625    0.677   0.9387     N
C       0.2645   0.3787   0.5263     C
C       0.2645   0.4356   0.6125     C
C       0.2645   0.5644   0.1125     C
C       0.2645   0.6213   0.0263     C
H       0.2743   0.1711    0.247     H
H       0.2743   0.8289    0.747     H
N       0.2753   0.0282   0.7701     N
N       0.2753   0.9718   0.2701     N
C       0.2771   0.1382   0.0085     C
C       0.2771   0.8618   0.5085     C
C       0.2779   0.0161    0.182     C
C       0.2779   0.9839    0.682     C
N       0.2796   0.1873   0.9207     N
N       0.2796   0.8127   0.4207     N
C       0.2801   0.3468   0.1093     C
C       0.2801   0.6532   0.6093     C
C       0.2854   0.2129   0.3235     C
C       0.2854   0.7871   0.8235     C
C       0.2855   0.3989   0.0236     C
C       0.2855   0.6011   0.5236     C
H       0.2858   0.4425   0.6525     H
H       0.2858   0.5575   0.1525     H
C       0.2878   0.4918   0.3494     C
C       0.2878   0.5082   0.8494     C
C       0.2882   0.4462   0.2612     C
C       0.2882   0.5538   0.7612     C
N       0.2889   0.4505   0.9366     N
N       0.2889   0.5495   0.4366     N
C       0.2906    0.274    0.414     C
C       0.2906    0.726    0.914     C
C       0.2952   0.3276   0.4967     C
C       0.2952   0.6724   0.9967     C
N       0.2955     0.03   0.4166     N
N       0.2955     0.97   0.9166     N
C       0.2961   0.3905   0.5862     C
C       0.2961   0.6095   0.0862     C
C       0.2974   0.0842    0.504     C
C       0.2974   0.9158    0.004     C
H        0.298   0.1346   0.0486     H
H        0.298   0.8654   0.5486     H
H          0.3   0.3417   0.1493     H
H          0.3   0.6583   0.6493     H
N       0.3005   0.2547   0.7693     N
N       0.3005   0.7453   0.2693     N
C       0.3021    0.199   0.6832     C
C       0.3021    0.801   0.1832     C
H       0.3023   0.0395   0.1639     H
H       0.3023   0.9605   0.6639     H
C       0.3061   0.0048    0.241     C
C       0.3061   0.9952    0.741     C
C       0.3066   0.1806   0.9781     C
C       0.3066   0.8194   0.4781     C
H       0.3109   0.4208   0.2423     H
H       0.3109   0.5792   0.7423     H
C       0.3139     0.39   0.0828     C
C       0.3139     0.61   0.5828     C
C       0.3184   0.4476   0.9944     C
C       0.3184   0.5524   0.4944     C
H       0.3196   0.0884    0.544     H
H       0.3196   0.9116    0.044     H
C       0.3203   0.4979   0.9138     C
C       0.3203   0.5021   0.4138     C
C       0.3207   0.4565   0.3202     C
C       0.3207   0.5435   0.8202     C
Ag     0.32195  0.25558  0.86659    Ag
Ag     0.32195  0.74442  0.36659    Ag
H       0.3243   0.1842   0.3453     H
H       0.3243   0.8158   0.8453     H
H       0.3246   0.1679   0.6667     H
H       0.3246   0.8321   0.1667     H
C       0.3252   0.0412   0.4733     C
C       0.3252   0.9588   0.9733     C
C       0.3274   0.2092   0.7425     C
C       0.3274   0.7908   0.2425     C
H       0.3382    0.368    0.608     H
H       0.3382    0.632    0.108     H
Ag     0.34423  0.04307  0.86706    Ag
Ag     0.34423  0.95693  0.36706    Ag
N       0.3475   0.2336   0.4422     N
N       0.3475   0.7664   0.9422     N
H       0.3477   0.2056   0.9992     H
H       0.3477   0.7944   0.4992     H
H       0.3503   0.0216   0.2619     H
H       0.3503   0.9784   0.7619     H
N       0.3522   0.2897   0.5289     N
N       0.3522   0.7103   0.0289     N
H       0.3556   0.4128   0.1052     H
H       0.3556   0.5872   0.6052     H
H        0.365   0.4395   0.3403     H
H        0.365   0.5605   0.8403     H
H       0.3666   0.1816   0.7653     H
H       0.3666   0.8184   0.2653     H
H       0.3675   0.0187   0.4938     H
H       0.3675   0.9813   0.9938     H
N       0.3746   0.4872   0.0284     N
N       0.3746   0.5128   0.5284     N
C       0.3767   0.2435   0.4993     C
C       0.3767   0.7565   0.9993     C
N       0.3774   0.4631   0.4427     N
N       0.3774   0.5369   0.9427     N
C       0.4024    0.471   0.5007     C
C       0.4024    0.529   0.0007     C
N       0.4134   0.3439   0.9058     N
N       0.4134   0.6561   0.4058     N
H       0.4246   0.3158   0.9834     H
H       0.4246   0.6842   0.4834     H
H       0.4254   0.3808    0.838     H
H       0.4254   0.6192    0.338     H
N       0.4394   0.1177   0.9107     N
N       0.4394   0.8823   0.4107     N
C       0.4404   0.1986   0.5318     C
C       0.4404   0.8014   0.0318     C
C       0.4442   0.3444   0.9632     C
C       0.4442   0.6556   0.4632     C
C       0.4443   0.3835   0.8782     C
C       0.4443   0.6165   0.3782     C
H        0.445   0.1039   0.9881     H
H        0.445   0.8961   0.4881     H
H        0.446   0.2114   0.6118     H
H        0.446   0.7886   0.1118     H
H       0.4559   0.1395    0.843     H
H       0.4559   0.8605    0.343     H
H       0.4572   0.1692   0.4619     H
H       0.4572   0.8308   0.9619     H
C       0.4667   0.4272   0.5346     C
C       0.4667   0.5728   0.0346     C
C       0.4672   0.1262   0.9677     C
C       0.4672   0.1897   0.5904     C
C       0.4672   0.8103   0.0904     C
C       0.4672   0.8738   0.4677     C
C       0.4731   0.1474   0.8828     C
C       0.4731   0.8526   0.3828     C
C       0.4744    0.165    0.502     C
C       0.4744    0.835    0.002     C
H       0.4771   0.3835    0.465     H
H       0.4771   0.6165    0.965     H
H       0.4801   0.4577   0.6154     H
H       0.4801   0.5423   0.1154     H
C       0.4966   0.3848   0.5052     C
C       0.4966   0.6152   0.0052     C
C       0.4978    0.428   0.5943     C
C       0.4978    0.572   0.0943     C
C       0.5022    0.428   0.9057     C
C       0.5022    0.572   0.4057     C
C       0.5034   0.3848   0.9948     C
C       0.5034   0.6152   0.4948     C
H       0.5199   0.4577   0.8846     H
H       0.5199   0.5423   0.3846     H
H       0.5229   0.3835    0.035     H
H       0.5229   0.6165    0.535     H
C       0.5256    0.165    0.998     C
C       0.5256    0.835    0.498     C
C       0.5269   0.1474   0.6172     C
C       0.5269   0.8526   0.1172     C
C       0.5328   0.1262   0.5323     C
C       0.5328   0.1897   0.9096     C
C       0.5328   0.8103   0.4096     C
C       0.5328   0.8738   0.0323     C
C       0.5333   0.4272   0.9654     C
C       0.5333   0.5728   0.4654     C
H       0.5428   0.1692   0.0381     H
H       0.5428   0.8308   0.5381     H
H       0.5441   0.1395    0.657     H
H       0.5441   0.8605    0.157     H
H        0.554   0.2114   0.8882     H
H        0.554   0.7886   0.3882     H
H        0.555   0.1039   0.5119     H
H        0.555   0.8961   0.0119     H
C       0.5557   0.3835   0.6218     C
C       0.5557   0.6165   0.1218     C
C       0.5558   0.3444   0.5368     C
C       0.5558   0.6556   0.0368     C
C       0.5596   0.1986   0.9682     C
C       0.5596   0.8014   0.4682     C
N       0.5606   0.1177   0.5893     N
N       0.5606   0.8823   0.0893     N
H       0.5746   0.3808    0.662     H
H       0.5746   0.6192    0.162     H
H       0.5754   0.3158   0.5166     H
H       0.5754   0.6842   0.0166     H
N       0.5866   0.3439   0.5942     N
N       0.5866   0.6561   0.0942     N
C       0.5976    0.471   0.9993     C
C       0.5976    0.529   0.4993     C
N       0.6226   0.4631   0.0573     N
N       0.6226   0.5369   0.5573     N
C       0.6233   0.2435   0.0007     C
C       0.6233   0.7565   0.5007     C
N       0.6254   0.4872   0.4716     N
N       0.6254   0.5128   0.9716     N
H       0.6325   0.0187   0.0062     H
H       0.6325   0.9813   0.5062     H
H       0.6334   0.1816   0.7347     H
H       0.6334   0.8184   0.2347     H
H        0.635   0.4395   0.1597     H
H        0.635   0.5605   0.6597     H
H       0.6444   0.4128   0.3948     H
H       0.6444   0.5872   0.8948     H
N       0.6478   0.2897   0.9711     N
N       0.6478   0.7103   0.4711     N
H       0.6497   0.0216   0.2381     H
H       0.6497   0.9784   0.7381     H
H       0.6523   0.2056   0.5008     H
H       0.6523   0.7944   0.0008     H
N       0.6525   0.2336   0.0578     N
N       0.6525   0.7664   0.5578     N
Ag     0.65577  0.04307  0.63294    Ag
Ag     0.65577  0.95693  0.13294    Ag
H       0.6618    0.368    0.892     H
H       0.6618    0.632    0.392     H
C       0.6726   0.2092   0.7575     C
C       0.6726   0.7908   0.2575     C
C       0.6748   0.0412   0.0267     C
C       0.6748   0.9588   0.5267     C
H       0.6754   0.1679   0.8333     H
H       0.6754   0.8321   0.3333     H
H       0.6757   0.1842   0.1547     H
H       0.6757   0.8158   0.6547     H
Ag     0.67805  0.25558  0.63341    Ag
Ag     0.67805  0.74442  0.13341    Ag
C       0.6793   0.4565   0.1798     C
C       0.6793   0.5435   0.6798     C
C       0.6797   0.4979   0.5862     C
C       0.6797   0.5021   0.0862     C
H       0.6804   0.0884    0.956     H
H       0.6804   0.9116    0.456     H
C       0.6816   0.4476   0.5056     C
C       0.6816   0.5524   0.0056     C
C       0.6861     0.39   0.4172     C
C       0.6861     0.61   0.9172     C
H       0.6891   0.4208   0.2577     H
H       0.6891   0.5792   0.7577     H
C       0.6934   0.1806   0.5219     C
C       0.6934   0.8194   0.0219     C
C       0.6939   0.0048    0.259     C
C       0.6939   0.9952    0.759     C
H       0.6977   0.0395   0.3361     H
H       0.6977   0.9605   0.8361     H
C       0.6979    0.199   0.8168     C
C       0.6979    0.801   0.3168     C
N       0.6995   0.2547   0.7307     N
N       0.6995   0.7453   0.2307     N
H          0.7   0.3417   0.3507     H
H          0.7   0.6583   0.8507     H
H        0.702   0.1346   0.4514     H
H        0.702   0.8654   0.9514     H
C       0.7026   0.0842    0.996     C
C       0.7026   0.9158    0.496     C
C       0.7039   0.3905   0.9138     C
C       0.7039   0.6095   0.4138     C
N       0.7045     0.03   0.0834     N
N       0.7045     0.97   0.5834     N
C       0.7048   0.3276   0.0033     C
C       0.7048   0.6724   0.5033     C
C       0.7094    0.274    0.086     C
C       0.7094    0.726    0.586     C
N       0.7111   0.4505   0.5634     N
N       0.7111   0.5495   0.0634     N
C       0.7118   0.4462   0.2388     C
C       0.7118   0.5538   0.7388     C
C       0.7122   0.4918   0.1506     C
C       0.7122   0.5082   0.6506     C
H       0.7142   0.4425   0.8475     H
H       0.7142   0.5575   0.3475     H
C       0.7145   0.3989   0.4764     C
C       0.7145   0.6011   0.9764     C
C       0.7146   0.2129   0.1765     C
C       0.7146   0.7871   0.6765     C
C       0.7199   0.3468   0.3907     C
C       0.7199   0.6532   0.8907     C
N       0.7204   0.1873   0.5793     N
N       0.7204   0.8127   0.0793     N
C       0.7221   0.0161    0.318     C
C       0.7221   0.9839    0.818     C
C       0.7229   0.1382   0.4915     C
C       0.7229   0.8618   0.9915     C
N       0.7247   0.0282   0.7299     N
N       0.7247   0.9718   0.2299     N
H       0.7257   0.1711    0.253     H
H       0.7257   0.8289    0.753     H
C       0.7355   0.3787   0.9737     C
C       0.7355   0.4356   0.8875     C
C       0.7355   0.5644   0.3875     C
C       0.7355   0.6213   0.4737     C
N       0.7375    0.323   0.0613     N
N       0.7375    0.677   0.5613     N
C       0.7426   0.2634   0.1497     C
C       0.7426   0.7366   0.6497     C
C        0.745   0.2056   0.2356     C
C        0.745   0.7944   0.7356     C
C        0.755   0.2944   0.7644     C
C        0.755   0.7056   0.2644     C
C       0.7574   0.2366   0.8503     C
C       0.7574   0.7634   0.3503     C
N       0.7625    0.177   0.9387     N
N       0.7625    0.823   0.4387     N
C       0.7645   0.0644   0.1125     C
C       0.7645   0.1213   0.0263     C
C       0.7645   0.8787   0.5263     C
C       0.7645   0.9356   0.6125     C
H       0.7743   0.3289    0.747     H
H       0.7743   0.6711    0.247     H
N       0.7753   0.4718   0.2701     N
N       0.7753   0.5282   0.7701     N
C       0.7771   0.3618   0.5085     C
C       0.7771   0.6382   0.0085     C
C       0.7779   0.4839    0.682     C
C       0.7779   0.5161    0.182     C
N       0.7796   0.3127   0.4207     N
N       0.7796   0.6873   0.9207     N
C       0.7801   0.1532   0.6093     C
C       0.7801   0.8468   0.1093     C
C       0.7854   0.2871   0.8235     C
C       0.7854   0.7129   0.3235     C
C       0.7855   0.1011   0.5236     C
C       0.7855   0.8989   0.0236     C
H       0.7858   0.0575   0.1525     H
H       0.7858   0.9425   0.6525     H
C       0.7878   0.0082   0.8494     C
C       0.7878   0.9918   0.3494     C
C       0.7882   0.0538   0.7612     C
C       0.7882   0.9462   0.2612     C
N       0.7889   0.0495   0.4366     N
N       0.7889   0.9505   0.9366     N
C       0.7906    0.226    0.914     C
C       0.7906    0.774    0.414     C
C       0.7952   0.1724   0.9967     C
C       0.7952   0.8276   0.4967     C
N       0.7955     0.47   0.9166     N
N       0.7955     0.53   0.4166     N
C       0.7961   0.1095   0.0862     C
C       0.7961   0.8905   0.5862     C
C       0.7974   0.4158    0.004     C
C       0.7974   0.5842    0.504     C
H        0.798   0.3654   0.5486     H
H        0.798   0.6346   0.0486     H
H          0.8   0.1583   0.6493     H
H          0.8   0.8417   0.1493     H
N       0.8005   0.2453   0.2693     N
N       0.8005   0.7547   0.7693     N
C       0.8021    0.301   0.1832     C
C       0.8021    0.699   0.6832     C
H       0.8023   0.4605   0.6639     H
H       0.8023   0.5395   0.1639     H
C       0.8061   0.4952    0.741     C
C       0.8061   0.5048    0.241     C
C       0.8066   0.3194   0.4781     C
C       0.8066   0.6806   0.9781     C
H       0.8109   0.0792   0.7423     H
H       0.8109   0.9208   0.2423     H
C       0.8139     0.11   0.5828     C
C       0.8139     0.89   0.0828     C
C       0.8184   0.0524   0.4944     C
C       0.8184   0.9476   0.9944     C
H       0.8196   0.4116    0.044     H
H       0.8196   0.5884    0.544     H
C       0.8203   0.0021   0.4138     C
C       0.8203   0.9979   0.9138     C
C       0.8207   0.0435   0.8202     C
C       0.8207   0.9565   0.3202     C
Ag     0.82195  0.24442  0.36659    Ag
Ag     0.82195  0.75558  0.86659    Ag
H       0.8243   0.3158   0.8453     H
H       0.8243   0.6842   0.3453     H
H       0.8246   0.3321   0.1667     H
H       0.8246   0.6679   0.6667     H
C       0.8252   0.4588   0.9733     C
C       0.8252   0.5412   0.4733     C
C       0.8274   0.2908   0.2425     C
C       0.8274   0.7092   0.7425     C
H       0.8382    0.132    0.108     H
H       0.8382    0.868    0.608     H
Ag     0.84423  0.45693  0.36706    Ag
Ag     0.84423  0.54307  0.86706    Ag
N       0.8475   0.2664   0.9422     N
N       0.8475   0.7336   0.4422     N
H       0.8477   0.2944   0.4992     H
H       0.8477   0.7056   0.9992     H
H       0.8503   0.4784   0.7619     H
H       0.8503   0.5216   0.2619     H
N       0.8522   0.2103   0.0289     N
N       0.8522   0.7897   0.5289     N
H       0.8556   0.0872   0.6052     H
H       0.8556   0.9128   0.1052     H
H        0.865   0.0605   0.8403     H
H        0.865   0.9395   0.3403     H
H       0.8666   0.3184   0.2653     H
H       0.8666   0.6816   0.7653     H
H       0.8675   0.4813   0.9938     H
H       0.8675   0.5187   0.4938     H
N       0.8746   0.0128   0.5284     N
N       0.8746   0.9872   0.0284     N
C       0.8767   0.2565   0.9993     C
C       0.8767   0.7435   0.4993     C
N       0.8774   0.0369   0.9427     N
N       0.8774   0.9631   0.4427     N
C       0.9024    0.029   0.0007     C
C       0.9024    0.971   0.5007     C
N       0.9134   0.1561   0.4058     N
N       0.9134   0.8439   0.9058     N
H       0.9246   0.1842   0.4834     H
H       0.9246   0.8158   0.9834     H
H       0.9254   0.1192    0.338     H
H       0.9254   0.8808    0.838     H
N       0.9394   0.3823   0.4107     N
N       0.9394   0.6177   0.9107     N
C       0.9404   0.3014   0.0318     C
C       0.9404   0.6986   0.5318     C
C       0.9442   0.1556   0.4632     C
C       0.9442   0.8444   0.9632     C
C       0.9443   0.1165   0.3782     C
C       0.9443   0.8835   0.8782     C
H        0.945   0.3961   0.4881     H
H        0.945   0.6039   0.9881     H
H        0.946   0.2886   0.1118     H
H        0.946   0.7114   0.6118     H
H       0.9559   0.3605    0.343     H
H       0.9559   0.6395    0.843     H
H       0.9572   0.3308   0.9619     H
H       0.9572   0.6692   0.4619     H
C       0.9667   0.0728   0.0346     C
C       0.9667   0.9272   0.5346     C
C       0.9672   0.3103   0.0904     C
C       0.9672   0.3738   0.4677     C
C       0.9672   0.6262   0.9677     C
C       0.9672   0.6897   0.5904     C
C       0.9731   0.3526   0.3828     C
C       0.9731   0.6474   0.8828     C
C       0.9744    0.335    0.002     C
C       0.9744    0.665    0.502     C
H       0.9771   0.1165    0.965     H
H       0.9771   0.8835    0.465     H
H       0.9801   0.0423   0.1154     H
H       0.9801   0.9577   0.6154     H
C       0.9966   0.1152   0.0052     C
C       0.9966   0.8848   0.5052     C
C       0.9978    0.072   0.0943     C
C       0.9978    0.928   0.5943     C
