data_I
_chemical_name_common  '/home/zhangsd/repos/MofS-CGCNN/ML/data/TSD/clean_cifs/QOFDIA05_clean'
_cell_length_a 22.01010
_cell_length_b 16.52660
_cell_length_c 25.56840
_cell_angle_alpha 90.00000
_cell_angle_beta  115.23400
_cell_angle_gamma 90.00000
_space_group_name_H-M_alt      'P 1'


loop_
_space_group_symop_operation_xyz
  'x, y, z' 

loop_
_atom_site_label
_atom_site_fract_x
_atom_site_fract_y
_atom_site_fract_z
_atom_site_type_symbol
C       0.0018   0.0721   0.4063     C
C       0.0018   0.9279   0.9063     C
C       0.0032   0.1157   0.4953     C
C       0.0032   0.8843   0.9953     C
H       0.0192   0.0416   0.3853     H
H       0.0192   0.9584   0.8853     H
H       0.0226   0.1167   0.5355     H
H       0.0226   0.8833   0.0355     H
C       0.0259   0.3351   0.4988     C
C       0.0259   0.6649   0.9988     C
C       0.0267    0.353   0.1166     C
C       0.0267    0.647   0.6166     C
C       0.0327   0.3113   0.4101     C
C       0.0327   0.6887   0.9101     C
C       0.0331   0.3748   0.0319     C
C       0.0331   0.6252   0.5319     C
C       0.0334   0.0738   0.4659     C
C       0.0334   0.9262   0.9659     C
H       0.0432   0.3307   0.5388     H
H       0.0432   0.6693   0.0388     H
H       0.0442   0.3602   0.1564     H
H       0.0442   0.6398   0.6564     H
H       0.0542   0.2901   0.3888     H
H       0.0542   0.7099   0.8888     H
H       0.0555    0.397   0.0116     H
H       0.0555    0.603   0.5116     H
C       0.0559   0.1558   0.0361     C
C       0.0559   0.8442   0.5361     C
C       0.0561   0.1167   0.1215     C
C       0.0561   0.8833   0.6215     C
C       0.0597   0.3016   0.4688     C
C       0.0597   0.6984   0.9688     C
N       0.0606   0.3836   0.0889     N
N       0.0606   0.6164   0.5889     N
H       0.0753   0.1189   0.1616     H
H       0.0753   0.8811   0.6616     H
H       0.0759   0.1836   0.0159     H
H       0.0759   0.8164   0.5159     H
N       0.0862   0.1573   0.0935     N
N       0.0862   0.8427   0.5935     N
C       0.0977    0.029   0.4999     C
C       0.0977    0.971   0.9999     C
N        0.123   0.0372   0.5579     N
N        0.123   0.9628   0.0579     N
C       0.1235   0.2567    0.501     C
C       0.1235   0.7433    0.001     C
N       0.1261   0.0122   0.9724     N
N       0.1261   0.9878   0.4724     N
H        0.132   0.3191   0.2337     H
H        0.132   0.6809   0.7337     H
H       0.1321    0.481   0.5064     H
H       0.1321    0.519   0.0064     H
H       0.1348   0.0609   0.6602     H
H       0.1348   0.9391   0.1602     H
H       0.1445   0.0875   0.8956     H
H       0.1445   0.9125   0.3956     H
N       0.1482   0.2105   0.4716     N
N       0.1482   0.7895   0.9716     N
H       0.1492   0.4776   0.7372     H
H       0.1492   0.5224   0.2372     H
H       0.1509   0.2955   0.0005     H
H       0.1509   0.7045   0.5005     H
N       0.1527   0.2669   0.5583     N
N       0.1527   0.7331   0.0583     N
Ag     0.15573  0.45731  0.13253    Ag
Ag     0.15573  0.54269  0.63253    Ag
H       0.1621   0.1331   0.3923     H
H       0.1621   0.8669   0.8923     H
C       0.1715   0.2919   0.2564     C
C       0.1715   0.7081   0.7564     C
C       0.1746   0.4587   0.5266     C
C       0.1746   0.5413   0.0266     C
H       0.1759   0.3333   0.3324     H
H       0.1759   0.6667   0.8324     H
H       0.1767   0.3178   0.6557     H
H       0.1767   0.6822   0.1557     H
Ag     0.17751  0.24567  0.13309    Ag
Ag     0.17751  0.75433  0.63309    Ag
C        0.179   0.0437   0.6804     C
C        0.179   0.9563   0.1804     C
H       0.1801   0.4122   0.4554     H
H       0.1801   0.5878   0.9554     H
C       0.1802   0.0019    0.087     C
C       0.1802   0.9981    0.587     C
C        0.182   0.0526    0.006     C
C        0.182   0.9474    0.506     C
C       0.1864     0.11   0.9179     C
C       0.1864     0.89   0.4179     C
H       0.1886   0.0777   0.7587     H
H       0.1886   0.9223   0.2587     H
C       0.1924   0.3198   0.0215     C
C       0.1924   0.6802   0.5215     C
C       0.1932   0.4948   0.7581     C
C       0.1932   0.5052   0.2581     C
H       0.1976   0.4597   0.8356     H
H       0.1976   0.5403   0.3356     H
C       0.1977   0.3015   0.3157     C
C       0.1977   0.6985   0.8157     C
N       0.1993    0.246   0.2299     N
N       0.1993    0.754   0.7299     N
H       0.2004   0.1578   0.8515     H
H       0.2004   0.8422   0.3515     H
H        0.202   0.3652   0.9511     H
H        0.202   0.6348   0.4511     H
C       0.2022   0.4161   0.4954     C
C       0.2022   0.5839   0.9954     C
C       0.2038     0.11   0.4142     C
C       0.2038     0.89   0.9142     C
N       0.2046   0.4698   0.5832     N
N       0.2046   0.5302   0.0832     N
C        0.205    0.172   0.5041     C
C        0.205    0.828   0.0041     C
C       0.2097   0.2262   0.5867     C
C       0.2097   0.7738   0.0867     C
N       0.2113   0.0496   0.0639     N
N       0.2113   0.9504   0.5639     N
C       0.2116   0.0534   0.7396     C
C       0.2116   0.9466   0.2396     C
C       0.2124   0.0081   0.6512     C
C       0.2124   0.9919   0.1512     C
H       0.2138   0.0568   0.3484     H
H       0.2138   0.9432   0.8484     H
C       0.2149   0.1012   0.9768     C
C       0.2149   0.8988   0.4768     C
C       0.2153   0.2884   0.6774     C
C       0.2153   0.7116   0.1774     C
N       0.2202   0.3131   0.0787     N
N       0.2202   0.6869   0.5787     N
C       0.2203   0.1529   0.8916     C
C       0.2203   0.8471   0.3916     C
C       0.2219   0.4833   0.8174     C
C       0.2219   0.5167   0.3174     C
C       0.2227   0.3619   0.9913     C
C       0.2227   0.6381   0.4913     C
N       0.2243   0.4712   0.2291     N
N       0.2243   0.5288   0.7291     N
H       0.2266   0.3299   0.7537     H
H       0.2266   0.6701   0.2537     H
C       0.2352   0.1211   0.4736     C
C       0.2352   0.8789   0.9736     C
C       0.2355   0.0643   0.3882     C
C       0.2355   0.9357   0.8882     C
N       0.2379   0.1772   0.5621     N
N       0.2379   0.8228   0.0621     N
C       0.2431   0.2371   0.6505     C
C       0.2431   0.7629   0.1505     C
C       0.2455   0.2949   0.7362     C
C       0.2455   0.7051   0.2362     C
C       0.2545   0.2051   0.2638     C
C       0.2545   0.7949   0.7638     C
C       0.2569   0.2629   0.3495     C
C       0.2569   0.7371   0.8495     C
N       0.2621   0.3228   0.4379     N
N       0.2621   0.6772   0.9379     N
C       0.2645   0.4357   0.6118     C
C       0.2645   0.5643   0.1118     C
C       0.2648   0.3789   0.5264     C
C       0.2648   0.6211   0.0264     C
H       0.2734   0.1701   0.2463     H
H       0.2734   0.8299   0.7463     H
N       0.2757   0.0288   0.7709     N
N       0.2757   0.9712   0.2709     N
C       0.2773   0.1381   0.0087     C
C       0.2773   0.8619   0.5087     C
C       0.2781   0.0167   0.1826     C
C       0.2781   0.9833   0.6826     C
C       0.2797   0.3471   0.1084     C
C       0.2797   0.6529   0.6084     C
N       0.2798   0.1869   0.9213     N
N       0.2798   0.8131   0.4213     N
C       0.2847   0.2116   0.3226     C
C       0.2847   0.7884   0.8226     C
C       0.2851   0.3988   0.0232     C
C       0.2851   0.6012   0.5232     C
H       0.2862   0.4432   0.6516     H
H       0.2862   0.5568   0.1516     H
C       0.2876   0.4919   0.3488     C
C       0.2876   0.5081   0.8488     C
C       0.2884   0.4466   0.2604     C
C       0.2884   0.5534   0.7604     C
N       0.2887   0.4504   0.9361     N
N       0.2887   0.5496   0.4361     N
C       0.2903   0.2738   0.4133     C
C       0.2903   0.7262   0.9133     C
C        0.295    0.328   0.4959     C
C        0.295    0.672   0.9959     C
N       0.2954   0.0302   0.4168     N
N       0.2954   0.9698   0.9168     N
C       0.2962     0.39   0.5858     C
C       0.2962     0.61   0.0858     C
C       0.2978   0.0839   0.5046     C
C       0.2978   0.9161   0.0046     C
H        0.298   0.1348   0.0489     H
H        0.298   0.8652   0.5489     H
H       0.2996   0.3422   0.1485     H
H       0.2996   0.6578   0.6485     H
N       0.3007    0.254   0.7701     N
N       0.3007    0.746   0.2701     N
C       0.3023   0.1985   0.6843     C
C       0.3023   0.8015   0.1843     C
H       0.3024   0.0403   0.1644     H
H       0.3024   0.9597   0.6644     H
C       0.3068   0.0052   0.2419     C
C       0.3068   0.9948   0.7419     C
C       0.3076   0.1802   0.9785     C
C       0.3076   0.8198   0.4785     C
H       0.3114   0.4223   0.2413     H
H       0.3114   0.5777   0.7413     H
C       0.3136     0.39   0.0821     C
C       0.3136     0.61   0.5821     C
C        0.318   0.4474    0.994     C
C        0.318   0.5526    0.494     C
C       0.3198   0.4981    0.913     C
C       0.3198   0.5019    0.413     C
H       0.3199   0.0878   0.5446     H
H       0.3199   0.9122   0.0446     H
C        0.321   0.4563   0.3196     C
C        0.321   0.5437   0.8196     C
Ag     0.32249  0.25433  0.86691    Ag
Ag     0.32249  0.74567  0.36691    Ag
H       0.3233   0.1822   0.3443     H
H       0.3233   0.8178   0.8443     H
H       0.3241   0.1667   0.6676     H
H       0.3241   0.8333   0.1676     H
C       0.3254   0.0413   0.4734     C
C       0.3254   0.9587   0.9734     C
C       0.3285   0.2081   0.7436     C
C       0.3285   0.7919   0.2436     C
H       0.3379   0.3669   0.6077     H
H       0.3379   0.6331   0.1077     H
Ag     0.34427  0.04269  0.86747    Ag
Ag     0.34427  0.95731  0.36747    Ag
N       0.3473   0.2331   0.4417     N
N       0.3473   0.7669   0.9417     N
H       0.3491   0.2045   0.9995     H
H       0.3491   0.7955   0.4995     H
H       0.3508   0.0224   0.2628     H
H       0.3508   0.9776   0.7628     H
N       0.3518   0.2895   0.5284     N
N       0.3518   0.7105   0.0284     N
H       0.3555   0.4125   0.1044     H
H       0.3555   0.5875   0.6044     H
H       0.3652   0.4391   0.3398     H
H       0.3652   0.5609   0.8398     H
H       0.3679    0.019   0.4936     H
H       0.3679    0.981   0.9936     H
H        0.368   0.1809   0.7663     H
H        0.368   0.8191   0.2663     H
N       0.3739   0.4878   0.0276     N
N       0.3739   0.5122   0.5276     N
C       0.3765   0.2433    0.499     C
C       0.3765   0.7567    0.999     C
N        0.377   0.4628   0.4421     N
N        0.377   0.5372   0.9421     N
C       0.4023    0.471   0.5001     C
C       0.4023    0.529   0.0001     C
N       0.4138   0.3427   0.9065     N
N       0.4138   0.6573   0.4065     N
H       0.4241   0.3164   0.9841     H
H       0.4241   0.6836   0.4841     H
H       0.4247   0.3811   0.8384     H
H       0.4247   0.6189   0.3384     H
N       0.4394   0.1164   0.9111     N
N       0.4394   0.8836   0.4111     N
C       0.4403   0.1984   0.5312     C
C       0.4403   0.8016   0.0312     C
C       0.4439   0.3833   0.8785     C
C       0.4439   0.6167   0.3785     C
C       0.4441   0.3442   0.9639     C
C       0.4441   0.6558   0.4639     C
H       0.4445    0.103   0.9884     H
H       0.4445    0.897   0.4884     H
H       0.4458   0.2099   0.6112     H
H       0.4458   0.7901   0.1112     H
H       0.4558   0.1398   0.8436     H
H       0.4558   0.8602   0.3436     H
H       0.4568   0.1693   0.4612     H
H       0.4568   0.8307   0.9612     H
C       0.4666   0.4262   0.5341     C
C       0.4666   0.5738   0.0341     C
C       0.4669   0.1252   0.9681     C
C       0.4669   0.8748   0.4681     C
C       0.4673   0.1887   0.5899     C
C       0.4673   0.8113   0.0899     C
C       0.4733    0.147   0.8834     C
C       0.4733    0.853   0.3834     C
C       0.4741   0.1649   0.5012     C
C       0.4741   0.8351   0.0012     C
H       0.4774   0.3833   0.4645     H
H       0.4774   0.6167   0.9645     H
H       0.4808   0.4584   0.6147     H
H       0.4808   0.5416   0.1147     H
C       0.4968   0.3843   0.5047     C
C       0.4968   0.6157   0.0047     C
C       0.4982   0.4279   0.5937     C
C       0.4982   0.5721   0.0937     C
C       0.5018   0.4279   0.9063     C
C       0.5018   0.5721   0.4063     C
C       0.5032   0.3843   0.9953     C
C       0.5032   0.6157   0.4953     C
H       0.5192   0.4584   0.8853     H
H       0.5192   0.5416   0.3853     H
H       0.5226   0.3833   0.0355     H
H       0.5226   0.6167   0.5355     H
C       0.5259   0.1649   0.9988     C
C       0.5259   0.8351   0.4988     C
C       0.5267    0.147   0.6166     C
C       0.5267    0.853   0.1166     C
C       0.5327   0.1887   0.9101     C
C       0.5327   0.8113   0.4101     C
C       0.5331   0.1252   0.5319     C
C       0.5331   0.8748   0.0319     C
C       0.5334   0.4262   0.9659     C
C       0.5334   0.5738   0.4659     C
H       0.5432   0.1693   0.0388     H
H       0.5432   0.8307   0.5388     H
H       0.5442   0.1398   0.6564     H
H       0.5442   0.8602   0.1564     H
H       0.5542   0.2099   0.8888     H
H       0.5542   0.7901   0.3888     H
H       0.5555    0.103   0.5116     H
H       0.5555    0.897   0.0116     H
C       0.5559   0.3442   0.5361     C
C       0.5559   0.6558   0.0361     C
C       0.5561   0.3833   0.6215     C
C       0.5561   0.6167   0.1215     C
C       0.5597   0.1984   0.9688     C
C       0.5597   0.8016   0.4688     C
N       0.5606   0.1164   0.5889     N
N       0.5606   0.8836   0.0889     N
H       0.5753   0.3811   0.6616     H
H       0.5753   0.6189   0.1616     H
H       0.5759   0.3164   0.5159     H
H       0.5759   0.6836   0.0159     H
N       0.5862   0.3427   0.5935     N
N       0.5862   0.6573   0.0935     N
C       0.5977    0.471   0.9999     C
C       0.5977    0.529   0.4999     C
N        0.623   0.4628   0.0579     N
N        0.623   0.5372   0.5579     N
C       0.6235   0.2433    0.001     C
C       0.6235   0.7567    0.501     C
N       0.6261   0.4878   0.4724     N
N       0.6261   0.5122   0.9724     N
H        0.632   0.1809   0.7337     H
H        0.632   0.8191   0.2337     H
H       0.6321    0.019   0.0064     H
H       0.6321    0.981   0.5064     H
H       0.6348   0.4391   0.1602     H
H       0.6348   0.5609   0.6602     H
H       0.6445   0.4125   0.3956     H
H       0.6445   0.5875   0.8956     H
N       0.6482   0.2895   0.9716     N
N       0.6482   0.7105   0.4716     N
H       0.6492   0.0224   0.2372     H
H       0.6492   0.9776   0.7372     H
H       0.6509   0.2045   0.5005     H
H       0.6509   0.7955   0.0005     H
N       0.6527   0.2331   0.0583     N
N       0.6527   0.7669   0.5583     N
Ag     0.65573  0.04269  0.63253    Ag
Ag     0.65573  0.95731  0.13253    Ag
H       0.6621   0.3669   0.8923     H
H       0.6621   0.6331   0.3923     H
C       0.6715   0.2081   0.7564     C
C       0.6715   0.7919   0.2564     C
C       0.6746   0.0413   0.0266     C
C       0.6746   0.9587   0.5266     C
H       0.6759   0.1667   0.8324     H
H       0.6759   0.8333   0.3324     H
H       0.6767   0.1822   0.1557     H
H       0.6767   0.8178   0.6557     H
Ag     0.67751  0.25433  0.63309    Ag
Ag     0.67751  0.74567  0.13309    Ag
C        0.679   0.4563   0.1804     C
C        0.679   0.5437   0.6804     C
H       0.6801   0.0878   0.9554     H
H       0.6801   0.9122   0.4554     H
C       0.6802   0.4981    0.587     C
C       0.6802   0.5019    0.087     C
C        0.682   0.4474    0.506     C
C        0.682   0.5526    0.006     C
C       0.6864     0.39   0.4179     C
C       0.6864     0.61   0.9179     C
H       0.6886   0.4223   0.2587     H
H       0.6886   0.5777   0.7587     H
C       0.6924   0.1802   0.5215     C
C       0.6924   0.8198   0.0215     C
C       0.6932   0.0052   0.2581     C
C       0.6932   0.9948   0.7581     C
H       0.6976   0.0403   0.3356     H
H       0.6976   0.9597   0.8356     H
C       0.6977   0.1985   0.8157     C
C       0.6977   0.8015   0.3157     C
N       0.6993    0.254   0.7299     N
N       0.6993    0.746   0.2299     N
H       0.7004   0.3422   0.3515     H
H       0.7004   0.6578   0.8515     H
H        0.702   0.1348   0.4511     H
H        0.702   0.8652   0.9511     H
C       0.7022   0.0839   0.9954     C
C       0.7022   0.9161   0.4954     C
C       0.7038     0.39   0.9142     C
C       0.7038     0.61   0.4142     C
N       0.7046   0.0302   0.0832     N
N       0.7046   0.9698   0.5832     N
C        0.705    0.328   0.0041     C
C        0.705    0.672   0.5041     C
C       0.7097   0.2738   0.0867     C
C       0.7097   0.7262   0.5867     C
N       0.7113   0.4504   0.5639     N
N       0.7113   0.5496   0.0639     N
C       0.7116   0.4466   0.2396     C
C       0.7116   0.5534   0.7396     C
C       0.7124   0.4919   0.1512     C
C       0.7124   0.5081   0.6512     C
H       0.7138   0.4432   0.8484     H
H       0.7138   0.5568   0.3484     H
C       0.7149   0.3988   0.4768     C
C       0.7149   0.6012   0.9768     C
C       0.7153   0.2116   0.1774     C
C       0.7153   0.7884   0.6774     C
N       0.7202   0.1869   0.5787     N
N       0.7202   0.8131   0.0787     N
C       0.7203   0.3471   0.3916     C
C       0.7203   0.6529   0.8916     C
C       0.7219   0.0167   0.3174     C
C       0.7219   0.9833   0.8174     C
C       0.7227   0.1381   0.4913     C
C       0.7227   0.8619   0.9913     C
N       0.7243   0.0288   0.7291     N
N       0.7243   0.9712   0.2291     N
H       0.7266   0.1701   0.2537     H
H       0.7266   0.8299   0.7537     H
C       0.7352   0.3789   0.9736     C
C       0.7352   0.6211   0.4736     C
C       0.7355   0.4357   0.8882     C
C       0.7355   0.5643   0.3882     C
N       0.7379   0.3228   0.0621     N
N       0.7379   0.6772   0.5621     N
C       0.7431   0.2629   0.1505     C
C       0.7431   0.7371   0.6505     C
C       0.7455   0.2051   0.2362     C
C       0.7455   0.7949   0.7362     C
C       0.7545   0.2949   0.7638     C
C       0.7545   0.7051   0.2638     C
C       0.7569   0.2371   0.8495     C
C       0.7569   0.7629   0.3495     C
N       0.7621   0.1772   0.9379     N
N       0.7621   0.8228   0.4379     N
C       0.7645   0.0643   0.1118     C
C       0.7645   0.9357   0.6118     C
C       0.7648   0.1211   0.0264     C
C       0.7648   0.8789   0.5264     C
H       0.7734   0.3299   0.7463     H
H       0.7734   0.6701   0.2463     H
N       0.7757   0.4712   0.2709     N
N       0.7757   0.5288   0.7709     N
C       0.7773   0.3619   0.5087     C
C       0.7773   0.6381   0.0087     C
C       0.7781   0.4833   0.6826     C
C       0.7781   0.5167   0.1826     C
C       0.7797   0.1529   0.6084     C
C       0.7797   0.8471   0.1084     C
N       0.7798   0.3131   0.4213     N
N       0.7798   0.6869   0.9213     N
C       0.7847   0.2884   0.8226     C
C       0.7847   0.7116   0.3226     C
C       0.7851   0.1012   0.5232     C
C       0.7851   0.8988   0.0232     C
H       0.7862   0.0568   0.1516     H
H       0.7862   0.9432   0.6516     H
C       0.7876   0.0081   0.8488     C
C       0.7876   0.9919   0.3488     C
C       0.7884   0.0534   0.7604     C
C       0.7884   0.9466   0.2604     C
N       0.7887   0.0496   0.4361     N
N       0.7887   0.9504   0.9361     N
C       0.7903   0.2262   0.9133     C
C       0.7903   0.7738   0.4133     C
C        0.795    0.172   0.9959     C
C        0.795    0.828   0.4959     C
N       0.7954   0.4698   0.9168     N
N       0.7954   0.5302   0.4168     N
C       0.7962     0.11   0.0858     C
C       0.7962     0.89   0.5858     C
C       0.7978   0.4161   0.0046     C
C       0.7978   0.5839   0.5046     C
H        0.798   0.3652   0.5489     H
H        0.798   0.6348   0.0489     H
H       0.7996   0.1578   0.6485     H
H       0.7996   0.8422   0.1485     H
N       0.8007    0.246   0.2701     N
N       0.8007    0.754   0.7701     N
C       0.8023   0.3015   0.1843     C
C       0.8023   0.6985   0.6843     C
H       0.8024   0.4597   0.6644     H
H       0.8024   0.5403   0.1644     H
C       0.8068   0.4948   0.7419     C
C       0.8068   0.5052   0.2419     C
C       0.8076   0.3198   0.4785     C
C       0.8076   0.6802   0.9785     C
H       0.8114   0.0777   0.7413     H
H       0.8114   0.9223   0.2413     H
C       0.8136     0.11   0.5821     C
C       0.8136     0.89   0.0821     C
C        0.818   0.0526    0.494     C
C        0.818   0.9474    0.994     C
C       0.8198   0.0019    0.413     C
C       0.8198   0.9981    0.913     C
H       0.8199   0.4122   0.0446     H
H       0.8199   0.5878   0.5446     H
C        0.821   0.0437   0.8196     C
C        0.821   0.9563   0.3196     C
Ag     0.82249  0.24567  0.36691    Ag
Ag     0.82249  0.75433  0.86691    Ag
H       0.8233   0.3178   0.8443     H
H       0.8233   0.6822   0.3443     H
H       0.8241   0.3333   0.1676     H
H       0.8241   0.6667   0.6676     H
C       0.8254   0.4587   0.9734     C
C       0.8254   0.5413   0.4734     C
C       0.8285   0.2919   0.2436     C
C       0.8285   0.7081   0.7436     C
H       0.8379   0.1331   0.1077     H
H       0.8379   0.8669   0.6077     H
Ag     0.84427  0.45731  0.36747    Ag
Ag     0.84427  0.54269  0.86747    Ag
N       0.8473   0.2669   0.9417     N
N       0.8473   0.7331   0.4417     N
H       0.8491   0.2955   0.4995     H
H       0.8491   0.7045   0.9995     H
H       0.8508   0.4776   0.7628     H
H       0.8508   0.5224   0.2628     H
N       0.8518   0.2105   0.0284     N
N       0.8518   0.7895   0.5284     N
H       0.8555   0.0875   0.6044     H
H       0.8555   0.9125   0.1044     H
H       0.8652   0.0609   0.8398     H
H       0.8652   0.9391   0.3398     H
H       0.8679    0.481   0.9936     H
H       0.8679    0.519   0.4936     H
H        0.868   0.3191   0.2663     H
H        0.868   0.6809   0.7663     H
N       0.8739   0.0122   0.5276     N
N       0.8739   0.9878   0.0276     N
C       0.8765   0.2567    0.999     C
C       0.8765   0.7433    0.499     C
N        0.877   0.0372   0.9421     N
N        0.877   0.9628   0.4421     N
C       0.9023    0.029   0.0001     C
C       0.9023    0.971   0.5001     C
N       0.9138   0.1573   0.4065     N
N       0.9138   0.8427   0.9065     N
H       0.9241   0.1836   0.4841     H
H       0.9241   0.8164   0.9841     H
H       0.9247   0.1189   0.3384     H
H       0.9247   0.8811   0.8384     H
N       0.9394   0.3836   0.4111     N
N       0.9394   0.6164   0.9111     N
C       0.9403   0.3016   0.0312     C
C       0.9403   0.6984   0.5312     C
C       0.9439   0.1167   0.3785     C
C       0.9439   0.8833   0.8785     C
C       0.9441   0.1558   0.4639     C
C       0.9441   0.8442   0.9639     C
H       0.9445    0.397   0.4884     H
H       0.9445    0.603   0.9884     H
H       0.9458   0.2901   0.1112     H
H       0.9458   0.7099   0.6112     H
H       0.9558   0.3602   0.3436     H
H       0.9558   0.6398   0.8436     H
H       0.9568   0.3307   0.9612     H
H       0.9568   0.6693   0.4612     H
C       0.9666   0.0738   0.0341     C
C       0.9666   0.9262   0.5341     C
C       0.9669   0.3748   0.4681     C
C       0.9669   0.6252   0.9681     C
C       0.9673   0.3113   0.0899     C
C       0.9673   0.6887   0.5899     C
C       0.9733    0.353   0.3834     C
C       0.9733    0.647   0.8834     C
C       0.9741   0.3351   0.0012     C
C       0.9741   0.6649   0.5012     C
H       0.9774   0.1167   0.9645     H
H       0.9774   0.8833   0.4645     H
H       0.9808   0.0416   0.1147     H
H       0.9808   0.9584   0.6147     H
C       0.9968   0.1157   0.0047     C
C       0.9968   0.8843   0.5047     C
C       0.9982   0.0721   0.0937     C
C       0.9982   0.9279   0.5937     C
