data_I
_chemical_name_common  '/home/zhangsd/repos/MofS-CGCNN/ML/data/TSD/clean_cifs/QOFDAS_clean'
_cell_length_a 21.98480
_cell_length_b 16.56170
_cell_length_c 25.64430
_cell_angle_alpha 90.00000
_cell_angle_beta  115.36600
_cell_angle_gamma 90.00000
_space_group_name_H-M_alt      'P 1'


loop_
_space_group_symop_operation_xyz
  'x, y, z' 

loop_
_atom_site_label
_atom_site_fract_x
_atom_site_fract_y
_atom_site_fract_z
_atom_site_type_symbol
H       0.0014   0.3842   0.5495     H
H       0.0014   0.6158   0.0495     H
H       0.0016   0.3341   0.3964     H
H       0.0016   0.6659   0.8964     H
C       0.0109    0.128  0.02489     C
C       0.0109    0.872  0.52489     C
C       0.0127   0.3502  0.47797     C
C       0.0127   0.6498  0.97797     C
C       0.0177   0.3576  0.08135     C
C       0.0177   0.6424  0.58135     C
C       0.0179   0.3872   0.9906     C
C       0.0179   0.6128   0.4906     C
H       0.0187   0.1164   0.1061     H
H       0.0187   0.8836   0.6061     H
H        0.025    0.162   0.9544     H
H        0.025    0.838   0.4544     H
C       0.0391    0.139   0.0844     C
C       0.0391    0.861   0.5844     C
C       0.0427   0.1659   0.9944     C
C       0.0427   0.8341   0.4944     C
C       0.0498   0.0772  0.50565     C
C       0.0498   0.9228  0.00565     C
N      0.07474    0.039  0.47288     N
N      0.07474    0.961  0.97288     N
N      0.07504   0.0725  0.56315     N
N      0.07504   0.9275  0.06315     N
C       0.0753   0.3007   0.5072     C
C       0.0753   0.6993   0.0072     C
C       0.0773   0.4004   0.1074     C
C       0.0773   0.5996   0.6074     C
C       0.0777   0.4286   0.0203     C
C       0.0777   0.5714   0.5203     C
H       0.0855   0.0398     0.89     H
H       0.0855   0.9602     0.39     H
H       0.0953   0.0873   0.6687     H
H       0.0953   0.9127   0.1687     H
C       0.0969   0.1831   0.1108     C
C       0.0969   0.8169   0.6108     C
H       0.0971    0.405   0.1474     H
H       0.0971    0.595   0.6474     H
N      0.09761   0.2604  0.47329     N
N      0.09761   0.7396  0.97329     N
H       0.0979    0.453    0.999     H
H       0.0979    0.547    0.499     H
C       0.1011   0.2094   0.0253     C
C       0.1011   0.7906   0.5253     C
N      0.10415   0.2989  0.56459     N
N      0.10415   0.7011  0.06459     N
N        0.108   0.4355  0.07782     N
N        0.108   0.5645  0.57782     N
H       0.1142   0.2918   0.6662     H
H       0.1142   0.7082   0.1662     H
H       0.1154   0.1887   0.1507     H
H       0.1154   0.8113   0.6507     H
H       0.1163   0.2033   0.3864     H
H       0.1163   0.7967   0.8864     H
H       0.1224   0.2336   0.0049     H
H       0.1224   0.7664   0.5049     H
C       0.1278    0.024  0.58782     C
C       0.1278    0.976  0.08782     C
C        0.128    0.007  0.00244     C
C        0.128   0.0616   0.9113     C
C        0.128   0.9384   0.4113     C
C        0.128    0.993  0.50244     C
N      0.12846   0.2187  0.08233     N
N      0.12846   0.7813  0.58233     N
C       0.1335    0.055   0.6853     C
C       0.1335    0.945   0.1853     C
H       0.1388   0.1112   0.8446     H
H       0.1388   0.8888   0.3446     H
H       0.1518   0.0757   0.7671     H
H       0.1518   0.9243   0.2671     H
C       0.1538   0.2197  0.50129     C
C       0.1538   0.7803  0.00129     C
C       0.1556   0.1746   0.4075     C
C       0.1556   0.8254   0.9075     C
N      0.15628   0.0182  0.05968     N
N      0.15628   0.9818  0.55968     N
C       0.1565    0.268   0.6841     C
C       0.1565    0.732   0.1841     C
C       0.1583   0.0138   0.6518     C
C       0.1583   0.2522   0.5879     C
C       0.1583   0.7478   0.0879     C
C       0.1583   0.9862   0.1518     C
C       0.1599   0.0523  0.97032     C
C       0.1599   0.9477  0.47032     C
C        0.161   0.1042   0.8844     C
C        0.161   0.8958   0.3844     C
H        0.164    0.275    0.764     H
H        0.164    0.725    0.264     H
H        0.166   0.1299   0.3398     H
H        0.166   0.8701   0.8398     H
C       0.1675   0.0465   0.7445     C
C       0.1675   0.9535   0.2445     C
H       0.1785    0.325   0.2406     H
H       0.1785    0.675   0.7406     H
C       0.1837   0.1751  0.46686     C
C       0.1837   0.8249  0.96686     C
C       0.1864   0.1312   0.3799     C
C       0.1864   0.8688   0.8799     C
N      0.18682   0.2124  0.55894     N
N      0.18682   0.7876  0.05894     N
C       0.1869   0.2573   0.7429     C
C       0.1869   0.7427   0.2429     C
H       0.1878   0.4346   0.5142     H
H       0.1878   0.5654   0.0142     H
C       0.1902   0.2426   0.6519     C
C       0.1902   0.7574   0.1519     C
Ag       0.205  0.49868  0.63231    Ag
Ag       0.205  0.50132  0.13231    Ag
H       0.2058    0.351   0.0104     H
H       0.2058    0.649   0.5104     H
C       0.2122    0.038   0.1783     C
C       0.2122    0.962   0.6783     C
C       0.2207   0.3013   0.2597     C
C       0.2207   0.6987   0.7597     C
N       0.2209   0.0003  0.27143     N
N       0.2209   0.9997  0.77143     N
N      0.22209   0.1356  0.91184     N
N      0.22209   0.8644  0.41184     N
H       0.2227   0.4212   0.7447     H
H       0.2227   0.5788   0.2447     H
C       0.2229   0.0865   0.9994     C
C       0.2229   0.9135   0.4994     C
H       0.2233   0.3111    0.339     H
H       0.2233   0.6889    0.839     H
Ag      0.2261  0.29103  0.13175    Ag
Ag      0.2261  0.70897  0.63175    Ag
C       0.2281   0.4073   0.5344     C
C       0.2281   0.5927   0.0344     C
H       0.2284   0.0686   0.1566     H
H       0.2284   0.9314   0.6566     H
H       0.2361    0.367   0.4636     H
H       0.2361    0.633   0.9636     H
C       0.2414   0.0434   0.2377     C
C       0.2414   0.9566   0.7377     C
C       0.2434   0.1335  0.49629     C
C       0.2434   0.8665  0.99629     C
N      0.24411   0.0905  0.40749     N
N      0.24411   0.9095  0.90749     N
H       0.2455   0.0821   0.0394     H
H       0.2455   0.9179   0.5394     H
N       0.2468   0.2234  0.77159     N
N       0.2468   0.7766  0.27159     N
C       0.2473    0.293   0.3189     C
C       0.2473    0.707   0.8189     C
C       0.2483   0.3734   0.0308     C
C       0.2483   0.6266   0.5308     C
C       0.2517   0.1266   0.9692     C
C       0.2517   0.8734   0.4692     C
C       0.2527    0.207   0.6811     C
C       0.2527    0.793   0.1811     C
N       0.2532   0.2766  0.22841     N
N       0.2532   0.7234  0.72841     N
H       0.2545   0.4179   0.9606     H
H       0.2545   0.5821   0.4606     H
N      0.25589   0.4095  0.59251     N
N      0.25589   0.5905  0.09251     N
C       0.2566   0.3665  0.50371     C
C       0.2566   0.6335  0.00371     C
C       0.2586   0.4566   0.7623     C
C       0.2586   0.5434   0.2623     C
H       0.2639    0.133   0.5364     H
H       0.2639    0.867   0.0364     H
H       0.2716   0.4314   0.8434     H
H       0.2716   0.5686   0.3434     H
C       0.2719   0.0927   0.4656     C
C       0.2719   0.9073   0.9656     C
Ag      0.2739  0.20897  0.86825    Ag
Ag      0.2739  0.79103  0.36825    Ag
H       0.2767   0.1889    0.661     H
H       0.2767   0.8111    0.161     H
C       0.2771   0.4135   0.0006     C
C       0.2771   0.5865   0.5006     C
H       0.2773   0.0788   0.2553     H
H       0.2773   0.9212   0.7553     H
N      0.27791   0.3644  0.08816     N
N      0.27791   0.6356  0.58816     N
N       0.2791   0.4997  0.72857     N
N       0.2791   0.5003  0.22857     N
C       0.2793   0.1987   0.7403     C
C       0.2793   0.8013   0.2403     C
C       0.2878    0.462   0.8217     C
C       0.2878    0.538   0.3217     C
H       0.2942    0.149   0.9896     H
H       0.2942    0.851   0.4896     H
Ag       0.295  0.00132  0.36769    Ag
Ag       0.295  0.99868  0.86769    Ag
C       0.3098   0.2574   0.3481     C
C       0.3098   0.7426   0.8481     C
H       0.3122   0.0654   0.4858     H
H       0.3122   0.9346   0.9858     H
C       0.3131   0.2427   0.2571     C
C       0.3131   0.7573   0.7571     C
N      0.31318   0.2876  0.44106     N
N      0.31318   0.7124  0.94106     N
C       0.3136   0.3688   0.6201     C
C       0.3136   0.6312   0.1201     C
C       0.3163   0.3249  0.53314     C
C       0.3163   0.6751  0.03314     C
H       0.3215    0.175   0.7594     H
H       0.3215    0.825   0.2594     H
C       0.3325   0.4535   0.2555     C
C       0.3325   0.5465   0.7555     C
H        0.334   0.3701   0.6602     H
H        0.334   0.6299   0.1602     H
H        0.336    0.225    0.236     H
H        0.336    0.775    0.736     H
C        0.339   0.3958   0.1156     C
C        0.339   0.6042   0.6156     C
C       0.3401   0.4477  0.02968     C
C       0.3401   0.5523  0.52968     C
C       0.3417   0.2478   0.4121     C
C       0.3417   0.4862   0.3482     C
C       0.3417   0.5138   0.8482     C
C       0.3417   0.7522   0.9121     C
C       0.3435    0.232   0.3159     C
C       0.3435    0.768   0.8159     C
N      0.34372   0.4818  0.94032     N
N      0.34372   0.5182  0.44032     N
C       0.3444   0.3254   0.5925     C
C       0.3444   0.6746   0.0925     C
C       0.3462   0.2803  0.49871     C
C       0.3462   0.7197  0.99871     C
H       0.3482   0.4243   0.2329     H
H       0.3482   0.5757   0.7329     H
H       0.3612   0.3888   0.1554     H
H       0.3612   0.6112   0.6554     H
C       0.3665    0.445   0.3147     C
C       0.3665    0.555   0.8147     C
N      0.37154   0.2813  0.91767     N
N      0.37154   0.7187  0.41767     N
C        0.372   0.4384   0.0887     C
C        0.372    0.493  0.99756     C
C        0.372    0.507  0.49756     C
C        0.372   0.5616   0.5887     C
C       0.3722    0.476  0.41218     C
C       0.3722    0.524  0.91218     C
H       0.3776   0.2664   0.9951     H
H       0.3776   0.7336   0.4951     H
H       0.3837   0.2967   0.6136     H
H       0.3837   0.7033   0.1136     H
H       0.3846   0.3113   0.8493     H
H       0.3846   0.6887   0.3493     H
H       0.3858   0.2082   0.3338     H
H       0.3858   0.7918   0.8338     H
N        0.392   0.0645  0.92218     N
N        0.392   0.9355  0.42218     N
N      0.39585   0.2011  0.43541     N
N      0.39585   0.7989  0.93541     N
C       0.3989   0.2906   0.9747     C
C       0.3989   0.7094   0.4747     C
H       0.4021    0.047    0.001     H
H       0.4021    0.953    0.501     H
N      0.40239   0.2396  0.52671     N
N      0.40239   0.7604  0.02671     N
H       0.4029    0.095   0.8526     H
H       0.4029    0.905   0.3526     H
C       0.4031   0.3169   0.8892     C
C       0.4031   0.6831   0.3892     C
H       0.4047   0.4127   0.3313     H
H       0.4047   0.5873   0.8313     H
H       0.4145   0.4602     0.11     H
H       0.4145   0.5398     0.61     H
C       0.4223   0.0714   0.9797     C
C       0.4223   0.9286   0.4797     C
C       0.4227   0.0996   0.8926     C
C       0.4227   0.9004   0.3926     C
C       0.4247   0.1993   0.4928     C
C       0.4247   0.8007   0.9928     C
N      0.42496   0.4275  0.43685     N
N      0.42496   0.5725  0.93685     N
N      0.42526    0.461  0.52712     N
N      0.42526    0.539  0.02712     N
C       0.4502   0.4228  0.49435     C
C       0.4502   0.5772  0.99435     C
C       0.4573   0.3341   0.0056     C
C       0.4573   0.6659   0.5056     C
C       0.4609    0.361   0.9156     C
C       0.4609    0.639   0.4156     C
H        0.475    0.338   0.0456     H
H        0.475    0.662   0.5456     H
H       0.4813   0.3836   0.8939     H
H       0.4813   0.6164   0.3939     H
C       0.4821   0.1128   0.0094     C
C       0.4821   0.8872   0.5094     C
C       0.4823   0.1424  0.91865     C
C       0.4823   0.8576  0.41865     C
C       0.4873   0.1498  0.52203     C
C       0.4873   0.8502  0.02203     C
C       0.4891    0.372  0.97511     C
C       0.4891    0.628  0.47511     C
H       0.4984   0.1659   0.6036     H
H       0.4984   0.8341   0.1036     H
H       0.4986   0.1158   0.4505     H
H       0.4986   0.8842   0.9505     H
H       0.5014   0.1158   0.0495     H
H       0.5014   0.8842   0.5495     H
H       0.5016   0.1659   0.8964     H
H       0.5016   0.8341   0.3964     H
C       0.5109    0.372  0.52489     C
C       0.5109    0.628  0.02489     C
C       0.5127   0.1498  0.97797     C
C       0.5127   0.8502  0.47797     C
C       0.5177   0.1424  0.58135     C
C       0.5177   0.8576  0.08135     C
C       0.5179   0.1128   0.4906     C
C       0.5179   0.8872   0.9906     C
H       0.5187   0.3836   0.6061     H
H       0.5187   0.6164   0.1061     H
H        0.525    0.338   0.4544     H
H        0.525    0.662   0.9544     H
C       0.5391    0.361   0.5844     C
C       0.5391    0.639   0.0844     C
C       0.5427   0.3341   0.4944     C
C       0.5427   0.6659   0.9944     C
C       0.5498   0.4228  0.00565     C
C       0.5498   0.5772  0.50565     C
N      0.57474    0.461  0.97288     N
N      0.57474    0.539  0.47288     N
N      0.57504   0.4275  0.06315     N
N      0.57504   0.5725  0.56315     N
C       0.5753   0.1993   0.0072     C
C       0.5753   0.8007   0.5072     C
C       0.5773   0.0996   0.6074     C
C       0.5773   0.9004   0.1074     C
C       0.5777   0.0714   0.5203     C
C       0.5777   0.9286   0.0203     C
H       0.5855   0.4602     0.39     H
H       0.5855   0.5398     0.89     H
H       0.5953   0.4127   0.1687     H
H       0.5953   0.5873   0.6687     H
C       0.5969   0.3169   0.6108     C
C       0.5969   0.6831   0.1108     C
H       0.5971    0.095   0.6474     H
H       0.5971    0.905   0.1474     H
N      0.59761   0.2396  0.97329     N
N      0.59761   0.7604  0.47329     N
H       0.5979    0.047    0.499     H
H       0.5979    0.953    0.999     H
C       0.6011   0.2906   0.5253     C
C       0.6011   0.7094   0.0253     C
N      0.60415   0.2011  0.06459     N
N      0.60415   0.7989  0.56459     N
N        0.608   0.0645  0.57782     N
N        0.608   0.9355  0.07782     N
H       0.6142   0.2082   0.1662     H
H       0.6142   0.7918   0.6662     H
H       0.6154   0.3113   0.6507     H
H       0.6154   0.6887   0.1507     H
H       0.6163   0.2967   0.8864     H
H       0.6163   0.7033   0.3864     H
H       0.6224   0.2664   0.5049     H
H       0.6224   0.7336   0.0049     H
C       0.6278    0.476  0.08782     C
C       0.6278    0.524  0.58782     C
C        0.628   0.4384   0.4113     C
C        0.628    0.493  0.50244     C
C        0.628    0.507  0.00244     C
C        0.628   0.5616   0.9113     C
N      0.62846   0.2813  0.58233     N
N      0.62846   0.7187  0.08233     N
C       0.6335    0.445   0.1853     C
C       0.6335    0.555   0.6853     C
H       0.6388   0.3888   0.3446     H
H       0.6388   0.6112   0.8446     H
H       0.6518   0.4243   0.2671     H
H       0.6518   0.5757   0.7671     H
C       0.6538   0.2803  0.00129     C
C       0.6538   0.7197  0.50129     C
C       0.6556   0.3254   0.9075     C
C       0.6556   0.6746   0.4075     C
N      0.65628   0.4818  0.55968     N
N      0.65628   0.5182  0.05968     N
C       0.6565    0.232   0.1841     C
C       0.6565    0.768   0.6841     C
C       0.6583   0.2478   0.0879     C
C       0.6583   0.4862   0.1518     C
C       0.6583   0.5138   0.6518     C
C       0.6583   0.7522   0.5879     C
C       0.6599   0.4477  0.47032     C
C       0.6599   0.5523  0.97032     C
C        0.661   0.3958   0.3844     C
C        0.661   0.6042   0.8844     C
H        0.664    0.225    0.264     H
H        0.664    0.775    0.764     H
H        0.666   0.3701   0.8398     H
H        0.666   0.6299   0.3398     H
C       0.6675   0.4535   0.2445     C
C       0.6675   0.5465   0.7445     C
H       0.6785    0.175   0.7406     H
H       0.6785    0.825   0.2406     H
C       0.6837   0.3249  0.96686     C
C       0.6837   0.6751  0.46686     C
C       0.6864   0.3688   0.8799     C
C       0.6864   0.6312   0.3799     C
N      0.68682   0.2876  0.05894     N
N      0.68682   0.7124  0.55894     N
C       0.6869   0.2427   0.2429     C
C       0.6869   0.7573   0.7429     C
H       0.6878   0.0654   0.0142     H
H       0.6878   0.9346   0.5142     H
C       0.6902   0.2574   0.1519     C
C       0.6902   0.7426   0.6519     C
Ag       0.705  0.00132  0.13231    Ag
Ag       0.705  0.99868  0.63231    Ag
H       0.7058    0.149   0.5104     H
H       0.7058    0.851   0.0104     H
C       0.7122    0.462   0.6783     C
C       0.7122    0.538   0.1783     C
C       0.7207   0.1987   0.7597     C
C       0.7207   0.8013   0.2597     C
N       0.7209   0.4997  0.77143     N
N       0.7209   0.5003  0.27143     N
N      0.72209   0.3644  0.41184     N
N      0.72209   0.6356  0.91184     N
H       0.7227   0.0788   0.2447     H
H       0.7227   0.9212   0.7447     H
C       0.7229   0.4135   0.4994     C
C       0.7229   0.5865   0.9994     C
H       0.7233   0.1889    0.839     H
H       0.7233   0.8111    0.339     H
Ag      0.7261  0.20897  0.63175    Ag
Ag      0.7261  0.79103  0.13175    Ag
C       0.7281   0.0927   0.0344     C
C       0.7281   0.9073   0.5344     C
H       0.7284   0.4314   0.6566     H
H       0.7284   0.5686   0.1566     H
H       0.7361    0.133   0.9636     H
H       0.7361    0.867   0.4636     H
C       0.7414   0.4566   0.7377     C
C       0.7414   0.5434   0.2377     C
C       0.7434   0.3665  0.99629     C
C       0.7434   0.6335  0.49629     C
N      0.74411   0.4095  0.90749     N
N      0.74411   0.5905  0.40749     N
H       0.7455   0.4179   0.5394     H
H       0.7455   0.5821   0.0394     H
N       0.7468   0.2766  0.27159     N
N       0.7468   0.7234  0.77159     N
C       0.7473    0.207   0.8189     C
C       0.7473    0.793   0.3189     C
C       0.7483   0.1266   0.5308     C
C       0.7483   0.8734   0.0308     C
C       0.7517   0.3734   0.4692     C
C       0.7517   0.6266   0.9692     C
C       0.7527    0.293   0.1811     C
C       0.7527    0.707   0.6811     C
N       0.7532   0.2234  0.72841     N
N       0.7532   0.7766  0.22841     N
H       0.7545   0.0821   0.4606     H
H       0.7545   0.9179   0.9606     H
N      0.75589   0.0905  0.09251     N
N      0.75589   0.9095  0.59251     N
C       0.7566   0.1335  0.00371     C
C       0.7566   0.8665  0.50371     C
C       0.7586   0.0434   0.2623     C
C       0.7586   0.9566   0.7623     C
H       0.7639    0.367   0.0364     H
H       0.7639    0.633   0.5364     H
H       0.7716   0.0686   0.3434     H
H       0.7716   0.9314   0.8434     H
C       0.7719   0.4073   0.9656     C
C       0.7719   0.5927   0.4656     C
Ag      0.7739  0.29103  0.36825    Ag
Ag      0.7739  0.70897  0.86825    Ag
H       0.7767   0.3111    0.161     H
H       0.7767   0.6889    0.661     H
C       0.7771   0.0865   0.5006     C
C       0.7771   0.9135   0.0006     C
H       0.7773   0.4212   0.7553     H
H       0.7773   0.5788   0.2553     H
N      0.77791   0.1356  0.58816     N
N      0.77791   0.8644  0.08816     N
N       0.7791   0.0003  0.22857     N
N       0.7791   0.9997  0.72857     N
C       0.7793   0.3013   0.2403     C
C       0.7793   0.6987   0.7403     C
C       0.7878    0.038   0.3217     C
C       0.7878    0.962   0.8217     C
H       0.7942    0.351   0.4896     H
H       0.7942    0.649   0.9896     H
Ag       0.795  0.49868  0.86769    Ag
Ag       0.795  0.50132  0.36769    Ag
C       0.8098   0.2426   0.8481     C
C       0.8098   0.7574   0.3481     C
H       0.8122   0.4346   0.9858     H
H       0.8122   0.5654   0.4858     H
C       0.8131   0.2573   0.7571     C
C       0.8131   0.7427   0.2571     C
N      0.81318   0.2124  0.94106     N
N      0.81318   0.7876  0.44106     N
C       0.8136   0.1312   0.1201     C
C       0.8136   0.8688   0.6201     C
C       0.8163   0.1751  0.03314     C
C       0.8163   0.8249  0.53314     C
H       0.8215    0.325   0.2594     H
H       0.8215    0.675   0.7594     H
C       0.8325   0.0465   0.7555     C
C       0.8325   0.9535   0.2555     C
H        0.834   0.1299   0.1602     H
H        0.834   0.8701   0.6602     H
H        0.836    0.275    0.736     H
H        0.836    0.725    0.236     H
C        0.839   0.1042   0.6156     C
C        0.839   0.8958   0.1156     C
C       0.8401   0.0523  0.52968     C
C       0.8401   0.9477  0.02968     C
C       0.8417   0.0138   0.8482     C
C       0.8417   0.2522   0.9121     C
C       0.8417   0.7478   0.4121     C
C       0.8417   0.9862   0.3482     C
C       0.8435    0.268   0.8159     C
C       0.8435    0.732   0.3159     C
N      0.84372   0.0182  0.44032     N
N      0.84372   0.9818  0.94032     N
C       0.8444   0.1746   0.0925     C
C       0.8444   0.8254   0.5925     C
C       0.8462   0.2197  0.99871     C
C       0.8462   0.7803  0.49871     C
H       0.8482   0.0757   0.7329     H
H       0.8482   0.9243   0.2329     H
H       0.8612   0.1112   0.6554     H
H       0.8612   0.8888   0.1554     H
C       0.8665    0.055   0.8147     C
C       0.8665    0.945   0.3147     C
N      0.87154   0.2187  0.41767     N
N      0.87154   0.7813  0.91767     N
C        0.872    0.007  0.49756     C
C        0.872   0.0616   0.5887     C
C        0.872   0.9384   0.0887     C
C        0.872    0.993  0.99756     C
C       0.8722    0.024  0.91218     C
C       0.8722    0.976  0.41218     C
H       0.8776   0.2336   0.4951     H
H       0.8776   0.7664   0.9951     H
H       0.8837   0.2033   0.1136     H
H       0.8837   0.7967   0.6136     H
H       0.8846   0.1887   0.3493     H
H       0.8846   0.8113   0.8493     H
H       0.8858   0.2918   0.8338     H
H       0.8858   0.7082   0.3338     H
N        0.892   0.4355  0.42218     N
N        0.892   0.5645  0.92218     N
N      0.89585   0.2989  0.93541     N
N      0.89585   0.7011  0.43541     N
C       0.8989   0.2094   0.4747     C
C       0.8989   0.7906   0.9747     C
H       0.9021    0.453    0.501     H
H       0.9021    0.547    0.001     H
N      0.90239   0.2604  0.02671     N
N      0.90239   0.7396  0.52671     N
H       0.9029    0.405   0.3526     H
H       0.9029    0.595   0.8526     H
C       0.9031   0.1831   0.3892     C
C       0.9031   0.8169   0.8892     C
H       0.9047   0.0873   0.8313     H
H       0.9047   0.9127   0.3313     H
H       0.9145   0.0398     0.61     H
H       0.9145   0.9602     0.11     H
C       0.9223   0.4286   0.4797     C
C       0.9223   0.5714   0.9797     C
C       0.9227   0.4004   0.3926     C
C       0.9227   0.5996   0.8926     C
C       0.9247   0.3007   0.9928     C
C       0.9247   0.6993   0.4928     C
N      0.92496   0.0725  0.93685     N
N      0.92496   0.9275  0.43685     N
N      0.92526    0.039  0.02712     N
N      0.92526    0.961  0.52712     N
C       0.9502   0.0772  0.99435     C
C       0.9502   0.9228  0.49435     C
C       0.9573   0.1659   0.5056     C
C       0.9573   0.8341   0.0056     C
C       0.9609    0.139   0.4156     C
C       0.9609    0.861   0.9156     C
H        0.975    0.162   0.5456     H
H        0.975    0.838   0.0456     H
H       0.9813   0.1164   0.3939     H
H       0.9813   0.8836   0.8939     H
C       0.9821   0.3872   0.5094     C
C       0.9821   0.6128   0.0094     C
C       0.9823   0.3576  0.41865     C
C       0.9823   0.6424  0.91865     C
C       0.9873   0.3502  0.02203     C
C       0.9873   0.6498  0.52203     C
C       0.9891    0.128  0.47511     C
C       0.9891    0.872  0.97511     C
H       0.9984   0.3341   0.1036     H
H       0.9984   0.6659   0.6036     H
H       0.9986   0.3842   0.9505     H
H       0.9986   0.6158   0.4505     H
