data_I
_chemical_name_common  '/home/zhangsd/repos/MofS-CGCNN/ML/data/TSD/clean_cifs/QOFDIA02_clean'
_cell_length_a 22.05720
_cell_length_b 16.38930
_cell_length_c 25.60300
_cell_angle_alpha 90.00000
_cell_angle_beta  115.30500
_cell_angle_gamma 90.00000
_space_group_name_H-M_alt      'P 1'


loop_
_space_group_symop_operation_xyz
  'x, y, z' 

loop_
_atom_site_label
_atom_site_fract_x
_atom_site_fract_y
_atom_site_fract_z
_atom_site_type_symbol
C       0.0023   0.0733   0.4071     C
C       0.0023   0.9267   0.9071     C
C       0.0034   0.1165   0.4964     C
C       0.0034   0.8835   0.9964     C
H       0.0205   0.0443    0.386     H
H       0.0205   0.9557    0.886     H
H       0.0231   0.1181   0.5366     H
H       0.0231   0.8819   0.0366     H
C       0.0262   0.3355   0.4998     C
C       0.0262   0.6645   0.9998     C
C       0.0264   0.3547   0.1158     C
C       0.0264   0.6453   0.6158     C
C        0.033   0.3755   0.0305     C
C        0.033   0.6245   0.5305     C
C       0.0332   0.0736   0.4669     C
C       0.0332   0.9264   0.9669     C
C       0.0333   0.3122   0.4111     C
C       0.0333   0.6878   0.9111     C
H       0.0435   0.3307   0.5397     H
H       0.0435   0.6693   0.0397     H
H       0.0437   0.3626   0.1556     H
H       0.0437   0.6374   0.6556     H
H       0.0548   0.2908   0.3899     H
H       0.0548   0.7092   0.8899     H
H       0.0554   0.3972   0.0101     H
H       0.0554   0.6028   0.5101     H
C       0.0562    0.117   0.1203     C
C       0.0562    0.883   0.6203     C
C       0.0564   0.1569   0.0352     C
C       0.0564   0.8431   0.5352     C
C         0.06   0.3024   0.4701     C
C         0.06   0.6976   0.9701     C
N      0.06049   0.3851  0.08791     N
N      0.06049   0.6149  0.58791     N
H        0.076   0.1181   0.1605     H
H        0.076   0.8819   0.6605     H
H       0.0766   0.1847   0.0152     H
H       0.0766   0.8153   0.5152     H
N      0.08644   0.1579  0.09272     N
N      0.08644   0.8421  0.59272     N
C       0.0976   0.0303   0.5009     C
C       0.0976   0.9697   0.0009     C
N      0.12276   0.0374  0.55861     N
N      0.12276   0.9626  0.05861     N
C        0.124   0.2573   0.5025     C
C        0.124   0.7427   0.0025     C
N      0.12621   0.0114    0.973     N
N      0.12621   0.9886    0.473     N
H       0.1318   0.3202    0.233     H
H       0.1318   0.6798    0.733     H
H       0.1322   0.4824   0.5057     H
H       0.1322   0.5176   0.0057     H
H       0.1352   0.0617   0.6616     H
H       0.1352   0.9383   0.1616     H
H       0.1442   0.0866   0.8966     H
H       0.1442   0.9134   0.3966     H
N      0.14786   0.2102  0.47242     N
N      0.14786   0.7898  0.97242     N
H       0.1484   0.4786   0.7365     H
H       0.1484   0.5214   0.2365     H
H       0.1501   0.2963   0.9993     H
H       0.1501   0.7037   0.4993     H
N      0.15324   0.2678  0.55939     N
N      0.15324   0.7322  0.05939     N
Ag     0.15586  0.45773  0.13209    Ag
Ag     0.15586  0.54227  0.63209    Ag
H       0.1619   0.1335   0.3936     H
H       0.1619   0.8665   0.8936     H
C       0.1713   0.2928   0.2557     C
C       0.1713   0.7072   0.7557     C
C       0.1743   0.4592    0.526     C
C       0.1743   0.5408    0.026     C
H       0.1764   0.3353   0.3318     H
H       0.1764   0.6647   0.8318     H
Ag     0.17706  0.24777  0.13272    Ag
Ag     0.17706  0.75223  0.63272    Ag
H       0.1777   0.3196   0.6563     H
H       0.1777   0.6804   0.1563     H
C       0.1792   0.0438   0.6815     C
C       0.1792   0.9562   0.1815     C
H       0.1797    0.411   0.4551     H
H       0.1797    0.589   0.9551     H
C       0.1802    0.002   0.0881     C
C       0.1802    0.998   0.5881     C
C       0.1823   0.0519   0.0067     C
C       0.1823   0.9481   0.5067     C
C       0.1861   0.1094   0.9186     C
C       0.1861   0.8906   0.4186     C
H       0.1891   0.0768   0.7595     H
H       0.1891   0.9232   0.2595     H
C       0.1917   0.3204   0.0204     C
C       0.1917   0.6796   0.5204     C
C       0.1927   0.4951   0.7573     C
C       0.1927   0.5049   0.2573     C
C       0.1977   0.3026    0.315     C
C       0.1977   0.6974    0.815     C
H       0.1978   0.4594   0.8348     H
H       0.1978   0.5406   0.3348     H
N       0.1993   0.2463    0.229     N
N       0.1993   0.7537    0.729     N
H       0.1995   0.1567   0.8521     H
H       0.1995   0.8433   0.3521     H
H       0.2011   0.3662   0.9507     H
H       0.2011   0.6338   0.4507     H
C       0.2021   0.4156   0.4951     C
C       0.2021   0.5844   0.9951     C
C       0.2037   0.1103    0.415     C
C       0.2037   0.8897    0.915     C
N      0.20452   0.4697   0.5833     N
N      0.20452   0.5303   0.0833     N
C       0.2056   0.1724   0.5052     C
C       0.2056   0.8276   0.0052     C
C       0.2099   0.2271   0.5876     C
C       0.2099   0.7729   0.0876     C
N      0.21159   0.0496  0.06475     N
N      0.21159   0.9504  0.56475     N
C       0.2121   0.0529   0.7403     C
C       0.2121   0.9471   0.2403     C
C       0.2123   0.0076   0.6519     C
C       0.2123   0.9924   0.1519     C
H       0.2128   0.0574   0.3485     H
H       0.2128   0.9426   0.8485     H
C       0.2154   0.1014   0.9775     C
C       0.2154   0.8986   0.4775     C
C       0.2158   0.2893   0.6781     C
C       0.2158   0.7107   0.1781     C
C       0.2197    0.152   0.8922     C
N       0.2197    0.313  0.07836     N
N       0.2197    0.687  0.57836     N
C       0.2197    0.848   0.3922     C
C       0.2219   0.4832   0.8166     C
C       0.2219   0.5168   0.3166     C
C        0.222   0.3623   0.9907     C
C        0.222   0.6377   0.4907     C
N       0.2241   0.4712  0.22831     N
N       0.2241   0.5288  0.72831     N
H       0.2268     0.33    0.755     H
H       0.2268     0.67    0.255     H
C       0.2349   0.0647   0.3883     C
C       0.2349   0.9353   0.8883     C
C       0.2358   0.1209   0.4746     C
C       0.2358   0.8791   0.9746     C
N      0.23824    0.178  0.56282     N
N      0.23824    0.822  0.06282     N
C       0.2433   0.2377   0.6514     C
C       0.2433   0.7623   0.1514     C
C       0.2458   0.2953   0.7374     C
C       0.2458   0.7047   0.2374     C
C       0.2542   0.2047   0.2626     C
C       0.2542   0.7953   0.7626     C
C       0.2567   0.2623   0.3486     C
C       0.2567   0.7377   0.8486     C
N      0.26176    0.322  0.43718     N
N      0.26176    0.678  0.93718     N
C       0.2642   0.3791   0.5254     C
C       0.2642   0.6209   0.0254     C
C       0.2651   0.4353   0.6117     C
C       0.2651   0.5647   0.1117     C
H       0.2732     0.17    0.245     H
H       0.2732     0.83    0.745     H
N       0.2759   0.0288  0.77169     N
N       0.2759   0.9712  0.27169     N
C        0.278   0.1377   0.0093     C
C        0.278   0.8623   0.5093     C
C       0.2781   0.0168   0.1834     C
C       0.2781   0.9832   0.6834     C
N       0.2803    0.187  0.92164     N
C       0.2803    0.348   0.1078     C
C       0.2803    0.652   0.6078     C
N       0.2803    0.813  0.42164     N
C       0.2842   0.2107   0.3219     C
C       0.2842   0.7893   0.8219     C
C       0.2846   0.3986   0.0225     C
C       0.2846   0.6014   0.5225     C
H       0.2872   0.4426   0.6515     H
H       0.2872   0.5574   0.1515     H
C       0.2877   0.4924   0.3481     C
C       0.2877   0.5076   0.8481     C
C       0.2879   0.4471   0.2597     C
C       0.2879   0.5529   0.7597     C
N      0.28841   0.4504  0.93525     N
N      0.28841   0.5496  0.43525     N
C       0.2901   0.2729   0.4124     C
C       0.2901   0.7271   0.9124     C
C       0.2944   0.3276   0.4948     C
C       0.2944   0.6724   0.9948     C
N      0.29548   0.0303   0.4167     N
N      0.29548   0.9697   0.9167     N
C       0.2963   0.3897    0.585     C
C       0.2963   0.6103    0.085     C
C       0.2979   0.0844   0.5049     C
C       0.2979   0.9156   0.0049     C
H       0.2989   0.1338   0.0493     H
H       0.2989   0.8662   0.5493     H
H       0.3005   0.3433   0.1479     H
H       0.3005   0.6567   0.6479     H
N       0.3007   0.2537    0.771     N
N       0.3007   0.7463    0.271     N
H       0.3022   0.0406   0.1652     H
H       0.3022   0.9594   0.6652     H
C       0.3023   0.1974    0.685     C
C       0.3023   0.8026    0.185     C
C       0.3073   0.0049   0.2427     C
C       0.3073   0.9951   0.7427     C
C       0.3083   0.1796   0.9796     C
C       0.3083   0.8204   0.4796     C
H       0.3109   0.4232   0.2405     H
H       0.3109   0.5768   0.7405     H
C       0.3139   0.3906   0.0814     C
C       0.3139   0.6094   0.5814     C
C       0.3177   0.4481   0.9933     C
C       0.3177   0.5519   0.4933     C
C       0.3198    0.498   0.9119     C
C       0.3198    0.502   0.4119     C
H       0.3203    0.089   0.5449     H
H       0.3203    0.911   0.0449     H
C       0.3208   0.4562   0.3185     C
C       0.3208   0.5438   0.8185     C
H       0.3223   0.1804   0.3437     H
H       0.3223   0.8196   0.8437     H
Ag     0.32294  0.25223  0.86728    Ag
Ag     0.32294  0.74777  0.36728    Ag
H       0.3236   0.1647   0.6682     H
H       0.3236   0.8353   0.1682     H
C       0.3257   0.0408    0.474     C
C       0.3257   0.9592    0.974     C
C       0.3287   0.2072   0.7443     C
C       0.3287   0.7928   0.2443     C
H       0.3381   0.3665   0.6064     H
H       0.3381   0.6335   0.1064     H
Ag     0.34414  0.04227  0.86791    Ag
Ag     0.34414  0.95773  0.36791    Ag
N      0.34676   0.2322  0.44061     N
N      0.34676   0.7678  0.94061     N
H       0.3499   0.2037   0.0007     H
H       0.3499   0.7963   0.5007     H
H       0.3516   0.0214   0.2635     H
H       0.3516   0.9786   0.7635     H
N      0.35214   0.2898  0.52758     N
N      0.35214   0.7102  0.02758     N
H       0.3558   0.4134   0.1034     H
H       0.3558   0.5866   0.6034     H
H       0.3648   0.4383   0.3384     H
H       0.3648   0.5617   0.8384     H
H       0.3678   0.0176   0.4943     H
H       0.3678   0.9824   0.9943     H
H       0.3682   0.1798    0.767     H
H       0.3682   0.8202    0.267     H
N      0.37379   0.4886    0.027     N
N      0.37379   0.5114    0.527     N
C        0.376   0.2427   0.4975     C
C        0.376   0.7573   0.9975     C
N      0.37724   0.4626  0.44139     N
N      0.37724   0.5374  0.94139     N
C       0.4024   0.4697   0.4991     C
C       0.4024   0.5303   0.9991     C
N      0.41356   0.3421  0.90728     N
N      0.41356   0.6579  0.40728     N
H       0.4234   0.3153   0.9848     H
H       0.4234   0.6847   0.4848     H
H        0.424   0.3819   0.8395     H
H        0.424   0.6181   0.3395     H
N      0.43951   0.1149  0.91209     N
N      0.43951   0.8851  0.41209     N
C         0.44   0.1976   0.5299     C
C         0.44   0.8024   0.0299     C
C       0.4436   0.3431   0.9648     C
C       0.4436   0.6569   0.4648     C
C       0.4438    0.383   0.8797     C
C       0.4438    0.617   0.3797     C
H       0.4446   0.1028   0.9899     H
H       0.4446   0.8972   0.4899     H
H       0.4452   0.2092   0.6101     H
H       0.4452   0.7908   0.1101     H
H       0.4563   0.1374   0.8444     H
H       0.4563   0.8626   0.3444     H
H       0.4565   0.1693   0.4603     H
H       0.4565   0.8307   0.9603     H
C       0.4667   0.1878   0.5889     C
C       0.4667   0.8122   0.0889     C
C       0.4668   0.4264   0.5331     C
C       0.4668   0.5736   0.0331     C
C        0.467   0.1245   0.9695     C
C        0.467   0.8755   0.4695     C
C       0.4736   0.1453   0.8842     C
C       0.4736   0.8547   0.3842     C
C       0.4738   0.1645   0.5002     C
C       0.4738   0.8355   0.0002     C
H       0.4769   0.3819   0.4634     H
H       0.4769   0.6181   0.9634     H
H       0.4795   0.4557    0.614     H
H       0.4795   0.5443    0.114     H
C       0.4966   0.3835   0.5036     C
C       0.4966   0.6165   0.0036     C
C       0.4977   0.4267   0.5929     C
C       0.4977   0.5733   0.0929     C
C       0.5023   0.4267   0.9071     C
C       0.5023   0.5733   0.4071     C
C       0.5034   0.3835   0.9964     C
C       0.5034   0.6165   0.4964     C
H       0.5205   0.4557    0.886     H
H       0.5205   0.5443    0.386     H
H       0.5231   0.3819   0.0366     H
H       0.5231   0.6181   0.5366     H
C       0.5262   0.1645   0.9998     C
C       0.5262   0.8355   0.4998     C
C       0.5264   0.1453   0.6158     C
C       0.5264   0.8547   0.1158     C
C        0.533   0.1245   0.5305     C
C        0.533   0.8755   0.0305     C
C       0.5332   0.4264   0.9669     C
C       0.5332   0.5736   0.4669     C
C       0.5333   0.1878   0.9111     C
C       0.5333   0.8122   0.4111     C
H       0.5435   0.1693   0.0397     H
H       0.5435   0.8307   0.5397     H
H       0.5437   0.1374   0.6556     H
H       0.5437   0.8626   0.1556     H
H       0.5548   0.2092   0.8899     H
H       0.5548   0.7908   0.3899     H
H       0.5554   0.1028   0.5101     H
H       0.5554   0.8972   0.0101     H
C       0.5562    0.383   0.6203     C
C       0.5562    0.617   0.1203     C
C       0.5564   0.3431   0.5352     C
C       0.5564   0.6569   0.0352     C
C         0.56   0.1976   0.9701     C
C         0.56   0.8024   0.4701     C
N      0.56049   0.1149  0.58791     N
N      0.56049   0.8851  0.08791     N
H        0.576   0.3819   0.6605     H
H        0.576   0.6181   0.1605     H
H       0.5766   0.3153   0.5152     H
H       0.5766   0.6847   0.0152     H
N      0.58644   0.3421  0.59272     N
N      0.58644   0.6579  0.09272     N
C       0.5976   0.4697   0.0009     C
C       0.5976   0.5303   0.5009     C
N      0.62276   0.4626  0.05861     N
N      0.62276   0.5374  0.55861     N
C        0.624   0.2427   0.0025     C
C        0.624   0.7573   0.5025     C
N      0.62621   0.4886    0.473     N
N      0.62621   0.5114    0.973     N
H       0.6318   0.1798    0.733     H
H       0.6318   0.8202    0.233     H
H       0.6322   0.0176   0.0057     H
H       0.6322   0.9824   0.5057     H
H       0.6352   0.4383   0.1616     H
H       0.6352   0.5617   0.6616     H
H       0.6442   0.4134   0.3966     H
H       0.6442   0.5866   0.8966     H
N      0.64786   0.2898  0.97242     N
N      0.64786   0.7102  0.47242     N
H       0.6484   0.0214   0.2365     H
H       0.6484   0.9786   0.7365     H
H       0.6501   0.2037   0.4993     H
H       0.6501   0.7963   0.9993     H
N      0.65324   0.2322  0.05939     N
N      0.65324   0.7678  0.55939     N
Ag     0.65586  0.04227  0.63209    Ag
Ag     0.65586  0.95773  0.13209    Ag
H       0.6619   0.3665   0.8936     H
H       0.6619   0.6335   0.3936     H
C       0.6713   0.2072   0.7557     C
C       0.6713   0.7928   0.2557     C
C       0.6743   0.0408    0.026     C
C       0.6743   0.9592    0.526     C
H       0.6764   0.1647   0.8318     H
H       0.6764   0.8353   0.3318     H
Ag     0.67706  0.25223  0.63272    Ag
Ag     0.67706  0.74777  0.13272    Ag
H       0.6777   0.1804   0.1563     H
H       0.6777   0.8196   0.6563     H
C       0.6792   0.4562   0.1815     C
C       0.6792   0.5438   0.6815     C
H       0.6797    0.089   0.9551     H
H       0.6797    0.911   0.4551     H
C       0.6802    0.498   0.5881     C
C       0.6802    0.502   0.0881     C
C       0.6823   0.4481   0.5067     C
C       0.6823   0.5519   0.0067     C
C       0.6861   0.3906   0.4186     C
C       0.6861   0.6094   0.9186     C
H       0.6891   0.4232   0.2595     H
H       0.6891   0.5768   0.7595     H
C       0.6917   0.1796   0.5204     C
C       0.6917   0.8204   0.0204     C
C       0.6927   0.0049   0.2573     C
C       0.6927   0.9951   0.7573     C
C       0.6977   0.1974    0.815     C
C       0.6977   0.8026    0.315     C
H       0.6978   0.0406   0.3348     H
H       0.6978   0.9594   0.8348     H
N       0.6993   0.2537    0.729     N
N       0.6993   0.7463    0.229     N
H       0.6995   0.3433   0.3521     H
H       0.6995   0.6567   0.8521     H
H       0.7011   0.1338   0.4507     H
H       0.7011   0.8662   0.9507     H
C       0.7021   0.0844   0.9951     C
C       0.7021   0.9156   0.4951     C
C       0.7037   0.3897    0.915     C
C       0.7037   0.6103    0.415     C
N      0.70452   0.0303   0.0833     N
N      0.70452   0.9697   0.5833     N
C       0.7056   0.3276   0.0052     C
C       0.7056   0.6724   0.5052     C
C       0.7099   0.2729   0.0876     C
C       0.7099   0.7271   0.5876     C
N      0.71159   0.4504  0.56475     N
N      0.71159   0.5496  0.06475     N
C       0.7121   0.4471   0.2403     C
C       0.7121   0.5529   0.7403     C
C       0.7123   0.4924   0.1519     C
C       0.7123   0.5076   0.6519     C
H       0.7128   0.4426   0.8485     H
H       0.7128   0.5574   0.3485     H
C       0.7154   0.3986   0.4775     C
C       0.7154   0.6014   0.9775     C
C       0.7158   0.2107   0.1781     C
C       0.7158   0.7893   0.6781     C
N       0.7197    0.187  0.57836     N
C       0.7197    0.348   0.3922     C
C       0.7197    0.652   0.8922     C
N       0.7197    0.813  0.07836     N
C       0.7219   0.0168   0.3166     C
C       0.7219   0.9832   0.8166     C
C        0.722   0.1377   0.4907     C
C        0.722   0.8623   0.9907     C
N       0.7241   0.0288  0.72831     N
N       0.7241   0.9712  0.22831     N
H       0.7268     0.17    0.255     H
H       0.7268     0.83    0.755     H
C       0.7349   0.4353   0.8883     C
C       0.7349   0.5647   0.3883     C
C       0.7358   0.3791   0.9746     C
C       0.7358   0.6209   0.4746     C
N      0.73824    0.322  0.06282     N
N      0.73824    0.678  0.56282     N
C       0.7433   0.2623   0.1514     C
C       0.7433   0.7377   0.6514     C
C       0.7458   0.2047   0.2374     C
C       0.7458   0.7953   0.7374     C
C       0.7542   0.2953   0.7626     C
C       0.7542   0.7047   0.2626     C
C       0.7567   0.2377   0.8486     C
C       0.7567   0.7623   0.3486     C
N      0.76176    0.178  0.93718     N
N      0.76176    0.822  0.43718     N
C       0.7642   0.1209   0.0254     C
C       0.7642   0.8791   0.5254     C
C       0.7651   0.0647   0.1117     C
C       0.7651   0.9353   0.6117     C
H       0.7732     0.33    0.745     H
H       0.7732     0.67    0.245     H
N       0.7759   0.4712  0.27169     N
N       0.7759   0.5288  0.77169     N
C        0.778   0.3623   0.5093     C
C        0.778   0.6377   0.0093     C
C       0.7781   0.4832   0.6834     C
C       0.7781   0.5168   0.1834     C
C       0.7803    0.152   0.6078     C
N       0.7803    0.313  0.42164     N
N       0.7803    0.687  0.92164     N
C       0.7803    0.848   0.1078     C
C       0.7842   0.2893   0.8219     C
C       0.7842   0.7107   0.3219     C
C       0.7846   0.1014   0.5225     C
C       0.7846   0.8986   0.0225     C
H       0.7872   0.0574   0.1515     H
H       0.7872   0.9426   0.6515     H
C       0.7877   0.0076   0.8481     C
C       0.7877   0.9924   0.3481     C
C       0.7879   0.0529   0.7597     C
C       0.7879   0.9471   0.2597     C
N      0.78841   0.0496  0.43525     N
N      0.78841   0.9504  0.93525     N
C       0.7901   0.2271   0.9124     C
C       0.7901   0.7729   0.4124     C
C       0.7944   0.1724   0.9948     C
C       0.7944   0.8276   0.4948     C
N      0.79548   0.4697   0.9167     N
N      0.79548   0.5303   0.4167     N
C       0.7963   0.1103    0.085     C
C       0.7963   0.8897    0.585     C
C       0.7979   0.4156   0.0049     C
C       0.7979   0.5844   0.5049     C
H       0.7989   0.3662   0.5493     H
H       0.7989   0.6338   0.0493     H
H       0.8005   0.1567   0.6479     H
H       0.8005   0.8433   0.1479     H
N       0.8007   0.2463    0.271     N
N       0.8007   0.7537    0.771     N
H       0.8022   0.4594   0.6652     H
H       0.8022   0.5406   0.1652     H
C       0.8023   0.3026    0.185     C
C       0.8023   0.6974    0.685     C
C       0.8073   0.4951   0.7427     C
C       0.8073   0.5049   0.2427     C
C       0.8083   0.3204   0.4796     C
C       0.8083   0.6796   0.9796     C
H       0.8109   0.0768   0.7405     H
H       0.8109   0.9232   0.2405     H
C       0.8139   0.1094   0.5814     C
C       0.8139   0.8906   0.0814     C
C       0.8177   0.0519   0.4933     C
C       0.8177   0.9481   0.9933     C
C       0.8198    0.002   0.4119     C
C       0.8198    0.998   0.9119     C
H       0.8203    0.411   0.0449     H
H       0.8203    0.589   0.5449     H
C       0.8208   0.0438   0.8185     C
C       0.8208   0.9562   0.3185     C
H       0.8223   0.3196   0.8437     H
H       0.8223   0.6804   0.3437     H
Ag     0.82294  0.24777  0.36728    Ag
Ag     0.82294  0.75223  0.86728    Ag
H       0.8236   0.3353   0.1682     H
H       0.8236   0.6647   0.6682     H
C       0.8257   0.4592    0.974     C
C       0.8257   0.5408    0.474     C
C       0.8287   0.2928   0.2443     C
C       0.8287   0.7072   0.7443     C
H       0.8381   0.1335   0.1064     H
H       0.8381   0.8665   0.6064     H
Ag     0.84414  0.45773  0.36791    Ag
Ag     0.84414  0.54227  0.86791    Ag
N      0.84676   0.2678  0.94061     N
N      0.84676   0.7322  0.44061     N
H       0.8499   0.2963   0.5007     H
H       0.8499   0.7037   0.0007     H
H       0.8516   0.4786   0.7635     H
H       0.8516   0.5214   0.2635     H
N      0.85214   0.2102  0.02758     N
N      0.85214   0.7898  0.52758     N
H       0.8558   0.0866   0.6034     H
H       0.8558   0.9134   0.1034     H
H       0.8648   0.0617   0.8384     H
H       0.8648   0.9383   0.3384     H
H       0.8678   0.4824   0.9943     H
H       0.8678   0.5176   0.4943     H
H       0.8682   0.3202    0.267     H
H       0.8682   0.6798    0.767     H
N      0.87379   0.0114    0.527     N
N      0.87379   0.9886    0.027     N
C        0.876   0.2573   0.9975     C
C        0.876   0.7427   0.4975     C
N      0.87724   0.0374  0.94139     N
N      0.87724   0.9626  0.44139     N
C       0.9024   0.0303   0.9991     C
C       0.9024   0.9697   0.4991     C
N      0.91356   0.1579  0.40728     N
N      0.91356   0.8421  0.90728     N
H       0.9234   0.1847   0.4848     H
H       0.9234   0.8153   0.9848     H
H        0.924   0.1181   0.3395     H
H        0.924   0.8819   0.8395     H
N      0.93951   0.3851  0.41209     N
N      0.93951   0.6149  0.91209     N
C         0.94   0.3024   0.0299     C
C         0.94   0.6976   0.5299     C
C       0.9436   0.1569   0.4648     C
C       0.9436   0.8431   0.9648     C
C       0.9438    0.117   0.3797     C
C       0.9438    0.883   0.8797     C
H       0.9446   0.3972   0.4899     H
H       0.9446   0.6028   0.9899     H
H       0.9452   0.2908   0.1101     H
H       0.9452   0.7092   0.6101     H
H       0.9563   0.3626   0.3444     H
H       0.9563   0.6374   0.8444     H
H       0.9565   0.3307   0.9603     H
H       0.9565   0.6693   0.4603     H
C       0.9667   0.3122   0.0889     C
C       0.9667   0.6878   0.5889     C
C       0.9668   0.0736   0.0331     C
C       0.9668   0.9264   0.5331     C
C        0.967   0.3755   0.4695     C
C        0.967   0.6245   0.9695     C
C       0.9736   0.3547   0.3842     C
C       0.9736   0.6453   0.8842     C
C       0.9738   0.3355   0.0002     C
C       0.9738   0.6645   0.5002     C
H       0.9769   0.1181   0.9634     H
H       0.9769   0.8819   0.4634     H
H       0.9795   0.0443    0.114     H
H       0.9795   0.9557    0.614     H
C       0.9966   0.1165   0.0036     C
C       0.9966   0.8835   0.5036     C
C       0.9977   0.0733   0.0929     C
C       0.9977   0.9267   0.5929     C
