data_I
_chemical_name_common  '/home/zhangsd/repos/MofS-CGCNN/ML/data/TSD/clean_cifs/QOHTOX_clean'
_cell_length_a 13.71700
_cell_length_b 14.78780
_cell_length_c 21.02820
_cell_angle_alpha 90.00000
_cell_angle_beta  90.00000
_cell_angle_gamma 90.00000
_space_group_name_H-M_alt      'P 1'


loop_
_space_group_symop_operation_xyz
  'x, y, z' 

loop_
_atom_site_label
_atom_site_fract_x
_atom_site_fract_y
_atom_site_fract_z
_atom_site_type_symbol
C       0.0019   0.0731   0.4181     C
C       0.0019   0.4269   0.9181     C
H       0.0079   0.5888    0.709     H
H       0.0079   0.9112    0.209     H
C       0.0118    0.602   0.5841     C
C       0.0118    0.898   0.0841     C
C       0.0162   0.6497   0.6974     C
C       0.0162   0.8503   0.1974     C
H       0.0171   0.6377   0.8226     H
H       0.0171   0.8623   0.3226     H
C       0.0205   0.6698   0.6363     C
C       0.0205   0.8302   0.1363     C
C       0.0217   0.6983   0.8096     C
C       0.0217   0.8017   0.3096     C
H       0.0221   0.5444   0.1185     H
H       0.0221   0.9556   0.6185     H
C       0.0236   0.7163   0.7473     C
C       0.0236   0.7837   0.2473     C
O       0.0259   0.6477   0.3424     O
O       0.0259   0.8523   0.8424     O
C       0.0264   0.7306   0.3588     C
C       0.0264   0.7694   0.8588     C
O       0.0265   0.0279  0.90312     O
O       0.0265   0.4721  0.40312     O
H       0.0295   0.7307   0.6249     H
O       0.0295   0.7489  0.91648     O
O       0.0295   0.7511  0.41648     O
H       0.0295   0.7693   0.1249     H
H       0.0303   0.7229   0.2351     H
H       0.0303   0.7771   0.7351     H
Co     0.03092  0.59976  0.43806    Co
Co     0.03092  0.90024  0.93806    Co
H       0.0389   0.6325   0.0034     H
H       0.0389   0.8675   0.5034     H
O       0.0444   0.6271  0.53115     O
O       0.0444   0.8729  0.03115     O
C       0.0634   0.6053   0.0405     C
C       0.0634   0.8947   0.5405     C
C       0.1076   0.0789   0.4252     C
C       0.1076   0.4211   0.9252     C
H        0.116   0.1417   0.5109     H
H        0.116   0.3583   0.0109     H
N       0.1257   0.1025  0.05577     N
N       0.1257   0.3975  0.55577     N
H       0.1368   0.1749   0.9777     H
H       0.1368   0.3251   0.4777     H
H       0.1412   0.0179   0.3414     H
H       0.1412   0.4821   0.8414     H
H       0.1511   0.0323   0.1338     H
H       0.1511   0.4677   0.6338     H
C       0.1533   0.1179   0.4773     C
C       0.1533   0.3821   0.9773     C
C       0.1683   0.0453   0.3777     C
C       0.1683   0.4547   0.8777     C
C       0.1691   0.6022   0.0475     C
C       0.1691   0.8978   0.5475     C
C       0.1738   0.1443   0.0086     C
C       0.1738   0.3557   0.5086     C
C       0.1821   0.0614   0.0996     C
C       0.1821   0.4386   0.5996     C
H       0.1828   0.5293   0.1292     H
H       0.1828   0.9707   0.6292     H
N       0.1879   0.5904  0.43388     N
N       0.1879   0.9096  0.93388     N
H        0.193   0.5284   0.3512     H
H        0.193   0.9716   0.8512     H
H       0.1972    0.675   0.9677     H
H       0.1972    0.825   0.4677     H
H       0.2176   0.6478   0.5158     H
H       0.2176   0.8522   0.0158     H
C       0.2182   0.5594   0.0973     C
C       0.2182   0.9406   0.5973     C
C       0.2264   0.6453   0.0023     C
C       0.2264   0.8547   0.5023     C
C       0.2322   0.5521   0.3839     C
C       0.2322   0.9479   0.8839     C
C       0.2466   0.6217   0.4797     C
C       0.2466   0.8783   0.9797     C
C       0.2534   0.1217   0.4797     C
C       0.2534   0.3783   0.9797     C
C       0.2678   0.0521   0.3839     C
C       0.2678   0.4479   0.8839     C
C       0.2736   0.1453   0.0023     C
C       0.2736   0.3547   0.5023     C
C       0.2818   0.0594   0.0973     C
C       0.2818   0.4406   0.5973     C
H       0.2824   0.1478   0.5158     H
H       0.2824   0.3522   0.0158     H
H       0.3028    0.175   0.9677     H
H       0.3028    0.325   0.4677     H
H        0.307   0.0284   0.3512     H
H        0.307   0.4716   0.8512     H
N       0.3121   0.0904  0.43388     N
N       0.3121   0.4096  0.93388     N
H       0.3172   0.0293   0.1292     H
H       0.3172   0.4707   0.6292     H
C       0.3179   0.5614   0.0996     C
C       0.3179   0.9386   0.5996     C
C       0.3262   0.6443   0.0086     C
C       0.3262   0.8557   0.5086     C
C       0.3309   0.1022   0.0475     C
C       0.3309   0.3978   0.5475     C
C       0.3317   0.5453   0.3777     C
C       0.3317   0.9547   0.8777     C
C       0.3467   0.6179   0.4773     C
C       0.3467   0.8821   0.9773     C
H       0.3489   0.5323   0.1338     H
H       0.3489   0.9677   0.6338     H
H       0.3588   0.5179   0.3414     H
H       0.3588   0.9821   0.8414     H
H       0.3632   0.6749   0.9777     H
H       0.3632   0.8251   0.4777     H
N       0.3743   0.6025  0.05577     N
N       0.3743   0.8975  0.55577     N
H        0.384   0.6417   0.5109     H
H        0.384   0.8583   0.0109     H
C       0.3924   0.5789   0.4252     C
C       0.3924   0.9211   0.9252     C
C       0.4366   0.1053   0.0405     C
C       0.4366   0.3947   0.5405     C
O       0.4556   0.1271  0.53115     O
O       0.4556   0.3729  0.03115     O
H       0.4611   0.1325   0.0034     H
H       0.4611   0.3675   0.5034     H
Co     0.46908  0.09976  0.43806    Co
Co     0.46908  0.40024  0.93806    Co
H       0.4697   0.2229   0.2351     H
H       0.4697   0.2771   0.7351     H
H       0.4705   0.2307   0.6249     H
O       0.4705   0.2489  0.91648     O
O       0.4705   0.2511  0.41648     O
H       0.4705   0.2693   0.1249     H
O       0.4735   0.5279  0.90312     O
O       0.4735   0.9721  0.40312     O
C       0.4736   0.2306   0.3588     C
C       0.4736   0.2694   0.8588     C
O       0.4741   0.1477   0.3424     O
O       0.4741   0.3523   0.8424     O
C       0.4764   0.2163   0.7473     C
C       0.4764   0.2837   0.2473     C
H       0.4779   0.0444   0.1185     H
H       0.4779   0.4556   0.6185     H
C       0.4783   0.1983   0.8096     C
C       0.4783   0.3017   0.3096     C
C       0.4795   0.1698   0.6363     C
C       0.4795   0.3302   0.1363     C
H       0.4829   0.1377   0.8226     H
H       0.4829   0.3623   0.3226     H
C       0.4838   0.1497   0.6974     C
C       0.4838   0.3503   0.1974     C
C       0.4882    0.102   0.5841     C
C       0.4882    0.398   0.0841     C
H       0.4921   0.0888    0.709     H
H       0.4921   0.4112    0.209     H
C       0.4981   0.5731   0.4181     C
C       0.4981   0.9269   0.9181     C
C       0.5019   0.0731   0.0819     C
C       0.5019   0.4269   0.5819     C
H       0.5079   0.5888    0.791     H
H       0.5079   0.9112    0.291     H
C       0.5118    0.602   0.9159     C
C       0.5118    0.898   0.4159     C
C       0.5162   0.6497   0.8026     C
C       0.5162   0.8503   0.3026     C
H       0.5171   0.6377   0.6774     H
H       0.5171   0.8623   0.1774     H
C       0.5205   0.6698   0.8637     C
C       0.5205   0.8302   0.3637     C
C       0.5217   0.6983   0.6904     C
C       0.5217   0.8017   0.1904     C
H       0.5221   0.5444   0.3815     H
H       0.5221   0.9556   0.8815     H
C       0.5236   0.7163   0.7527     C
C       0.5236   0.7837   0.2527     C
O       0.5259   0.6477   0.1576     O
O       0.5259   0.8523   0.6576     O
C       0.5264   0.7306   0.1412     C
C       0.5264   0.7694   0.6412     C
O       0.5265   0.0279  0.59688     O
O       0.5265   0.4721  0.09688     O
H       0.5295   0.7307   0.8751     H
O       0.5295   0.7489  0.58352     O
O       0.5295   0.7511  0.08352     O
H       0.5295   0.7693   0.3751     H
H       0.5303   0.7229   0.2649     H
H       0.5303   0.7771   0.7649     H
Co     0.53092  0.59976  0.06194    Co
Co     0.53092  0.90024  0.56194    Co
H       0.5389   0.6325   0.4966     H
H       0.5389   0.8675   0.9966     H
O       0.5444   0.6271  0.96885     O
O       0.5444   0.8729  0.46885     O
C       0.5634   0.6053   0.4595     C
C       0.5634   0.8947   0.9595     C
C       0.6076   0.0789   0.0748     C
C       0.6076   0.4211   0.5748     C
H        0.616   0.1417   0.9891     H
H        0.616   0.3583   0.4891     H
N       0.6257   0.1025  0.44423     N
N       0.6257   0.3975  0.94423     N
H       0.6368   0.1749   0.5223     H
H       0.6368   0.3251   0.0223     H
H       0.6412   0.0179   0.1586     H
H       0.6412   0.4821   0.6586     H
H       0.6511   0.0323   0.3662     H
H       0.6511   0.4677   0.8662     H
C       0.6533   0.1179   0.0227     C
C       0.6533   0.3821   0.5227     C
C       0.6683   0.0453   0.1223     C
C       0.6683   0.4547   0.6223     C
C       0.6691   0.6022   0.4525     C
C       0.6691   0.8978   0.9525     C
C       0.6738   0.1443   0.4914     C
C       0.6738   0.3557   0.9914     C
C       0.6821   0.0614   0.4004     C
C       0.6821   0.4386   0.9004     C
H       0.6828   0.5293   0.3708     H
H       0.6828   0.9707   0.8708     H
N       0.6879   0.5904  0.06612     N
N       0.6879   0.9096  0.56612     N
H        0.693   0.5284   0.1488     H
H        0.693   0.9716   0.6488     H
H       0.6972    0.675   0.5323     H
H       0.6972    0.825   0.0323     H
H       0.7176   0.6478   0.9842     H
H       0.7176   0.8522   0.4842     H
C       0.7182   0.5594   0.4027     C
C       0.7182   0.9406   0.9027     C
C       0.7264   0.6453   0.4977     C
C       0.7264   0.8547   0.9977     C
C       0.7322   0.5521   0.1161     C
C       0.7322   0.9479   0.6161     C
C       0.7466   0.6217   0.0203     C
C       0.7466   0.8783   0.5203     C
C       0.7534   0.1217   0.0203     C
C       0.7534   0.3783   0.5203     C
C       0.7678   0.0521   0.1161     C
C       0.7678   0.4479   0.6161     C
C       0.7736   0.1453   0.4977     C
C       0.7736   0.3547   0.9977     C
C       0.7818   0.0594   0.4027     C
C       0.7818   0.4406   0.9027     C
H       0.7824   0.1478   0.9842     H
H       0.7824   0.3522   0.4842     H
H       0.8028    0.175   0.5323     H
H       0.8028    0.325   0.0323     H
H        0.807   0.0284   0.1488     H
H        0.807   0.4716   0.6488     H
N       0.8121   0.0904  0.06612     N
N       0.8121   0.4096  0.56612     N
H       0.8172   0.0293   0.3708     H
H       0.8172   0.4707   0.8708     H
C       0.8179   0.5614   0.4004     C
C       0.8179   0.9386   0.9004     C
C       0.8262   0.6443   0.4914     C
C       0.8262   0.8557   0.9914     C
C       0.8309   0.1022   0.4525     C
C       0.8309   0.3978   0.9525     C
C       0.8317   0.5453   0.1223     C
C       0.8317   0.9547   0.6223     C
C       0.8467   0.6179   0.0227     C
C       0.8467   0.8821   0.5227     C
H       0.8489   0.5323   0.3662     H
H       0.8489   0.9677   0.8662     H
H       0.8588   0.5179   0.1586     H
H       0.8588   0.9821   0.6586     H
H       0.8632   0.6749   0.5223     H
H       0.8632   0.8251   0.0223     H
N       0.8743   0.6025  0.44423     N
N       0.8743   0.8975  0.94423     N
H        0.884   0.6417   0.9891     H
H        0.884   0.8583   0.4891     H
C       0.8924   0.5789   0.0748     C
C       0.8924   0.9211   0.5748     C
C       0.9366   0.1053   0.4595     C
C       0.9366   0.3947   0.9595     C
O       0.9556   0.1271  0.96885     O
O       0.9556   0.3729  0.46885     O
H       0.9611   0.1325   0.4966     H
H       0.9611   0.3675   0.9966     H
Co     0.96908  0.09976  0.06194    Co
Co     0.96908  0.40024  0.56194    Co
H       0.9697   0.2229   0.2649     H
H       0.9697   0.2771   0.7649     H
H       0.9705   0.2307   0.8751     H
O       0.9705   0.2489  0.58352     O
O       0.9705   0.2511  0.08352     O
H       0.9705   0.2693   0.3751     H
O       0.9735   0.5279  0.59688     O
O       0.9735   0.9721  0.09688     O
C       0.9736   0.2306   0.1412     C
C       0.9736   0.2694   0.6412     C
O       0.9741   0.1477   0.1576     O
O       0.9741   0.3523   0.6576     O
C       0.9764   0.2163   0.7527     C
C       0.9764   0.2837   0.2527     C
H       0.9779   0.0444   0.3815     H
H       0.9779   0.4556   0.8815     H
C       0.9783   0.1983   0.6904     C
C       0.9783   0.3017   0.1904     C
C       0.9795   0.1698   0.8637     C
C       0.9795   0.3302   0.3637     C
H       0.9829   0.1377   0.6774     H
H       0.9829   0.3623   0.1774     H
C       0.9838   0.1497   0.8026     C
C       0.9838   0.3503   0.3026     C
C       0.9882    0.102   0.9159     C
C       0.9882    0.398   0.4159     C
H       0.9921   0.0888    0.791     H
H       0.9921   0.4112    0.291     H
C       0.9981   0.5731   0.0819     C
C       0.9981   0.9269   0.5819     C
