data_I
_chemical_name_common  '/home/zhangsd/repos/MofS-CGCNN/ML/data/TSD/clean_cifs/QOMDUS_clean'
_cell_length_a  9.15860
_cell_length_b  9.79690
_cell_length_c  9.87300
_cell_angle_alpha 77.59800
_cell_angle_beta  89.94700
_cell_angle_gamma 88.06000
_space_group_name_H-M_alt      'P 1'


loop_
_space_group_symop_operation_xyz
  'x, y, z' 

loop_
_atom_site_label
_atom_site_fract_x
_atom_site_fract_y
_atom_site_fract_z
_atom_site_type_symbol
Zn         0.0      0.5      0.0    Zn
O       0.0053   0.2758    0.076     O
C       0.0152   0.4743   0.3107     C
C       0.0225   0.0466   0.0333     C
C       0.0284   0.4731   0.5622     C
O        0.033   0.4571   0.8037     O
C       0.0501   0.8109   0.9848     C
O        0.097   0.3664   0.3282     O
H       0.0993   0.3986   0.5713     H
H       0.1035   0.0232   0.0949     H
O        0.165   0.7891   0.0585     O
Zn      0.2202  0.28676   0.1911    Zn
O       0.2213   0.4702   0.0343     O
H       0.2714   0.4517   0.9496     H
Zn      0.3028  0.62976  0.08942    Zn
O       0.3286   0.1708   0.0751     O
O       0.3545   0.5728    0.284     O
H       0.3861   0.9225   0.0698     H
O       0.3985   0.3418   0.2992     O
C       0.4062   0.4526   0.3419     C
C       0.4519   0.1882   0.0193     C
C        0.474   0.9353   0.0181     C
C       0.4838   0.4443   0.4774     C
O        0.486   0.6955   0.0029     O
H       0.4897   0.6452   0.4677     H
H       0.5103   0.3548   0.5323     H
O        0.514   0.3045   0.9971     O
C       0.5162   0.5557   0.5226     C
C        0.526   0.0647   0.9819     C
C       0.5481   0.8118   0.9807     C
C       0.5938   0.5474   0.6581     C
O       0.6015   0.6582   0.7008     O
H       0.6139   0.0775   0.9302     H
O       0.6455   0.4272    0.716     O
O       0.6714   0.8292   0.9249     O
Zn      0.6972  0.37024  0.91058    Zn
H       0.7286   0.5483   0.0504     H
O       0.7787   0.5298   0.9657     O
Zn      0.7798  0.71324   0.8089    Zn
O        0.835   0.2109   0.9415     O
H       0.8965   0.9768   0.9051     H
H       0.9007   0.6014   0.4287     H
O        0.903   0.6336   0.6718     O
C       0.9499   0.1891   0.0152     C
O        0.967   0.5429   0.1963     O
C       0.9716   0.5269   0.4378     C
C       0.9775   0.9534   0.9667     C
C       0.9848   0.5257   0.6893     C
O       0.9947   0.7242    0.924     O
