data_I
_chemical_name_common  '/home/zhangsd/repos/MofS-CGCNN/ML/data/TSD/clean_cifs/QOMSES_clean'
_cell_length_a 13.09000
_cell_length_b 14.74400
_cell_length_c 15.57500
_cell_angle_alpha 90.00000
_cell_angle_beta  91.64100
_cell_angle_gamma 90.00000
_space_group_name_H-M_alt      'P 1'


loop_
_space_group_symop_operation_xyz
  'x, y, z' 

loop_
_atom_site_label
_atom_site_fract_x
_atom_site_fract_y
_atom_site_fract_z
_atom_site_type_symbol
Cu         0.0      0.0      0.0    Cu
Cu     0.02147  0.79555  0.89894    Cu
N       0.0715   0.0053   0.8862     N
N       0.0773   0.2428   0.1954     N
N       0.0821   0.9366    0.833     N
N       0.0837    0.124   0.0526     N
H       0.0839   0.1299   0.2544     H
N       0.1013   0.9055   0.0421     N
H        0.102   0.3654   0.1493     H
C       0.1091   0.1888   0.2554     C
N        0.112   0.8283   0.0019     N
C       0.1193   0.3264   0.1944     C
N       0.1244    0.076   0.8609     N
N       0.1299   0.7172   0.8473     N
H       0.1329   0.7883   0.7421     H
N       0.1418   0.9628   0.7689     N
H       0.1474   0.6263   0.9379     H
C       0.1589   0.7361   0.7682     C
N       0.1619   0.9067   0.1125     N
C       0.1666   0.0472   0.7875     C
C       0.1674   0.6417    0.883     C
N       0.1696   0.1384   0.0561     N
C        0.177    0.211   0.3207     C
N       0.1795   0.7768   0.0436     N
C       0.1856   0.3556   0.2566     C
H       0.1952   0.1689   0.3629     H
C       0.2081   0.8265    0.112     C
H       0.2099   0.4148   0.2556     H
C       0.2176   0.2967   0.3225     C
C       0.2241    0.684    0.723     C
C       0.2348   0.5849   0.8422     C
C       0.2352   0.1062   0.7405     C
H       0.2402   0.0331   0.6304     H
H       0.2412   0.7007   0.6677     H
N       0.2443   0.6533   0.4407     N
N       0.2557   0.1533   0.0593     N
H       0.2588   0.2007   0.8323     H
H       0.2598   0.5331   0.8696     H
C       0.2648   0.6062   0.7595     C
C       0.2652   0.0849   0.6578     C
C       0.2759    0.184    0.777     C
C       0.2824   0.7967   0.1775     C
H       0.2901   0.9148   0.2444     H
C       0.2919   0.3265    0.388     C
H       0.3048   0.6689   0.1371     H
C       0.3144   0.8556   0.2434     C
N       0.3205   0.2768   0.4564     N
C        0.323    0.711   0.1793     C
N       0.3304   0.6384   0.4439     N
C       0.3326   0.1417    0.617     C
C       0.3334   0.5472   0.7125     C
N       0.3381   0.4067   0.3875     N
C       0.3411   0.2361   0.7318     C
H       0.3526   0.1263   0.5621     H
N       0.3582   0.4628   0.7311     N
H       0.3671   0.2883   0.7579     H
N       0.3701   0.2172   0.6527     N
N       0.3756    0.576   0.6391     N
C       0.3807   0.8264   0.3056     C
N        0.388   0.3283   0.4981     N
C       0.3909   0.6888   0.2446     C
H        0.398   0.8654   0.3507     H
N       0.3987   0.4055   0.4579     N
H       0.4161   0.6299   0.2456     H
N       0.4163    0.624   0.4474     N
N       0.4179   0.4366    0.667     N
N       0.4227   0.7428   0.3046     N
N       0.4285   0.5053   0.6138     N
Cu     0.47853  0.29555  0.60106    Cu
Cu         0.5      0.5      0.5    Cu
Cu     0.52147  0.70445  0.39894    Cu
N       0.5715   0.4947   0.3862     N
N       0.5773   0.2572   0.6954     N
N       0.5821   0.5634    0.333     N
N       0.5837    0.376   0.5526     N
H       0.5839   0.3701   0.7544     H
N       0.6013   0.5945   0.5421     N
H        0.602   0.1346   0.6493     H
C       0.6091   0.3112   0.7554     C
N        0.612   0.6717   0.5019     N
C       0.6193   0.1736   0.6944     C
N       0.6244    0.424   0.3609     N
N       0.6299   0.7828   0.3473     N
H       0.6329   0.7117   0.2421     H
N       0.6418   0.5372   0.2689     N
H       0.6474   0.8737   0.4379     H
C       0.6589   0.7639   0.2682     C
N       0.6619   0.5933   0.6125     N
C       0.6666   0.4528   0.2875     C
C       0.6674   0.8583    0.383     C
N       0.6696   0.3616   0.5561     N
C        0.677    0.289   0.8207     C
N       0.6795   0.7232   0.5436     N
C       0.6856   0.1444   0.7566     C
H       0.6952   0.3311   0.8629     H
C       0.7081   0.6735    0.612     C
H       0.7099   0.0852   0.7556     H
C       0.7176   0.2033   0.8225     C
C       0.7241    0.816    0.223     C
C       0.7348   0.9151   0.3422     C
C       0.7352   0.3938   0.2405     C
H       0.7402   0.4669   0.1304     H
H       0.7412   0.7993   0.1677     H
N       0.7443   0.8467   0.9407     N
N       0.7557   0.3467   0.5593     N
H       0.7588   0.2993   0.3323     H
H       0.7598   0.9669   0.3696     H
C       0.7648   0.8938   0.2595     C
C       0.7652   0.4151   0.1578     C
C       0.7759    0.316    0.277     C
C       0.7824   0.7033   0.6775     C
H       0.7901   0.5852   0.7444     H
C       0.7919   0.1735    0.888     C
H       0.8048   0.8311   0.6371     H
C       0.8144   0.6444   0.7434     C
N       0.8205   0.2232   0.9564     N
C        0.823    0.789   0.6793     C
N       0.8304   0.8616   0.9439     N
C       0.8326   0.3583    0.117     C
C       0.8334   0.9528   0.2125     C
N       0.8381   0.0933   0.8875     N
C       0.8411   0.2639   0.2318     C
H       0.8526   0.3737   0.0621     H
N       0.8582   0.0372   0.2311     N
H       0.8671   0.2117   0.2579     H
N       0.8701   0.2828   0.1527     N
N       0.8756    0.924   0.1391     N
C       0.8807   0.6736   0.8056     C
N        0.888   0.1717   0.9981     N
C       0.8909   0.8112   0.7446     C
H        0.898   0.6346   0.8507     H
N       0.8987   0.0945   0.9579     N
H       0.9161   0.8701   0.7456     H
N       0.9163    0.876   0.9474     N
N       0.9179   0.0634    0.167     N
N       0.9227   0.7572   0.8046     N
N       0.9285   0.9947   0.1138     N
Cu     0.97853  0.20445  0.10106    Cu
