data_I
_chemical_name_common  '/home/zhangsd/repos/MofS-CGCNN/ML/data/TSD/clean_cifs/QOSJEP_clean'
_cell_length_a 10.63200
_cell_length_b 13.86200
_cell_length_c 19.49800
_cell_angle_alpha 90.00000
_cell_angle_beta  99.98000
_cell_angle_gamma 90.00000
_space_group_name_H-M_alt      'P 1'


loop_
_space_group_symop_operation_xyz
  'x, y, z' 

loop_
_atom_site_label
_atom_site_fract_x
_atom_site_fract_y
_atom_site_fract_z
_atom_site_type_symbol
O       0.0029   0.1913  0.57095     O
O       0.0029   0.3087  0.07095     O
C       0.0181   0.1554   0.2721     C
C       0.0181   0.3446   0.7721     C
H       0.0204   0.6251   0.7833     H
H       0.0204   0.8749   0.2833     H
C       0.0352   0.6803   0.7587     C
C       0.0352   0.8197   0.2587     C
C       0.0396   0.2389   0.2375     C
C       0.0396   0.2611   0.7375     C
O       0.0575   0.0083  0.65109     O
O       0.0575   0.4917  0.15109     O
O       0.0797    0.561  0.98137     O
O       0.0797    0.939  0.48137     O
C       0.0829   0.6553   0.1907     C
C       0.0829   0.8447   0.6907     C
C       0.0949   0.6451   0.9576     C
C       0.0949   0.8549   0.4576     C
O       0.1007   0.0239  0.21587     O
O       0.1007   0.4761  0.71587     O
H       0.1049   0.2408   0.2113     H
H       0.1049   0.2592   0.7113     H
C       0.1109   0.0723   0.2724     C
C       0.1109   0.4277   0.7724     C
C       0.1204   0.5687   0.1525     C
C       0.1204   0.9313   0.6525     C
N        0.129   0.6798   0.7204     N
N        0.129   0.8202   0.2204     N
C       0.1511   0.7393   0.1876     C
C       0.1511   0.7607   0.6876     C
Er     0.15502  0.06708  0.55591    Er
Er     0.15502  0.43292  0.05591    Er
O       0.1959   0.0609  0.32397     O
O       0.1959   0.4391  0.82397     O
O        0.216   0.5764  0.12134     O
O        0.216   0.9236  0.62134     O
H       0.2161   0.7395   0.1612     H
H       0.2161   0.7605   0.6612     H
H       0.2221   0.7436   0.9342     H
H       0.2221   0.7564   0.4342     H
C       0.2261   0.6862    0.962     C
C       0.2261   0.8138    0.462     C
H       0.2394   0.1143   0.1351     H
H       0.2394   0.3857   0.6351     H
Cu     0.24343   0.5679  0.71058    Cu
Cu     0.24343   0.9321  0.21058    Cu
H       0.2602   0.7017   0.0096     H
H       0.2602   0.7983   0.5096     H
O       0.2699   0.2228   0.5641     O
O       0.2699   0.2772   0.0641     O
H       0.2803   0.6397   0.9451     H
H       0.2803   0.8603   0.4451     H
O       0.2867   0.1329  0.65912     O
O       0.2867   0.3671  0.15912     O
C       0.3086   0.2099    0.628     C
C       0.3086   0.2901    0.128     C
C        0.315    0.121   0.1669     C
C        0.315    0.379   0.6669     C
N       0.3583   0.0447    0.206     N
N       0.3583   0.4553    0.706     N
C       0.3759   0.2085    0.171     C
C       0.3759   0.2915    0.671     C
H       0.3835   0.6436   0.2139     H
H       0.3835   0.8564   0.7139     H
O       0.3884   0.6584  0.71865     O
O       0.3884   0.8416  0.21865     O
O       0.4138   0.6526    0.835     O
O       0.4138   0.8474    0.335     O
C       0.4321   0.6888   0.7809     C
C       0.4321   0.8112   0.2809     C
C       0.4612   0.6394   0.2441     C
C       0.4612   0.8606   0.7441     C
C       0.4705   0.0544     0.25     C
C       0.4705   0.4456     0.75     C
C       0.4908   0.2187   0.2166     C
C       0.4908   0.2813   0.7166     C
H       0.4972   0.5019   0.2227     H
H       0.4972   0.9981   0.7227     H
H       0.5028   0.0019   0.2773     H
H       0.5028   0.4981   0.7773     H
C       0.5092   0.7187   0.2834     C
C       0.5092   0.7813   0.7834     C
C       0.5295   0.5544     0.25     C
C       0.5295   0.9456     0.75     C
C       0.5388   0.1394   0.2559     C
C       0.5388   0.3606   0.7559     C
C       0.5679   0.1888   0.7191     C
C       0.5679   0.3112   0.2191     C
O       0.5862   0.1526    0.665     O
O       0.5862   0.3474    0.165     O
O       0.6116   0.1584  0.78135     O
O       0.6116   0.3416  0.28135     O
H       0.6165   0.1436   0.2861     H
H       0.6165   0.3564   0.7861     H
C       0.6241   0.7085    0.329     C
C       0.6241   0.7915    0.829     C
N       0.6417   0.5447    0.294     N
N       0.6417   0.9553    0.794     N
C        0.685    0.621   0.3331     C
C        0.685    0.879   0.8331     C
C       0.6914   0.7099    0.872     C
C       0.6914   0.7901    0.372     C
O       0.7133   0.6329  0.84088     O
O       0.7133   0.8671  0.34088     O
H       0.7197   0.1397   0.5549     H
H       0.7197   0.3603   0.0549     H
O       0.7301   0.7228   0.9359     O
O       0.7301   0.7772   0.4359     O
H       0.7398   0.2017   0.4904     H
H       0.7398   0.2983   0.9904     H
Cu     0.75657   0.0679  0.78942    Cu
Cu     0.75657   0.4321  0.28942    Cu
H       0.7606   0.6143   0.3649     H
H       0.7606   0.8857   0.8649     H
C       0.7739   0.1862    0.538     C
C       0.7739   0.3138    0.038     C
H       0.7779   0.2436   0.5658     H
H       0.7779   0.2564   0.0658     H
H       0.7839   0.2395   0.3388     H
H       0.7839   0.2605   0.8388     H
O        0.784   0.0764  0.37866     O
O        0.784   0.4236  0.87866     O
O       0.8041   0.5609  0.17603     O
O       0.8041   0.9391  0.67603     O
Er     0.84498  0.56708  0.94409    Er
Er     0.84498  0.93292  0.44409    Er
C       0.8489   0.2393   0.3124     C
C       0.8489   0.2607   0.8124     C
N        0.871   0.1798   0.7796     N
N        0.871   0.3202   0.2796     N
C       0.8796   0.0687   0.3475     C
C       0.8796   0.4313   0.8475     C
C       0.8891   0.5723   0.2276     C
C       0.8891   0.9277   0.7276     C
H       0.8951   0.7408   0.2887     H
H       0.8951   0.7592   0.7887     H
O       0.8993   0.5239  0.28413     O
O       0.8993   0.9761  0.78413     O
C       0.9051   0.1451   0.5424     C
C       0.9051   0.3549   0.0424     C
C       0.9171   0.1553   0.3093     C
C       0.9171   0.3447   0.8093     C
O       0.9203    0.061  0.51863     O
O       0.9203    0.439  0.01863     O
O       0.9425   0.5083  0.84891     O
O       0.9425   0.9917  0.34891     O
C       0.9604   0.7389   0.2625     C
C       0.9604   0.7611   0.7625     C
C       0.9648   0.1803   0.7413     C
C       0.9648   0.3197   0.2413     C
H       0.9796   0.1251   0.7167     H
H       0.9796   0.3749   0.2167     H
C       0.9819   0.6554   0.2279     C
C       0.9819   0.8446   0.7279     C
O       0.9971   0.6913  0.92905     O
O       0.9971   0.8087  0.42905     O
