data_I
_chemical_name_common  '/home/zhangsd/repos/MofS-CGCNN/ML/data/TSD/clean_cifs/QOVDAH_clean'
_cell_length_a 27.83420
_cell_length_b 27.83420
_cell_length_c  6.24210
_cell_angle_alpha 90.00000
_cell_angle_beta  90.00000
_cell_angle_gamma 120.00000
_space_group_name_H-M_alt      'P 1'


loop_
_space_group_symop_operation_xyz
  'x, y, z' 

loop_
_atom_site_label
_atom_site_fract_x
_atom_site_fract_y
_atom_site_fract_z
_atom_site_type_symbol
O      0.00262  0.71986   0.6021     O
N      0.00842  0.55542  0.04367     N
O      0.00939  0.62089  0.61707     O
C      0.01337  0.45033  0.72823     C
Ni     0.02706   0.7236  0.28079    Ni
Ni     0.02987  0.63961  0.94746    Ni
P      0.03931  0.61572  0.42917     P
C       0.0441  0.49063  0.07823     C
O      0.04578  0.72184   0.9504     O
O      0.05057  0.66405  0.26877     O
O      0.05063  0.80996   0.8169     O
P      0.05095  0.75693   0.7625     P
O      0.05319  0.38391  0.06457     O
O      0.05517  0.34273  0.71627     O
C      0.05523  0.54687  0.02167     C
Ni     0.05693  0.36321  0.38588    Ni
P      0.09026  0.37265  0.90417     P
O      0.09266  0.61604  0.48357     O
C      0.10363  0.31997  0.06157     C
N      0.11125  0.78634    0.377     N
C       0.1132  0.28924  0.41157     C
C        0.117   0.7703   0.6051     C
N      0.11967  0.34176  0.28967     N
C       0.1198   0.8417    0.355     C
O      0.14329    0.426  0.84977     O
C       0.1573  0.77987   0.2551     C
C       0.1583   0.2781    0.355     C
C      0.17503  0.38857  0.31167     C
C      0.17603   0.8868  0.41157     C
O      0.19004  0.24067   0.8169     O
C      0.21353  0.82497  0.31167     C
N      0.21366  0.32491    0.377     N
C      0.21633  0.89637  0.06157     C
C      0.22013  0.37743   0.2551     C
N      0.22208  0.88033  0.28967     N
C       0.2297   0.3467   0.6051     C
O      0.24067  0.05063   0.1831     O
P      0.24307  0.29402   0.7625     P
Ni      0.2764  0.30346  0.28079    Ni
C       0.2781   0.1198    0.645     C
O      0.27816  0.32394   0.9504     O
O      0.28014  0.28276   0.6021     O
P      0.28238  0.90974  0.90417     P
O       0.2827  0.85671  0.84977     O
O      0.28276  0.00262   0.3979     O
O      0.28755  0.94483  0.71627     O
C      0.28924  0.17603  0.58843     C
P      0.29402  0.05095   0.2375     P
Ni     0.30346  0.02706  0.71921    Ni
Ni     0.30627  0.94307  0.38588    Ni
C      0.31997  0.21633  0.93843     C
O      0.32394  0.04578   0.0496     O
N      0.32491  0.11125    0.623     N
O      0.33071  0.94681  0.06457     O
O      0.33595  0.38653  0.26877     O
N      0.34176  0.22208  0.71033     N
O      0.34273  0.28755  0.28373     O
C       0.3467    0.117   0.3949     C
Ni     0.36039  0.39027  0.94746    Ni
Ni     0.36321  0.30627  0.61412    Ni
P      0.37265  0.28238  0.09583     P
C      0.37743   0.1573   0.7449     C
O      0.37911  0.38851  0.61707     O
O      0.38391  0.33071  0.93543     O
O      0.38396  0.47663  0.48357     O
P      0.38428   0.4236  0.42917     P
O      0.38653  0.05057  0.73123     O
O      0.38851  0.00939  0.38293     O
C      0.38857  0.21353  0.68833     C
Ni     0.39027  0.02987  0.05254    Ni
P       0.4236  0.03931  0.57083     P
O        0.426   0.2827  0.15023     O
C      0.43697  0.98663  0.72823     C
N      0.44458  0.45301  0.04367     N
C      0.44654   0.9559  0.07823     C
C      0.45033  0.43697  0.27177     C
N      0.45301  0.00842  0.95633     N
C      0.45313  0.50837  0.02167     C
O      0.47663  0.09266  0.51643     O
C      0.49063  0.44654  0.92177     C
C      0.49163  0.94477  0.02167     C
C      0.50837  0.05523  0.97833     C
C      0.50937  0.55346  0.07823     C
O      0.52337  0.90734  0.48357     O
C      0.54687  0.49163  0.97833     C
N      0.54699  0.99158  0.04367     N
C      0.54967  0.56303  0.72823     C
C      0.55346   0.0441  0.92177     C
N      0.55542  0.54699  0.95633     N
C      0.56303  0.01337  0.27177     C
O        0.574   0.7173  0.84977     O
P       0.5764  0.96069  0.42917     P
Ni     0.60973  0.97013  0.94746    Ni
C      0.61143  0.78647  0.31167     C
O      0.61149  0.99061  0.61707     O
O      0.61347  0.94943  0.26877     O
P      0.61572   0.5764  0.57083     P
O      0.61604  0.52337  0.51643     O
O      0.61609  0.66929  0.06457     O
O      0.62089  0.61149  0.38293     O
C      0.62257   0.8427   0.2551     C
P      0.62735  0.71762  0.90417     P
Ni     0.63679  0.69373  0.38588    Ni
Ni     0.63961  0.60973  0.05254    Ni
C       0.6533    0.883   0.6051     C
O      0.65727  0.71245  0.71627     O
N      0.65824  0.77792  0.28967     N
O      0.66405  0.61347  0.73123     O
O      0.66929  0.05319  0.93543     O
N      0.67509  0.88875    0.377     N
O      0.67606  0.95422   0.9504     O
C      0.68003  0.78367  0.06157     C
Ni     0.69373  0.05693  0.61412    Ni
Ni     0.69654  0.97294  0.28079    Ni
P      0.70598  0.94905   0.7625     P
C      0.71076  0.82397  0.41157     C
O      0.71245  0.05517  0.28373     O
O      0.71724  0.99738   0.6021     O
O       0.7173  0.14329  0.15023     O
P      0.71762  0.09026  0.09583     P
O      0.71986  0.71724   0.3979     O
O      0.72184  0.67606   0.0496     O
C       0.7219   0.8802    0.355     C
Ni      0.7236  0.69654  0.71921    Ni
P      0.75693  0.70598   0.2375     P
O      0.75933  0.94937   0.8169     O
C       0.7703   0.6533   0.3949     C
N      0.77792  0.11967  0.71033     N
C      0.77987  0.62257   0.7449     C
C      0.78367  0.10363  0.93843     C
N      0.78634  0.67509    0.623     N
C      0.78647  0.17503  0.68833     C
O      0.80996  0.75933   0.1831     O
C      0.82397   0.1132  0.58843     C
C      0.82497  0.61143  0.68833     C
C       0.8417   0.7219    0.645     C
C       0.8427  0.22013   0.7449     C
O      0.85671    0.574  0.15023     O
C       0.8802   0.1583    0.645     C
N      0.88033  0.65824  0.71033     N
C        0.883   0.2297   0.3949     C
C       0.8868  0.71076  0.58843     C
N      0.88875  0.21366    0.623     N
C      0.89637  0.68003  0.93843     C
O      0.90734  0.38396  0.51643     O
P      0.90974  0.62735  0.09583     P
Ni     0.94307  0.63679  0.61412    Ni
C      0.94477  0.45313  0.97833     C
O      0.94483  0.65727  0.28373     O
O      0.94681  0.61609  0.93543     O
P      0.94905  0.24307   0.2375     P
O      0.94937  0.19004   0.1831     O
O      0.94943  0.33595  0.73123     O
O      0.95422  0.27816   0.0496     O
C       0.9559  0.50937  0.92177     C
P      0.96069  0.38428  0.57083     P
Ni     0.97013  0.36039  0.05254    Ni
Ni     0.97294   0.2764  0.71921    Ni
C      0.98663  0.54967  0.27177     C
O      0.99061  0.37911  0.38293     O
N      0.99158  0.44458  0.95633     N
O      0.99738  0.28014   0.3979     O
