data_I
_chemical_name_common  '/home/zhangsd/repos/MofS-CGCNN/ML/data/TSD/clean_cifs/QOVWOO_SL'
_cell_length_a 19.23950
_cell_length_b 15.16420
_cell_length_c  6.68120
_cell_angle_alpha 90.00000
_cell_angle_beta  84.08420
_cell_angle_gamma 90.00000
_space_group_name_H-M_alt      'P 1'


loop_
_space_group_symop_operation_xyz
  'x, y, z' 

loop_
_atom_site_label
_atom_site_fract_x
_atom_site_fract_y
_atom_site_fract_z
_atom_site_type_symbol
Ga         0.0      0.0      0.0    Ga
Ga         0.0      0.0      0.5    Ga
Ga         0.0      0.5      0.0    Ga
Ga         0.0      0.5      0.5    Ga
O       0.0001   0.5636   0.7535     O
H       0.0001  0.62954   0.7535     H
H       0.0001  0.87046   0.2535     H
O       0.0001   0.9364   0.2535     O
O      0.05926  0.09747  0.35933     O
O      0.05926  0.40253  0.85933     O
O      0.06561  0.57842  0.36345     O
O      0.06561  0.92158  0.86345     O
O      0.08732  0.56603  0.03492     O
O      0.08732  0.93397  0.53492     O
O      0.08871   0.0489  0.05204     O
O      0.08871   0.4511  0.55204     O
C      0.10577  0.08217  0.21443     C
C      0.10577  0.41783  0.71443     C
C      0.10849   0.5806  0.20573     C
C      0.10849   0.9194  0.70573     C
H       0.1632  0.14363  0.52772     H
H       0.1632  0.35637  0.02772     H
H      0.17324  0.61171  0.52748     H
H      0.17324  0.88829  0.02748     H
C      0.17984  0.10312  0.23483     C
C      0.17984  0.39688  0.73483     C
C      0.18313  0.60014  0.22098     C
C      0.18313  0.89986  0.72098     C
C      0.19873  0.13482  0.41345     C
C      0.19873  0.36518  0.91345     C
C      0.20618  0.61442  0.40555     C
C      0.20618  0.88558  0.90555     C
H      0.21268  0.59372  0.91851     H
H      0.21268  0.90628  0.41851     H
H      0.21599  0.06812  0.94732     H
H      0.21599  0.43188  0.44732     H
C      0.22917  0.60394  0.05053     C
C      0.22917  0.89606  0.55053     C
C      0.22951   0.0908  0.07509     C
C      0.22951   0.4092  0.57509     C
C       0.2673  0.15421  0.43233     C
C       0.2673  0.34579  0.93233     C
C      0.27527  0.63251  0.41967     C
C      0.27527  0.86749  0.91967     C
H      0.28082  0.17689   0.5601     H
H      0.28082  0.32311   0.0601     H
H      0.29176  0.64273  0.55169     H
H      0.29176  0.85727  0.05169     H
C      0.29808  0.11019  0.09397     C
C      0.29808  0.38981  0.59397     C
C      0.29826  0.62202  0.06465     C
C      0.29826  0.87798  0.56465     C
C      0.31697   0.1419  0.27259     C
C      0.31697   0.3581  0.77259     C
C      0.32131  0.63631  0.24922     C
C      0.32131  0.86369  0.74922     C
H      0.33119  0.62474  0.94273     H
H      0.33119  0.87526  0.44273     H
H      0.33361  0.10139   0.9797     H
H      0.33361  0.39861   0.4797     H
C      0.39104  0.16285  0.29299     C
C      0.39104  0.33715  0.79299     C
C      0.39595  0.65584  0.26447     C
C      0.39595  0.84416  0.76447     C
O      0.40855  0.19231  0.45851     O
O      0.40855  0.30769  0.95851     O
O      0.41697  0.67142  0.43503     O
O      0.41697  0.82858  0.93503     O
O       0.4371  0.15135  0.14496     O
O       0.4371  0.34865  0.64496     O
O      0.43897  0.65703    0.107     O
O      0.43897  0.84297    0.607     O
Ga     0.49568  0.24604  0.01928    Ga
Ga     0.49568  0.25396  0.51928    Ga
H        0.499  0.12306   0.7718     H
O        0.499    0.189   0.7718     O
O        0.499    0.311   0.2718     O
H        0.499  0.37694   0.2718     H
H        0.501  0.62306   0.7282     H
O        0.501    0.689   0.7282     O
O        0.501    0.811   0.2282     O
H        0.501  0.87694   0.2282     H
Ga     0.50432  0.74604  0.48072    Ga
Ga     0.50432  0.75396  0.98072    Ga
O      0.56103  0.15703    0.393     O
O      0.56103  0.34297    0.893     O
O       0.5629  0.65135  0.35504     O
O       0.5629  0.84865  0.85504     O
O      0.58303  0.17142  0.06497     O
O      0.58303  0.32858  0.56497     O
O      0.59145  0.69231  0.04149     O
O      0.59145  0.80769  0.54149     O
C      0.60405  0.15584  0.23553     C
C      0.60405  0.34416  0.73553     C
C      0.60896  0.66285  0.20701     C
C      0.60896  0.83715  0.70701     C
H      0.66639  0.60139   0.5203     H
H      0.66639  0.89861   0.0203     H
H      0.66881  0.12474  0.55727     H
H      0.66881  0.37526  0.05727     H
C      0.67869  0.13631  0.25078     C
C      0.67869  0.36369  0.75078     C
C      0.68303   0.6419  0.22741     C
C      0.68303   0.8581  0.72741     C
C      0.70174  0.12202  0.43535     C
C      0.70174  0.37798  0.93535     C
C      0.70192  0.61019  0.40603     C
C      0.70192  0.88981  0.90603     C
H      0.70824  0.14273  0.94831     H
H      0.70824  0.35727  0.44831     H
H      0.71918  0.67689   0.9399     H
H      0.71918  0.82311   0.4399     H
C      0.72473  0.13251  0.08033     C
C      0.72473  0.36749  0.58033     C
C       0.7327  0.65421  0.06767     C
C       0.7327  0.84579  0.56767     C
C      0.77049   0.5908  0.42491     C
C      0.77049   0.9092  0.92491     C
C      0.77083  0.10394  0.44947     C
C      0.77083  0.39606  0.94947     C
H      0.78401  0.56812  0.55268     H
H      0.78401  0.93188  0.05268     H
H      0.78732  0.09372  0.58149     H
H      0.78732  0.40628  0.08149     H
C      0.79382  0.11442  0.09445     C
C      0.79382  0.38558  0.59445     C
C      0.80127  0.63482  0.08655     C
C      0.80127  0.86518  0.58655     C
C      0.81687  0.10014  0.27902     C
C      0.81687  0.39986  0.77902     C
C      0.82016  0.60312  0.26517     C
C      0.82016  0.89688  0.76517     C
H      0.82676  0.11171  0.97252     H
H      0.82676  0.38829  0.47252     H
H       0.8368  0.64363  0.97228     H
H       0.8368  0.85637  0.47228     H
C      0.89151   0.0806  0.29427     C
C      0.89151   0.4194  0.79427     C
C      0.89423  0.58217  0.28557     C
C      0.89423  0.91783  0.78557     C
O      0.91129   0.5489  0.44796     O
O      0.91129   0.9511  0.94796     O
O      0.91268  0.06603  0.46508     O
O      0.91268  0.43397  0.96508     O
O      0.93439  0.07842  0.13655     O
O      0.93439  0.42158  0.63655     O
O      0.94074  0.59747  0.14067     O
O      0.94074  0.90253  0.64067     O
O       0.9999   0.0636   0.7465     O
H       0.9999  0.12954   0.7465     H
H       0.9999  0.37046   0.2465     H
O       0.9999   0.4364   0.2465     O
