data_I
_chemical_name_common  '/home/zhangsd/repos/MofS-CGCNN/ML/data/TSD/clean_cifs/QOXFIU_clean'
_cell_length_a 34.07400
_cell_length_b 16.22110
_cell_length_c 28.27800
_cell_angle_alpha 90.00000
_cell_angle_beta  124.74300
_cell_angle_gamma 90.00000
_space_group_name_H-M_alt      'P 1'


loop_
_space_group_symop_operation_xyz
  'x, y, z' 

loop_
_atom_site_label
_atom_site_fract_x
_atom_site_fract_y
_atom_site_fract_z
_atom_site_type_symbol
C       0.0004   0.0974    0.943     C
C       0.0004   0.9026    0.443     C
O       0.0016    0.284   0.1261     O
O       0.0016    0.716   0.6261     O
C       0.0053   0.2646   0.4193     C
C       0.0053   0.7354   0.9193     C
O       0.0108    0.038   0.9268     O
O       0.0108    0.962   0.4268     O
C       0.0125   0.0992    0.006     C
C       0.0125   0.9008    0.506     C
C       0.0127   0.1821   0.0748     C
C       0.0127   0.8179   0.5748     C
O        0.015   0.3407   0.5596     O
O        0.015   0.6593   0.0596     O
K      0.01587   0.2874  0.86907     K
K      0.01587   0.7126  0.36907     K
N        0.017   0.1854   0.0258     N
N        0.017   0.8146   0.5258     N
K      0.01827   0.4617   0.4054     K
K      0.01827   0.5383   0.9054     K
O       0.0207   0.1642   0.5868     O
O       0.0207   0.8358   0.0868     O
O       0.0283   0.3113   0.4638     O
O       0.0283   0.6887   0.9638     O
O        0.048   0.4189    0.684     O
O        0.048   0.5811    0.184     O
O       0.0526   0.1976   0.7187     O
O       0.0526   0.8024   0.2187     O
U      0.05624  0.27184  0.56129     U
U      0.05624  0.72816  0.06129     U
O       0.0627   0.4884   0.0979     O
O       0.0627   0.5116   0.5979     O
C       0.0652    0.217   0.0439     C
C       0.0652    0.783   0.5439     C
C       0.0737    0.306   0.0667     C
C       0.0737    0.694   0.5667     C
O       0.0817   0.3974   0.9417     O
O       0.0817   0.6026   0.4417     O
O       0.0837   0.4673   0.0115     O
O       0.0837   0.5327   0.5115     O
O       0.0921   0.1849   0.9139     O
O       0.0921   0.2585   0.6638     O
O       0.0921   0.7415   0.1638     O
O       0.0921   0.8151   0.4139     O
C       0.0949   0.4049   0.9935     C
C       0.0949   0.5951   0.4935     C
I        0.098  0.17183  0.70752     I
I        0.098  0.82817  0.20752     I
O       0.0993   0.0505   0.2446     O
O       0.0993   0.9495   0.7446     O
O       0.0996   0.3801   0.5564     O
O       0.0996   0.6199   0.0564     O
U      0.11978  0.49614  0.11115     U
U      0.11978  0.50386  0.61115     U
N       0.1208   0.3391   0.0842     N
N       0.1208   0.6609   0.5842     N
C       0.1212   0.0541   0.9625     C
C       0.1212   0.9459   0.4625     C
O       0.1214   0.3586   0.6177     O
O       0.1214   0.6414   0.1177     O
C       0.1266   0.1467   0.9552     C
C       0.1266   0.8533   0.4552     C
C       0.1273     0.34   0.0372     C
C       0.1273     0.66   0.5372     C
C       0.1325   0.0101   0.2915     C
C       0.1325   0.9899   0.7915     C
O       0.1337   0.0667   0.7977     O
O       0.1337   0.9333   0.2977     O
O       0.1402   0.4915   0.2886     O
O       0.1402   0.5085   0.7886     O
O       0.1446   0.3896   0.1852     O
O       0.1446   0.6104   0.6852     O
O       0.1503   0.2137   0.7725     O
O       0.1503   0.7863   0.2725     O
O        0.153   0.4527   0.7073     O
O        0.153   0.5473   0.2073     O
K       0.1585  0.32592  0.93719     K
K       0.1585  0.67408  0.43719     K
C       0.1613   0.2968   0.1343     C
C       0.1613   0.7032   0.6343     C
C       0.1629   0.3244   0.1875     C
C       0.1629   0.6756   0.6875     C
C       0.1652   0.0629   0.5191     C
C       0.1652   0.9371   0.0191     C
O       0.1656   0.1807   0.9953     O
O       0.1656   0.8193   0.4953     O
N       0.1697   0.0157      0.0     N
N       0.1697   0.9843      0.5     N
C        0.173   0.0277    0.413     C
C        0.173   0.9723    0.913     C
C       0.1771   0.0589   0.3358     C
C       0.1771   0.9411   0.8358     C
O       0.1778   0.4983   0.9823     O
O       0.1778   0.5017   0.4823     O
O       0.1805   0.1889   0.8935     O
O       0.1805   0.8111   0.3935     O
O        0.185   0.2744   0.2315     O
O        0.185   0.7256   0.7315     O
I      0.18518  0.49359  0.27507     I
I      0.18518  0.50641  0.77507     I
K      0.19686   0.2965  0.73157     K
K      0.19686   0.7035  0.23157     K
C       0.1975    0.017   0.9719     C
C       0.1975    0.983   0.4719     C
N       0.2024   0.0104   0.3904     N
N       0.2024   0.9896   0.8904     N
U      0.20866  0.14399  0.86225     U
U      0.20866  0.85601  0.36225     U
C       0.2138   0.0853   0.5761     C
C       0.2138   0.9147   0.0761     C
C       0.2149   0.4792   0.0293     C
C       0.2149   0.5208   0.5293     C
O       0.2161   0.4138   0.8135     O
O       0.2161   0.5862   0.3135     O
O       0.2205    0.161   0.5877     O
O       0.2205    0.839   0.0877     O
U      0.22567  0.12017  0.08766     U
U      0.22567  0.87983  0.58766     U
O        0.227   0.4048    0.045     O
O        0.227   0.5952    0.545     O
O       0.2271    0.265   0.0917     O
O       0.2271    0.735   0.5917     O
O       0.2315   0.3792   0.9292     O
O       0.2315   0.6208   0.4292     O
O        0.238   0.2679     0.85     O
O        0.238   0.7321     0.35     O
O        0.243   0.0288   0.6041     O
O        0.243   0.9712   0.1041     O
C        0.248   0.4552   0.5697     C
C        0.248   0.5448   0.0697     C
C        0.252   0.0448   0.4303     C
C        0.252   0.9552   0.9303     C
O        0.257   0.4712   0.3959     O
O        0.257   0.5288   0.8959     O
O        0.262   0.2321     0.15     O
O        0.262   0.7679     0.65     O
O       0.2685   0.1208   0.0708     O
O       0.2685   0.8792   0.5708     O
O       0.2729    0.235   0.9083     O
O       0.2729    0.765   0.4083     O
O        0.273   0.0952    0.955     O
O        0.273   0.9048    0.455     O
U      0.27433  0.37983  0.91234     U
U      0.27433  0.62017  0.41234     U
O       0.2795    0.339   0.4123     O
O       0.2795    0.661   0.9123     O
O       0.2839   0.0862   0.1865     O
O       0.2839   0.9138   0.6865     O
C       0.2851   0.0208   0.9707     C
C       0.2851   0.9792   0.4707     C
C       0.2862   0.4147   0.4239     C
C       0.2862   0.5853   0.9239     C
U      0.29134  0.35601  0.13775     U
U      0.29134  0.64399  0.63775     U
N       0.2976   0.4896   0.6096     N
N       0.2976   0.5104   0.1096     N
C       0.3025    0.483   0.0281     C
C       0.3025    0.517   0.5281     C
K      0.30314   0.2035  0.26843     K
K      0.30314   0.7965  0.76843     K
I      0.31482  0.00641  0.72493     I
I      0.31482  0.99359  0.22493     I
O        0.315   0.2256   0.7685     O
O        0.315   0.7744   0.2685     O
O       0.3195   0.3111   0.1065     O
O       0.3195   0.6889   0.6065     O
O       0.3222   0.0017   0.0177     O
O       0.3222   0.9983   0.5177     O
C       0.3229   0.4411   0.6642     C
C       0.3229   0.5589   0.1642     C
C        0.327   0.4723    0.587     C
C        0.327   0.5277    0.087     C
N       0.3303   0.4843      0.0     N
N       0.3303   0.5157      0.5     N
O       0.3344   0.3193   0.0047     O
O       0.3344   0.6807   0.5047     O
C       0.3348   0.4371   0.4809     C
C       0.3348   0.5629   0.9809     C
C       0.3371   0.1756   0.8125     C
C       0.3371   0.8244   0.3125     C
C       0.3387   0.2032   0.8657     C
C       0.3387   0.7968   0.3657     C
K       0.3415  0.17408  0.06281     K
K       0.3415  0.82592  0.56281     K
O        0.347   0.0473   0.2927     O
O        0.347   0.9527   0.7927     O
O       0.3497   0.2863   0.2275     O
O       0.3497   0.7137   0.7275     O
O       0.3554   0.1104   0.8148     O
O       0.3554   0.8896   0.3148     O
O       0.3598   0.0085   0.7114     O
O       0.3598   0.9915   0.2114     O
O       0.3663   0.4333   0.2023     O
O       0.3663   0.5667   0.7023     O
C       0.3675   0.4899   0.7085     C
C       0.3675   0.5101   0.2085     C
C       0.3727     0.16   0.9628     C
C       0.3727     0.84   0.4628     C
C       0.3734   0.3533   0.0448     C
C       0.3734   0.6467   0.5448     C
O       0.3786   0.1414   0.3823     O
O       0.3786   0.8586   0.8823     O
C       0.3788   0.4459   0.0375     C
C       0.3788   0.5541   0.5375     C
N       0.3792   0.1609   0.9158     N
N       0.3792   0.8391   0.4158     N
U      0.38022  0.00386  0.88885     U
U      0.38022  0.99614  0.38885     U
O       0.4004   0.1199   0.4436     O
O       0.4004   0.8801   0.9436     O
O       0.4007   0.4495   0.7554     O
O       0.4007   0.5505   0.2554     O
I        0.402  0.32817  0.29248     I
I        0.402  0.67183  0.79248     I
C       0.4051   0.0951   0.0065     C
C       0.4051   0.9049   0.5065     C
O       0.4079   0.2415   0.3362     O
O       0.4079   0.3151   0.0861     O
O       0.4079   0.6849   0.5861     O
O       0.4079   0.7585   0.8362     O
O       0.4163   0.0327   0.9885     O
O       0.4163   0.9673   0.4885     O
O       0.4183   0.1026   0.0583     O
O       0.4183   0.8974   0.5583     O
C       0.4263    0.194   0.9333     C
C       0.4263    0.806   0.4333     C
C       0.4348    0.283   0.9561     C
C       0.4348    0.717   0.4561     C
O       0.4373   0.0116   0.9021     O
O       0.4373   0.9884   0.4021     O
U      0.44376  0.22816  0.43871     U
U      0.44376  0.77184  0.93871     U
O       0.4474   0.3024   0.2813     O
O       0.4474   0.6976   0.7813     O
O        0.452   0.0811    0.316     O
O        0.452   0.9189    0.816     O
O       0.4717   0.1887   0.5362     O
O       0.4717   0.8113   0.0362     O
O       0.4793   0.3358   0.4132     O
O       0.4793   0.6642   0.9132     O
K      0.48173   0.0383   0.5946     K
K      0.48173   0.9617   0.0946     K
N        0.483   0.3146   0.9742     N
N        0.483   0.6854   0.4742     N
K      0.48413   0.2126  0.13093     K
K      0.48413   0.7874  0.63093     K
O        0.485   0.1593   0.4404     O
O        0.485   0.8407   0.9404     O
C       0.4873   0.3179   0.9252     C
C       0.4873   0.6821   0.4252     C
C       0.4875   0.4008    0.994     C
C       0.4875   0.5992    0.494     C
O       0.4892    0.462   0.0732     O
O       0.4892    0.538   0.5732     O
C       0.4947   0.2354   0.5807     C
C       0.4947   0.7646   0.0807     C
O       0.4984    0.216   0.8739     O
O       0.4984    0.784   0.3739     O
C       0.4996   0.4026    0.057     C
C       0.4996   0.5974    0.557     C
C       0.5004   0.4026    0.443     C
C       0.5004   0.5974    0.943     C
O       0.5016    0.216   0.6261     O
O       0.5016    0.784   0.1261     O
C       0.5053   0.2354   0.9193     C
C       0.5053   0.7646   0.4193     C
O       0.5108    0.462   0.4268     O
O       0.5108    0.538   0.9268     O
C       0.5125   0.4008    0.506     C
C       0.5125   0.5992    0.006     C
C       0.5127   0.3179   0.5748     C
C       0.5127   0.6821   0.0748     C
O        0.515   0.1593   0.0596     O
O        0.515   0.8407   0.5596     O
K      0.51587   0.2126  0.36907     K
K      0.51587   0.7874  0.86907     K
N        0.517   0.3146   0.5258     N
N        0.517   0.6854   0.0258     N
K      0.51827   0.0383   0.9054     K
K      0.51827   0.9617   0.4054     K
O       0.5207   0.3358   0.0868     O
O       0.5207   0.6642   0.5868     O
O       0.5283   0.1887   0.9638     O
O       0.5283   0.8113   0.4638     O
O        0.548   0.0811    0.184     O
O        0.548   0.9189    0.684     O
O       0.5526   0.3024   0.2187     O
O       0.5526   0.6976   0.7187     O
U      0.55624  0.22816  0.06129     U
U      0.55624  0.77184  0.56129     U
O       0.5627   0.0116   0.5979     O
O       0.5627   0.9884   0.0979     O
C       0.5652    0.283   0.5439     C
C       0.5652    0.717   0.0439     C
C       0.5737    0.194   0.5667     C
C       0.5737    0.806   0.0667     C
O       0.5817   0.1026   0.4417     O
O       0.5817   0.8974   0.9417     O
O       0.5837   0.0327   0.5115     O
O       0.5837   0.9673   0.0115     O
O       0.5921   0.2415   0.1638     O
O       0.5921   0.3151   0.4139     O
O       0.5921   0.6849   0.9139     O
O       0.5921   0.7585   0.6638     O
C       0.5949   0.0951   0.4935     C
C       0.5949   0.9049   0.9935     C
I        0.598  0.32817  0.20752     I
I        0.598  0.67183  0.70752     I
O       0.5993   0.4495   0.7446     O
O       0.5993   0.5505   0.2446     O
O       0.5996   0.1199   0.0564     O
O       0.5996   0.8801   0.5564     O
U      0.61978  0.00386  0.61115     U
U      0.61978  0.99614  0.11115     U
N       0.6208   0.1609   0.5842     N
N       0.6208   0.8391   0.0842     N
C       0.6212   0.4459   0.4625     C
C       0.6212   0.5541   0.9625     C
O       0.6214   0.1414   0.1177     O
O       0.6214   0.8586   0.6177     O
C       0.6266   0.3533   0.4552     C
C       0.6266   0.6467   0.9552     C
C       0.6273     0.16   0.5372     C
C       0.6273     0.84   0.0372     C
C       0.6325   0.4899   0.7915     C
C       0.6325   0.5101   0.2915     C
O       0.6337   0.4333   0.2977     O
O       0.6337   0.5667   0.7977     O
O       0.6402   0.0085   0.7886     O
O       0.6402   0.9915   0.2886     O
O       0.6446   0.1104   0.6852     O
O       0.6446   0.8896   0.1852     O
O       0.6503   0.2863   0.2725     O
O       0.6503   0.7137   0.7725     O
O        0.653   0.0473   0.2073     O
O        0.653   0.9527   0.7073     O
K       0.6585  0.17408  0.43719     K
K       0.6585  0.82592  0.93719     K
C       0.6613   0.2032   0.6343     C
C       0.6613   0.7968   0.1343     C
C       0.6629   0.1756   0.6875     C
C       0.6629   0.8244   0.1875     C
C       0.6652   0.4371   0.0191     C
C       0.6652   0.5629   0.5191     C
O       0.6656   0.3193   0.4953     O
O       0.6656   0.6807   0.9953     O
N       0.6697   0.4843      0.5     N
N       0.6697   0.5157      0.0     N
C        0.673   0.4723    0.913     C
C        0.673   0.5277    0.413     C
C       0.6771   0.4411   0.8358     C
C       0.6771   0.5589   0.3358     C
O       0.6778   0.0017   0.4823     O
O       0.6778   0.9983   0.9823     O
O       0.6805   0.3111   0.3935     O
O       0.6805   0.6889   0.8935     O
O        0.685   0.2256   0.7315     O
O        0.685   0.7744   0.2315     O
I      0.68518  0.00641  0.77507     I
I      0.68518  0.99359  0.27507     I
K      0.69686   0.2035  0.23157     K
K      0.69686   0.7965  0.73157     K
C       0.6975    0.483   0.4719     C
C       0.6975    0.517   0.9719     C
N       0.7024   0.4896   0.8904     N
N       0.7024   0.5104   0.3904     N
U      0.70866  0.35601  0.36225     U
U      0.70866  0.64399  0.86225     U
C       0.7138   0.4147   0.0761     C
C       0.7138   0.5853   0.5761     C
C       0.7149   0.0208   0.5293     C
C       0.7149   0.9792   0.0293     C
O       0.7161   0.0862   0.3135     O
O       0.7161   0.9138   0.8135     O
O       0.7205    0.339   0.0877     O
O       0.7205    0.661   0.5877     O
U      0.72567  0.37983  0.58766     U
U      0.72567  0.62017  0.08766     U
O        0.727   0.0952    0.545     O
O        0.727   0.9048    0.045     O
O       0.7271    0.235   0.5917     O
O       0.7271    0.765   0.0917     O
O       0.7315   0.1208   0.4292     O
O       0.7315   0.8792   0.9292     O
O        0.738   0.2321     0.35     O
O        0.738   0.7679     0.85     O
O        0.743   0.4712   0.1041     O
O        0.743   0.5288   0.6041     O
C        0.748   0.0448   0.0697     C
C        0.748   0.9552   0.5697     C
C        0.752   0.4552   0.9303     C
C        0.752   0.5448   0.4303     C
O        0.757   0.0288   0.8959     O
O        0.757   0.9712   0.3959     O
O        0.762   0.2679     0.65     O
O        0.762   0.7321     0.15     O
O       0.7685   0.3792   0.5708     O
O       0.7685   0.6208   0.0708     O
O       0.7729    0.265   0.4083     O
O       0.7729    0.735   0.9083     O
O        0.773   0.4048    0.455     O
O        0.773   0.5952    0.955     O
U      0.77433  0.12017  0.41234     U
U      0.77433  0.87983  0.91234     U
O       0.7795    0.161   0.9123     O
O       0.7795    0.839   0.4123     O
O       0.7839   0.4138   0.6865     O
O       0.7839   0.5862   0.1865     O
C       0.7851   0.4792   0.4707     C
C       0.7851   0.5208   0.9707     C
C       0.7862   0.0853   0.9239     C
C       0.7862   0.9147   0.4239     C
U      0.79134  0.14399  0.63775     U
U      0.79134  0.85601  0.13775     U
N       0.7976   0.0104   0.1096     N
N       0.7976   0.9896   0.6096     N
C       0.8025    0.017   0.5281     C
C       0.8025    0.983   0.0281     C
K      0.80314   0.2965  0.76843     K
K      0.80314   0.7035  0.26843     K
I      0.81482  0.49359  0.22493     I
I      0.81482  0.50641  0.72493     I
O        0.815   0.2744   0.2685     O
O        0.815   0.7256   0.7685     O
O       0.8195   0.1889   0.6065     O
O       0.8195   0.8111   0.1065     O
O       0.8222   0.4983   0.5177     O
O       0.8222   0.5017   0.0177     O
C       0.8229   0.0589   0.1642     C
C       0.8229   0.9411   0.6642     C
C        0.827   0.0277    0.087     C
C        0.827   0.9723    0.587     C
N       0.8303   0.0157      0.5     N
N       0.8303   0.9843      0.0     N
O       0.8344   0.1807   0.5047     O
O       0.8344   0.8193   0.0047     O
C       0.8348   0.0629   0.9809     C
C       0.8348   0.9371   0.4809     C
C       0.8371   0.3244   0.3125     C
C       0.8371   0.6756   0.8125     C
C       0.8387   0.2968   0.3657     C
C       0.8387   0.7032   0.8657     C
K       0.8415  0.32592  0.56281     K
K       0.8415  0.67408  0.06281     K
O        0.847   0.4527   0.7927     O
O        0.847   0.5473   0.2927     O
O       0.8497   0.2137   0.7275     O
O       0.8497   0.7863   0.2275     O
O       0.8554   0.3896   0.3148     O
O       0.8554   0.6104   0.8148     O
O       0.8598   0.4915   0.2114     O
O       0.8598   0.5085   0.7114     O
O       0.8663   0.0667   0.7023     O
O       0.8663   0.9333   0.2023     O
C       0.8675   0.0101   0.2085     C
C       0.8675   0.9899   0.7085     C
C       0.8727     0.34   0.4628     C
C       0.8727     0.66   0.9628     C
C       0.8734   0.1467   0.5448     C
C       0.8734   0.8533   0.0448     C
O       0.8786   0.3586   0.8823     O
O       0.8786   0.6414   0.3823     O
C       0.8788   0.0541   0.5375     C
C       0.8788   0.9459   0.0375     C
N       0.8792   0.3391   0.4158     N
N       0.8792   0.6609   0.9158     N
U      0.88022  0.49614  0.38885     U
U      0.88022  0.50386  0.88885     U
O       0.9004   0.3801   0.9436     O
O       0.9004   0.6199   0.4436     O
O       0.9007   0.0505   0.2554     O
O       0.9007   0.9495   0.7554     O
I        0.902  0.17183  0.79248     I
I        0.902  0.82817  0.29248     I
C       0.9051   0.4049   0.5065     C
C       0.9051   0.5951   0.0065     C
O       0.9079   0.1849   0.5861     O
O       0.9079   0.2585   0.8362     O
O       0.9079   0.7415   0.3362     O
O       0.9079   0.8151   0.0861     O
O       0.9163   0.4673   0.4885     O
O       0.9163   0.5327   0.9885     O
O       0.9183   0.3974   0.5583     O
O       0.9183   0.6026   0.0583     O
C       0.9263    0.306   0.4333     C
C       0.9263    0.694   0.9333     C
C       0.9348    0.217   0.4561     C
C       0.9348    0.783   0.9561     C
O       0.9373   0.4884   0.4021     O
O       0.9373   0.5116   0.9021     O
U      0.94376  0.27184  0.93871     U
U      0.94376  0.72816  0.43871     U
O       0.9474   0.1976   0.7813     O
O       0.9474   0.8024   0.2813     O
O        0.952   0.4189    0.816     O
O        0.952   0.5811    0.316     O
O       0.9717   0.3113   0.0362     O
O       0.9717   0.6887   0.5362     O
O       0.9793   0.1642   0.9132     O
O       0.9793   0.8358   0.4132     O
K      0.98173   0.4617   0.0946     K
K      0.98173   0.5383   0.5946     K
N        0.983   0.1854   0.4742     N
N        0.983   0.8146   0.9742     N
K      0.98413   0.2874  0.63093     K
K      0.98413   0.7126  0.13093     K
O        0.985   0.3407   0.9404     O
O        0.985   0.6593   0.4404     O
C       0.9873   0.1821   0.4252     C
C       0.9873   0.8179   0.9252     C
C       0.9875   0.0992    0.494     C
C       0.9875   0.9008    0.994     C
O       0.9892    0.038   0.5732     O
O       0.9892    0.962   0.0732     O
C       0.9947   0.2646   0.0807     C
C       0.9947   0.7354   0.5807     C
O       0.9984    0.284   0.3739     O
O       0.9984    0.716   0.8739     O
C       0.9996   0.0974    0.557     C
C       0.9996   0.9026    0.057     C
