data_I
_chemical_name_common  '/home/zhangsd/repos/MofS-CGCNN/ML/data/TSD/clean_cifs/QOYLOG_clean'
_cell_length_a 15.52590
_cell_length_b 11.86700
_cell_length_c  9.41290
_cell_angle_alpha 90.00000
_cell_angle_beta  113.08900
_cell_angle_gamma 90.00000
_space_group_name_H-M_alt      'P 1'


loop_
_space_group_symop_operation_xyz
  'x, y, z' 

loop_
_atom_site_label
_atom_site_fract_x
_atom_site_fract_y
_atom_site_fract_z
_atom_site_type_symbol
Ni         0.0      0.0      0.0    Ni
O       0.0768   0.1209   0.1515     O
O       0.0768   0.8791   0.1515     O
H       0.0784   0.0571   0.8159     H
H       0.0784   0.9429   0.8159     H
O       0.0831      0.0     0.87     O
O       0.1077   0.1718   0.7172     O
O       0.1077   0.8282   0.7172     O
H       0.1295   0.1216   0.4472     H
H       0.1295   0.8784   0.4472     H
C        0.162   0.1465   0.1972     C
C        0.162   0.8535   0.1972     C
C       0.1782    0.173   0.4685     C
C       0.1782    0.827   0.4685     C
C       0.1934   0.1661   0.7414     C
C       0.1934   0.8339   0.7414     C
C       0.2051   0.2065   0.3507     C
C       0.2051   0.7935   0.3507     C
O       0.2157   0.1258   0.1314     O
O       0.2157   0.8742   0.1314     O
C       0.2228   0.2152   0.6189     C
C       0.2228   0.7848   0.6189     C
Ni     0.22704      0.0  0.99431    Ni
O       0.2463   0.3835   0.1472     O
O       0.2463   0.6165   0.1472     O
O       0.2537   0.1165   0.8528     O
O       0.2537   0.8835   0.8528     O
Ni     0.27296      0.5  0.00569    Ni
C       0.2772   0.2848   0.3811     C
C       0.2772   0.7152   0.3811     C
O       0.2843   0.3742   0.8686     O
O       0.2843   0.6258   0.8686     O
C       0.2949   0.2935   0.6493     C
C       0.2949   0.7065   0.6493     C
C       0.3066   0.3339   0.2586     C
C       0.3066   0.6661   0.2586     C
C       0.3218    0.327   0.5315     C
C       0.3218    0.673   0.5315     C
C        0.338   0.3535   0.8028     C
C        0.338   0.6465   0.8028     C
H       0.3705   0.3784   0.5528     H
H       0.3705   0.6216   0.5528     H
O       0.3923   0.3282   0.2828     O
O       0.3923   0.6718   0.2828     O
O       0.4169      0.5     0.13     O
H       0.4216   0.4429   0.1841     H
H       0.4216   0.5571   0.1841     H
O       0.4232   0.3791   0.8485     O
O       0.4232   0.6209   0.8485     O
Ni         0.5      0.5      0.0    Ni
O       0.5768   0.3791   0.1515     O
O       0.5768   0.6209   0.1515     O
H       0.5784   0.4429   0.8159     H
H       0.5784   0.5571   0.8159     H
O       0.5831      0.5     0.87     O
O       0.6077   0.3282   0.7172     O
O       0.6077   0.6718   0.7172     O
H       0.6295   0.3784   0.4472     H
H       0.6295   0.6216   0.4472     H
C        0.662   0.3535   0.1972     C
C        0.662   0.6465   0.1972     C
C       0.6782    0.327   0.4685     C
C       0.6782    0.673   0.4685     C
C       0.6934   0.3339   0.7414     C
C       0.6934   0.6661   0.7414     C
C       0.7051   0.2935   0.3507     C
C       0.7051   0.7065   0.3507     C
O       0.7157   0.3742   0.1314     O
O       0.7157   0.6258   0.1314     O
C       0.7228   0.2848   0.6189     C
C       0.7228   0.7152   0.6189     C
Ni     0.72704      0.5  0.99431    Ni
O       0.7463   0.1165   0.1472     O
O       0.7463   0.8835   0.1472     O
O       0.7537   0.3835   0.8528     O
O       0.7537   0.6165   0.8528     O
Ni     0.77296      0.0  0.00569    Ni
C       0.7772   0.2152   0.3811     C
C       0.7772   0.7848   0.3811     C
O       0.7843   0.1258   0.8686     O
O       0.7843   0.8742   0.8686     O
C       0.7949   0.2065   0.6493     C
C       0.7949   0.7935   0.6493     C
C       0.8066   0.1661   0.2586     C
C       0.8066   0.8339   0.2586     C
C       0.8218    0.173   0.5315     C
C       0.8218    0.827   0.5315     C
C        0.838   0.1465   0.8028     C
C        0.838   0.8535   0.8028     C
H       0.8705   0.1216   0.5528     H
H       0.8705   0.8784   0.5528     H
O       0.8923   0.1718   0.2828     O
O       0.8923   0.8282   0.2828     O
O       0.9169      0.0     0.13     O
H       0.9216   0.0571   0.1841     H
H       0.9216   0.9429   0.1841     H
O       0.9232   0.1209   0.8485     O
O       0.9232   0.8791   0.8485     O
