data_I
_chemical_name_common  '/home/zhangsd/repos/MofS-CGCNN/ML/data/TSD/clean_cifs/QUDJOP_clean'
_cell_length_a 10.10100
_cell_length_b 10.21840
_cell_length_c 21.05800
_cell_angle_alpha 90.00000
_cell_angle_beta  90.00000
_cell_angle_gamma 106.09800
_space_group_name_H-M_alt      'P 1'


loop_
_space_group_symop_operation_xyz
  'x, y, z' 

loop_
_atom_site_label
_atom_site_fract_x
_atom_site_fract_y
_atom_site_fract_z
_atom_site_type_symbol
C       0.0079   0.1342  0.97831     C
C       0.0114    0.265  0.95541     C
N       0.0138   0.5087  0.52861     N
O       0.0241   0.4419  0.82286     O
H       0.0336   0.4624   0.6463     H
C       0.0383   0.5754  0.12264     C
C        0.052    0.588  0.36849     C
C       0.0625   0.7171  0.09691     C
H       0.0653   0.3412   0.9764     H
O       0.0679    0.485  0.09188     O
C       0.0767   0.9838  0.05381     C
C       0.0835   0.1142  0.03194     C
C       0.0871   0.5799  0.43116     C
Zn     0.10048  0.62311  0.78735    Zn
H       0.1083   0.7154   0.9222     H
H       0.1201   0.6782   0.2856     H
H       0.1389   0.1894   0.0531     H
C       0.1451   0.6717  0.32777     C
C       0.1489   0.8358  0.12865     C
C       0.1541   0.9621  0.10776     C
C       0.1953    0.765  0.90852     C
H       0.2096   0.0371   0.1291     H
C        0.216   0.6552  0.45179     C
O       0.2177    0.582  0.72017     O
O       0.2247   0.7894  0.68679     O
N       0.2292   0.7559   0.8473     N
C       0.2406   0.8166  0.18229     C
H       0.2421   0.6519    0.494     H
H       0.2579   0.8481    0.994     H
C       0.2594   0.6834  0.68229     C
N       0.2708   0.7441   0.3473     N
O       0.2753   0.7106  0.18679     O
O       0.2823    0.918  0.22017     O
C        0.284   0.8448  0.95179     C
H       0.2904   0.4629   0.6291     H
C       0.3047    0.735  0.40852     C
C       0.3459   0.5379  0.60776     C
C       0.3511   0.6642  0.62865     C
C       0.3549   0.8283  0.82777     C
H       0.3611   0.3106   0.5531     H
H       0.3799   0.8218   0.7856     H
H       0.3917   0.7846   0.4222     H
Zn     0.39952  0.87689  0.28735    Zn
C       0.4129   0.9201  0.93116     C
C       0.4165   0.3858  0.53194     C
C       0.4233   0.5162  0.55381     C
O       0.4321    0.015  0.59188     O
H       0.4347   0.1588   0.4764     H
C       0.4375   0.7829  0.59691     C
C        0.448    0.912  0.86849     C
C       0.4617   0.9246  0.62264     C
H       0.4664   0.0376   0.1463     H
O       0.4759   0.0581  0.32286     O
N       0.4862   0.9913  0.02861     N
C       0.4886    0.235  0.45541     C
C       0.4921   0.3658  0.47831     C
C       0.5079   0.6342  0.52169     C
C       0.5114    0.765  0.54459     C
N       0.5138   0.0087  0.97139     N
O       0.5241   0.9419  0.67714     O
H       0.5336   0.9624   0.8537     H
C       0.5383   0.0754  0.37736     C
C        0.552    0.088  0.13151     C
C       0.5625   0.2171  0.40309     C
H       0.5653   0.8412   0.5236     H
O       0.5679    0.985  0.40812     O
C       0.5767   0.4838  0.44619     C
C       0.5835   0.6142  0.46806     C
C       0.5871   0.0799  0.06884     C
Zn     0.60048  0.12311  0.71265    Zn
H       0.6083   0.2154   0.5778     H
H       0.6201   0.1782   0.2144     H
H       0.6389   0.6894   0.4469     H
C       0.6451   0.1717  0.17223     C
C       0.6489   0.3358  0.37135     C
C       0.6541   0.4621  0.39224     C
C       0.6953    0.265  0.59148     C
H       0.7096   0.5371   0.3709     H
C        0.716   0.1552  0.04821     C
O       0.7177    0.082  0.77983     O
O       0.7247   0.2894  0.81321     O
N       0.7292   0.2559   0.6527     N
C       0.7406   0.3166  0.31771     C
H       0.7421   0.1519    0.006     H
H       0.7579   0.3481    0.506     H
C       0.7594   0.1834  0.81771     C
N       0.7708   0.2441   0.1527     N
O       0.7753   0.2106  0.31321     O
O       0.7823    0.418  0.27983     O
C        0.784   0.3448  0.54821     C
H       0.7904   0.9629   0.8709     H
C       0.8047    0.235  0.09148     C
C       0.8459   0.0379  0.89224     C
C       0.8511   0.1642  0.87135     C
C       0.8549   0.3283  0.67223     C
H       0.8611   0.8106   0.9469     H
H       0.8799   0.3218   0.7144     H
H       0.8917   0.2846   0.0778     H
Zn     0.89952  0.37689  0.21265    Zn
C       0.9129   0.4201  0.56884     C
C       0.9165   0.8858  0.96806     C
C       0.9233   0.0162  0.94619     C
O       0.9321    0.515  0.90812     O
H       0.9347   0.6588   0.0236     H
C       0.9375   0.2829  0.90309     C
C        0.948    0.412  0.63151     C
C       0.9617   0.4246  0.87736     C
H       0.9664   0.5376   0.3537     H
O       0.9759   0.5581  0.17714     O
N       0.9862   0.4913  0.47139     N
C       0.9886    0.735  0.04459     C
C       0.9921   0.8658  0.02169     C
