data_I
_chemical_name_common  '/home/zhangsd/repos/MofS-CGCNN/ML/data/TSD/clean_cifs/QUNVIG_clean'
_cell_length_a 24.50630
_cell_length_b 24.50630
_cell_length_c 24.50630
_cell_angle_alpha 90.00000
_cell_angle_beta  90.00000
_cell_angle_gamma 90.00000
_space_group_name_H-M_alt      'P 1'


loop_
_space_group_symop_operation_xyz
  'x, y, z' 

loop_
_atom_site_label
_atom_site_fract_x
_atom_site_fract_y
_atom_site_fract_z
_atom_site_type_symbol
Co         0.0      0.0      0.0    Co
Co         0.0      0.5      0.5    Co
H       0.0014   0.6609   0.6779     H
H       0.0014   0.8391   0.1779     H
F       0.0022   0.1346   0.9363     F
F       0.0022   0.3654   0.4363     F
H       0.0058   0.6929   0.4623     H
H       0.0058   0.8071   0.9623     H
N       0.0138   0.5817   0.6772     N
N       0.0138   0.9183   0.1772     N
C       0.0175   0.6318   0.6979     C
C       0.0175   0.8682   0.1979     C
H       0.0221   0.7262   0.9184     H
H       0.0221   0.7738   0.4184     H
Co     0.02906  0.06681  0.89611    Co
Co     0.02906  0.43319  0.39611    Co
F       0.0316   0.5672   0.4617     F
F       0.0316   0.9328   0.9617     F
H       0.0377   0.5058   0.6929     H
H       0.0377   0.9942   0.1929     H
F       0.0383   0.5316   0.5672     F
F       0.0383   0.9684   0.0672     F
C       0.0387    0.542   0.7065     C
C       0.0387    0.958   0.2065     C
C        0.042   0.7065   0.4613     C
C        0.042   0.7935   0.9613     C
C       0.0431   0.6443   0.7462     C
C       0.0431   0.8557   0.2462     C
H       0.0434   0.6808   0.7594     H
H       0.0434   0.8192   0.2594     H
C       0.0515   0.7454   0.9347     C
C       0.0515   0.7546   0.4347     C
H       0.0541   0.6817   0.8458     H
H       0.0541   0.8183   0.3458     H
F       0.0637   0.5022   0.3654     F
F       0.0637   0.9978   0.8654     F
C       0.0653   0.5515   0.7546     C
C       0.0653   0.9485   0.2546     C
H       0.0659   0.6156   0.3514     H
H       0.0659   0.8844   0.8514     H
Co     0.06681  0.60389  0.52906    Co
Co     0.06681  0.89611  0.02906    Co
F       0.0672   0.0383   0.9684     F
F       0.0672   0.4617   0.4684     F
C       0.0684   0.6032   0.7752     C
C       0.0684   0.8968   0.2752     C
H       0.0816   0.5221   0.7738     H
H       0.0816   0.9779   0.2738     H
N       0.0817   0.6772   0.4862     N
N       0.0817   0.8228   0.9862     N
H       0.0821   0.7094    0.591     H
H       0.0821   0.7906    0.091     H
N        0.085   0.6605   0.8557     N
N        0.085   0.8395   0.3557     N
H        0.091   0.0821   0.7906     H
H        0.091   0.4179   0.2906     H
N       0.0958   0.1108   0.8652     N
N       0.0958   0.3892   0.3652     N
H       0.0975   0.6923   0.3067     H
H       0.0975   0.8077   0.8067     H
C       0.0992   0.6157   0.8251     C
C       0.0992   0.8843   0.3251     C
C       0.1029   0.6261   0.3562     C
C       0.1029   0.8739   0.8562     C
C       0.1032   0.7248   0.9316     C
C       0.1032   0.7752   0.4316     C
Co     0.10389  0.52906  0.43319    Co
Co     0.10389  0.97094  0.93319    Co
C       0.1058   0.6866   0.6115     C
C       0.1058   0.8134   0.1115     C
N       0.1108   0.6348   0.5958     N
N       0.1108   0.8652   0.0958     N
C       0.1115   0.1058   0.8134     C
C       0.1115   0.3942   0.3134     C
H       0.1156   0.1486   0.9341     H
H       0.1156   0.3514   0.4341     H
C       0.1157   0.6749   0.9008     C
C       0.1157   0.8251   0.4008     C
C       0.1216   0.6719   0.3291     C
C       0.1216   0.8281   0.8291     C
C       0.1261   0.1438   0.8971     C
C       0.1261   0.3562   0.3971     C
H       0.1291   0.7473   0.6631     H
H       0.1291   0.7527   0.1631     H
C       0.1318   0.6979   0.4825     C
C       0.1318   0.8021   0.9825     C
C       0.1326   0.7095   0.6551     C
C       0.1326   0.7905   0.1551     C
F       0.1346   0.5637   0.5022     F
F       0.1346   0.9363   0.0022     F
N       0.1348   0.5958   0.3892     N
N       0.1348   0.9042   0.8892     N
H       0.1407   0.7384   0.2471     H
H       0.1407   0.7616   0.7471     H
C       0.1438   0.6029   0.6261     C
C       0.1438   0.8971   0.1261     C
C       0.1443    0.585   0.8395     C
C       0.1443   0.7462   0.4569     C
C       0.1443   0.7538   0.9569     C
C       0.1443    0.915   0.3395     C
H       0.1486   0.5659   0.6156     H
H       0.1486   0.9341   0.1156     H
H       0.1542   0.5541   0.8183     H
H       0.1542   0.9459   0.3183     H
C       0.1551   0.1326   0.7905     C
C       0.1551   0.3674   0.2905     C
N       0.1605   0.6443    0.915     N
N       0.1605   0.8557    0.415     N
H       0.1609   0.6779   0.4986     H
H       0.1609   0.8221   0.9986     H
H       0.1631   0.1291   0.7527     H
H       0.1631   0.3709   0.2527     H
C       0.1655   0.6751   0.6877     C
C       0.1655   0.8249   0.1877     C
C       0.1709   0.6216   0.6719     C
C       0.1709   0.8784   0.1719     C
C       0.1719   0.1709   0.8784     C
C       0.1719   0.3291   0.3784     C
N        0.172   0.7438   0.7614     N
N        0.172   0.7562   0.2614     N
C       0.1749   0.5992   0.8843     C
C       0.1749   0.9008   0.3843     C
C       0.1751   0.6877   0.3345     C
C       0.1751   0.8123   0.8345     C
N       0.1772   0.0138   0.9183     N
N       0.1772   0.4862   0.4183     N
H       0.1779   0.0014   0.8391     H
H       0.1779   0.4986   0.3391     H
H       0.1808   0.7406   0.9566     H
H       0.1808   0.7594   0.4566     H
H       0.1817   0.6542   0.9459     H
H       0.1817   0.8458   0.4459     H
C       0.1866   0.6115   0.3942     C
C       0.1866   0.8885   0.8942     C
C       0.1877   0.1655   0.8249     C
C       0.1877   0.3345   0.3249     C
H       0.1923   0.1933   0.9025     H
H       0.1923   0.3067   0.4025     H
C       0.1926   0.6977   0.7363     C
C       0.1926   0.8023   0.2363     C
H       0.1929   0.0377   0.9942     H
H       0.1929   0.4623   0.4942     H
H       0.1933   0.5975   0.6923     H
H       0.1933   0.9025   0.1923     H
C       0.1977   0.7363   0.3074     C
C       0.1977   0.7637   0.8074     C
C       0.1979   0.0175   0.8682     C
C       0.1979   0.4825   0.3682     C
C       0.2065   0.0387    0.958     C
C       0.2065   0.4613    0.458     C
H       0.2094    0.591   0.4179     H
H       0.2094    0.909   0.9179     H
C       0.2095   0.6551   0.3674     C
C       0.2095   0.8449   0.8674     C
C       0.2248   0.5684   0.8968     C
C       0.2248   0.9316   0.3968     C
H       0.2262   0.5816   0.9779     H
H       0.2262   0.9184   0.4779     H
C       0.2363   0.1926   0.8023     C
C       0.2363   0.3074   0.3023     C
H       0.2384   0.2471   0.3593     H
H       0.2384   0.2529   0.8593     H
N       0.2386    0.672   0.7562     N
N       0.2386    0.828   0.2562     N
H       0.2406   0.5434   0.8192     H
H       0.2406   0.9566   0.3192     H
C       0.2438   0.7386    0.828     C
C       0.2438   0.7614    0.328     C
C       0.2454   0.5653   0.9485     C
C       0.2454   0.9347   0.4485     C
C       0.2462   0.0431   0.8557     C
C       0.2462   0.4569   0.3557     C
H       0.2471   0.1407   0.7384     H
H       0.2471   0.3593   0.2384     H
H       0.2473   0.6631   0.3709     H
H       0.2473   0.8369   0.8709     H
H       0.2527   0.1631   0.3709     H
H       0.2527   0.3369   0.8709     H
H       0.2529   0.6407   0.7384     H
H       0.2529   0.8593   0.2384     H
C       0.2538   0.5431   0.8557     C
C       0.2538   0.9569   0.3557     C
C       0.2546   0.0653   0.9485     C
C       0.2546   0.4347   0.4485     C
C       0.2562   0.2386    0.828     C
C       0.2562   0.2614    0.328     C
H       0.2594   0.0434   0.8192     H
H       0.2594   0.4566   0.3192     H
N       0.2614    0.172   0.7562     N
N       0.2614    0.328   0.2562     N
H       0.2616   0.7471   0.3593     H
H       0.2616   0.7529   0.8593     H
C       0.2637   0.6926   0.8023     C
C       0.2637   0.8074   0.3023     C
H       0.2738   0.0816   0.9779     H
H       0.2738   0.4184   0.4779     H
C       0.2752   0.0684   0.8968     C
C       0.2752   0.4316   0.3968     C
C       0.2905   0.1551   0.3674     C
C       0.2905   0.3449   0.8674     C
H       0.2906    0.091   0.4179     H
H       0.2906    0.409   0.9179     H
C       0.2935   0.5387    0.958     C
C       0.2935   0.9613    0.458     C
C       0.3021   0.5175   0.8682     C
C       0.3021   0.9825   0.3682     C
C       0.3023   0.2363   0.3074     C
C       0.3023   0.2637   0.8074     C
H       0.3067   0.0975   0.6923     H
H       0.3067   0.4025   0.1923     H
H       0.3071   0.5377   0.9942     H
H       0.3071   0.9623   0.4942     H
C       0.3074   0.1977   0.7363     C
C       0.3074   0.3023   0.2363     C
H       0.3077   0.6933   0.9025     H
H       0.3077   0.8067   0.4025     H
C       0.3123   0.6655   0.8249     C
C       0.3123   0.8345   0.3249     C
C       0.3134   0.1115   0.3942     C
C       0.3134   0.3885   0.8942     C
H       0.3183   0.1542   0.9459     H
H       0.3183   0.3458   0.4459     H
H       0.3192   0.2406   0.9566     H
H       0.3192   0.2594   0.4566     H
H       0.3221   0.5014   0.8391     H
H       0.3221   0.9986   0.3391     H
N       0.3228   0.5138   0.9183     N
N       0.3228   0.9862   0.4183     N
C       0.3249   0.1877   0.3345     C
C       0.3249   0.3123   0.8345     C
C       0.3251   0.0992   0.8843     C
C       0.3251   0.4008   0.3843     C
N        0.328   0.2438   0.7614     N
N        0.328   0.2562   0.2614     N
C       0.3281   0.6709   0.8784     C
C       0.3281   0.8291   0.3784     C
C       0.3291   0.1216   0.6719     C
C       0.3291   0.3784   0.1719     C
C       0.3345   0.1751   0.6877     C
C       0.3345   0.3249   0.1877     C
H       0.3369   0.6291   0.7527     H
H       0.3369   0.8709   0.2527     H
H       0.3391   0.1779   0.4986     H
H       0.3391   0.3221   0.9986     H
N       0.3395   0.1443    0.915     N
N       0.3395   0.3557    0.415     N
C       0.3449   0.6326   0.7905     C
C       0.3449   0.8674   0.2905     C
H       0.3458   0.0541   0.8183     H
H       0.3458   0.4459   0.3183     H
H       0.3514   0.0659   0.6156     H
H       0.3514   0.4341   0.1156     H
C       0.3557    0.085   0.8395     C
C       0.3557   0.2462   0.4569     C
C       0.3557   0.2538   0.9569     C
C       0.3557    0.415   0.3395     C
C       0.3562   0.1029   0.6261     C
C       0.3562   0.3971   0.1261     C
H       0.3593   0.2384   0.2471     H
H       0.3593   0.2616   0.7471     H
N       0.3652   0.0958   0.3892     N
N       0.3652   0.4042   0.8892     N
F       0.3654   0.0637   0.5022     F
F       0.3654   0.4363   0.0022     F
C       0.3674   0.2095   0.6551     C
C       0.3674   0.2905   0.1551     C
C       0.3682   0.1979   0.4825     C
C       0.3682   0.3021   0.9825     C
H       0.3709   0.2473   0.6631     H
H       0.3709   0.2527   0.1631     H
C       0.3739   0.6438   0.8971     C
C       0.3739   0.8562   0.3971     C
C       0.3784   0.1719   0.3291     C
C       0.3784   0.3281   0.8291     C
C       0.3843   0.1749   0.9008     C
C       0.3843   0.3251   0.4008     C
H       0.3844   0.6486   0.9341     H
H       0.3844   0.8514   0.4341     H
C       0.3885   0.6058   0.8134     C
C       0.3885   0.8942   0.3134     C
N       0.3892   0.1348   0.5958     N
N       0.3892   0.3652   0.0958     N
C       0.3942   0.1866   0.6115     C
C       0.3942   0.3134   0.1115     C
Co     0.39611  0.02906  0.43319    Co
Co     0.39611  0.47094  0.93319    Co
C       0.3968   0.2248   0.9316     C
C       0.3968   0.2752   0.4316     C
C       0.3971   0.1261   0.3562     C
C       0.3971   0.3739   0.8562     C
C       0.4008   0.1157   0.8251     C
C       0.4008   0.3843   0.3251     C
H       0.4025   0.1923   0.3067     H
H       0.4025   0.3077   0.8067     H
N       0.4042   0.6108   0.8652     N
N       0.4042   0.8892   0.3652     N
H        0.409   0.5821   0.7906     H
H        0.409   0.9179   0.2906     H
N        0.415   0.1605   0.8557     N
N        0.415   0.3395   0.3557     N
H       0.4179   0.2094    0.591     H
H       0.4179   0.2906    0.091     H
N       0.4183   0.1772   0.4862     N
N       0.4183   0.3228   0.9862     N
H       0.4184   0.0221   0.7738     H
H       0.4184   0.4779   0.2738     H
C       0.4316   0.1032   0.7752     C
C       0.4316   0.3968   0.2752     C
F       0.4328   0.5383   0.9684     F
F       0.4328   0.9617   0.4684     F
Co     0.43319  0.10389  0.52906    Co
Co     0.43319  0.39611  0.02906    Co
H       0.4341   0.1156   0.3514     H
H       0.4341   0.3844   0.8514     H
C       0.4347   0.0515   0.7546     C
C       0.4347   0.4485   0.2546     C
F       0.4363   0.0022   0.3654     F
F       0.4363   0.4978   0.8654     F
H       0.4459   0.1817   0.8458     H
H       0.4459   0.3183   0.3458     H
C       0.4485   0.2454   0.9347     C
C       0.4485   0.2546   0.4347     C
H       0.4566   0.1808   0.7594     H
H       0.4566   0.3192   0.2594     H
C       0.4569   0.1443   0.7462     C
C       0.4569   0.3557   0.2462     C
C        0.458   0.2065   0.4613     C
C        0.458   0.2935   0.9613     C
C       0.4613    0.042   0.7065     C
C       0.4613    0.458   0.2065     C
F       0.4617   0.0316   0.5672     F
F       0.4617   0.4684   0.0672     F
H       0.4623   0.0058   0.6929     H
H       0.4623   0.4942   0.1929     H
F       0.4684   0.0672   0.4617     F
F       0.4684   0.4328   0.9617     F
Co     0.47094  0.56681  0.89611    Co
Co     0.47094  0.93319  0.39611    Co
H       0.4779   0.2262   0.9184     H
H       0.4779   0.2738   0.4184     H
C       0.4825   0.1318   0.6979     C
C       0.4825   0.3682   0.1979     C
N       0.4862   0.0817   0.6772     N
N       0.4862   0.4183   0.1772     N
H       0.4942   0.1929   0.4623     H
H       0.4942   0.3071   0.9623     H
F       0.4978   0.6346   0.9363     F
F       0.4978   0.8654   0.4363     F
H       0.4986   0.1609   0.6779     H
H       0.4986   0.3391   0.1779     H
Co         0.5      0.0      0.5    Co
Co         0.5      0.5      0.0    Co
H       0.5014   0.6609   0.8221     H
H       0.5014   0.8391   0.3221     H
F       0.5022   0.1346   0.5637     F
F       0.5022   0.3654   0.0637     F
H       0.5058   0.6929   0.0377     H
H       0.5058   0.8071   0.5377     H
N       0.5138   0.5817   0.8228     N
N       0.5138   0.9183   0.3228     N
C       0.5175   0.6318   0.8021     C
C       0.5175   0.8682   0.3021     C
H       0.5221   0.7262   0.5816     H
H       0.5221   0.7738   0.0816     H
Co     0.52906  0.06681  0.60389    Co
Co     0.52906  0.43319  0.10389    Co
F       0.5316   0.5672   0.0383     F
F       0.5316   0.9328   0.5383     F
H       0.5377   0.5058   0.8071     H
H       0.5377   0.9942   0.3071     H
F       0.5383   0.5316   0.9328     F
F       0.5383   0.9684   0.4328     F
C       0.5387    0.542   0.7935     C
C       0.5387    0.958   0.2935     C
C        0.542   0.7065   0.0387     C
C        0.542   0.7935   0.5387     C
C       0.5431   0.6443   0.7538     C
C       0.5431   0.8557   0.2538     C
H       0.5434   0.6808   0.7406     H
H       0.5434   0.8192   0.2406     H
C       0.5515   0.7454   0.5653     C
C       0.5515   0.7546   0.0653     C
H       0.5541   0.6817   0.6542     H
H       0.5541   0.8183   0.1542     H
F       0.5637   0.5022   0.1346     F
F       0.5637   0.9978   0.6346     F
C       0.5653   0.5515   0.7454     C
C       0.5653   0.9485   0.2454     C
H       0.5659   0.6156   0.1486     H
H       0.5659   0.8844   0.6486     H
Co     0.56681  0.60389  0.97094    Co
Co     0.56681  0.89611  0.47094    Co
F       0.5672   0.0383   0.5316     F
F       0.5672   0.4617   0.0316     F
C       0.5684   0.6032   0.7248     C
C       0.5684   0.8968   0.2248     C
H       0.5816   0.5221   0.7262     H
H       0.5816   0.9779   0.2262     H
N       0.5817   0.6772   0.0138     N
N       0.5817   0.8228   0.5138     N
H       0.5821   0.7094    0.909     H
H       0.5821   0.7906    0.409     H
N        0.585   0.6605   0.6443     N
N        0.585   0.8395   0.1443     N
H        0.591   0.0821   0.7094     H
H        0.591   0.4179   0.2094     H
N       0.5958   0.1108   0.6348     N
N       0.5958   0.3892   0.1348     N
H       0.5975   0.6923   0.1933     H
H       0.5975   0.8077   0.6933     H
C       0.5992   0.6157   0.6749     C
C       0.5992   0.8843   0.1749     C
C       0.6029   0.6261   0.1438     C
C       0.6029   0.8739   0.6438     C
C       0.6032   0.7248   0.5684     C
C       0.6032   0.7752   0.0684     C
Co     0.60389  0.52906  0.06681    Co
Co     0.60389  0.97094  0.56681    Co
C       0.6058   0.6866   0.8885     C
C       0.6058   0.8134   0.3885     C
N       0.6108   0.6348   0.9042     N
N       0.6108   0.8652   0.4042     N
C       0.6115   0.1058   0.6866     C
C       0.6115   0.3942   0.1866     C
H       0.6156   0.1486   0.5659     H
H       0.6156   0.3514   0.0659     H
C       0.6157   0.6749   0.5992     C
C       0.6157   0.8251   0.0992     C
C       0.6216   0.6719   0.1709     C
C       0.6216   0.8281   0.6709     C
C       0.6261   0.1438   0.6029     C
C       0.6261   0.3562   0.1029     C
H       0.6291   0.7473   0.8369     H
H       0.6291   0.7527   0.3369     H
C       0.6318   0.6979   0.0175     C
C       0.6318   0.8021   0.5175     C
C       0.6326   0.7095   0.8449     C
C       0.6326   0.7905   0.3449     C
F       0.6346   0.5637   0.9978     F
F       0.6346   0.9363   0.4978     F
N       0.6348   0.5958   0.1108     N
N       0.6348   0.9042   0.6108     N
H       0.6407   0.7384   0.2529     H
H       0.6407   0.7616   0.7529     H
C       0.6438   0.6029   0.8739     C
C       0.6438   0.8971   0.3739     C
C       0.6443    0.585   0.6605     C
C       0.6443   0.7462   0.0431     C
C       0.6443   0.7538   0.5431     C
C       0.6443    0.915   0.1605     C
H       0.6486   0.5659   0.8844     H
H       0.6486   0.9341   0.3844     H
H       0.6542   0.5541   0.6817     H
H       0.6542   0.9459   0.1817     H
C       0.6551   0.1326   0.7095     C
C       0.6551   0.3674   0.2095     C
N       0.6605   0.6443    0.585     N
N       0.6605   0.8557    0.085     N
H       0.6609   0.6779   0.0014     H
H       0.6609   0.8221   0.5014     H
H       0.6631   0.1291   0.7473     H
H       0.6631   0.3709   0.2473     H
C       0.6655   0.6751   0.8123     C
C       0.6655   0.8249   0.3123     C
C       0.6709   0.6216   0.8281     C
C       0.6709   0.8784   0.3281     C
C       0.6719   0.1709   0.6216     C
C       0.6719   0.3291   0.1216     C
N        0.672   0.7438   0.7386     N
N        0.672   0.7562   0.2386     N
C       0.6749   0.5992   0.6157     C
C       0.6749   0.9008   0.1157     C
C       0.6751   0.6877   0.1655     C
C       0.6751   0.8123   0.6655     C
N       0.6772   0.0138   0.5817     N
N       0.6772   0.4862   0.0817     N
H       0.6779   0.0014   0.6609     H
H       0.6779   0.4986   0.1609     H
H       0.6808   0.7406   0.5434     H
H       0.6808   0.7594   0.0434     H
H       0.6817   0.6542   0.5541     H
H       0.6817   0.8458   0.0541     H
C       0.6866   0.6115   0.1058     C
C       0.6866   0.8885   0.6058     C
C       0.6877   0.1655   0.6751     C
C       0.6877   0.3345   0.1751     C
H       0.6923   0.1933   0.5975     H
H       0.6923   0.3067   0.0975     H
C       0.6926   0.6977   0.7637     C
C       0.6926   0.8023   0.2637     C
H       0.6929   0.0377   0.5058     H
H       0.6929   0.4623   0.0058     H
H       0.6933   0.5975   0.8077     H
H       0.6933   0.9025   0.3077     H
C       0.6977   0.7363   0.1926     C
C       0.6977   0.7637   0.6926     C
C       0.6979   0.0175   0.6318     C
C       0.6979   0.4825   0.1318     C
C       0.7065   0.0387    0.542     C
C       0.7065   0.4613    0.042     C
H       0.7094    0.591   0.0821     H
H       0.7094    0.909   0.5821     H
C       0.7095   0.6551   0.1326     C
C       0.7095   0.8449   0.6326     C
C       0.7248   0.5684   0.6032     C
C       0.7248   0.9316   0.1032     C
H       0.7262   0.5816   0.5221     H
H       0.7262   0.9184   0.0221     H
C       0.7363   0.1926   0.6977     C
C       0.7363   0.3074   0.1977     C
H       0.7384   0.2471   0.1407     H
H       0.7384   0.2529   0.6407     H
N       0.7386    0.672   0.7438     N
N       0.7386    0.828   0.2438     N
H       0.7406   0.5434   0.6808     H
H       0.7406   0.9566   0.1808     H
C       0.7438   0.7386    0.672     C
C       0.7438   0.7614    0.172     C
C       0.7454   0.5653   0.5515     C
C       0.7454   0.9347   0.0515     C
C       0.7462   0.0431   0.6443     C
C       0.7462   0.4569   0.1443     C
H       0.7471   0.1407   0.7616     H
H       0.7471   0.3593   0.2616     H
H       0.7473   0.6631   0.1291     H
H       0.7473   0.8369   0.6291     H
H       0.7527   0.1631   0.1291     H
H       0.7527   0.3369   0.6291     H
H       0.7529   0.6407   0.7616     H
H       0.7529   0.8593   0.2616     H
C       0.7538   0.5431   0.6443     C
C       0.7538   0.9569   0.1443     C
C       0.7546   0.0653   0.5515     C
C       0.7546   0.4347   0.0515     C
C       0.7562   0.2386    0.672     C
C       0.7562   0.2614    0.172     C
H       0.7594   0.0434   0.6808     H
H       0.7594   0.4566   0.1808     H
N       0.7614    0.172   0.7438     N
N       0.7614    0.328   0.2438     N
H       0.7616   0.7471   0.1407     H
H       0.7616   0.7529   0.6407     H
C       0.7637   0.6926   0.6977     C
C       0.7637   0.8074   0.1977     C
H       0.7738   0.0816   0.5221     H
H       0.7738   0.4184   0.0221     H
C       0.7752   0.0684   0.6032     C
C       0.7752   0.4316   0.1032     C
C       0.7905   0.1551   0.1326     C
C       0.7905   0.3449   0.6326     C
H       0.7906    0.091   0.0821     H
H       0.7906    0.409   0.5821     H
C       0.7935   0.5387    0.542     C
C       0.7935   0.9613    0.042     C
C       0.8021   0.5175   0.6318     C
C       0.8021   0.9825   0.1318     C
C       0.8023   0.2363   0.1926     C
C       0.8023   0.2637   0.6926     C
H       0.8067   0.0975   0.8077     H
H       0.8067   0.4025   0.3077     H
H       0.8071   0.5377   0.5058     H
H       0.8071   0.9623   0.0058     H
C       0.8074   0.1977   0.7637     C
C       0.8074   0.3023   0.2637     C
H       0.8077   0.6933   0.5975     H
H       0.8077   0.8067   0.0975     H
C       0.8123   0.6655   0.6751     C
C       0.8123   0.8345   0.1751     C
C       0.8134   0.1115   0.1058     C
C       0.8134   0.3885   0.6058     C
H       0.8183   0.1542   0.5541     H
H       0.8183   0.3458   0.0541     H
H       0.8192   0.2406   0.5434     H
H       0.8192   0.2594   0.0434     H
H       0.8221   0.5014   0.6609     H
H       0.8221   0.9986   0.1609     H
N       0.8228   0.5138   0.5817     N
N       0.8228   0.9862   0.0817     N
C       0.8249   0.1877   0.1655     C
C       0.8249   0.3123   0.6655     C
C       0.8251   0.0992   0.6157     C
C       0.8251   0.4008   0.1157     C
N        0.828   0.2438   0.7386     N
N        0.828   0.2562   0.2386     N
C       0.8281   0.6709   0.6216     C
C       0.8281   0.8291   0.1216     C
C       0.8291   0.1216   0.8281     C
C       0.8291   0.3784   0.3281     C
C       0.8345   0.1751   0.8123     C
C       0.8345   0.3249   0.3123     C
H       0.8369   0.6291   0.7473     H
H       0.8369   0.8709   0.2473     H
H       0.8391   0.1779   0.0014     H
H       0.8391   0.3221   0.5014     H
N       0.8395   0.1443    0.585     N
N       0.8395   0.3557    0.085     N
C       0.8449   0.6326   0.7095     C
C       0.8449   0.8674   0.2095     C
H       0.8458   0.0541   0.6817     H
H       0.8458   0.4459   0.1817     H
H       0.8514   0.0659   0.8844     H
H       0.8514   0.4341   0.3844     H
C       0.8557    0.085   0.6605     C
C       0.8557   0.2462   0.0431     C
C       0.8557   0.2538   0.5431     C
C       0.8557    0.415   0.1605     C
C       0.8562   0.1029   0.8739     C
C       0.8562   0.3971   0.3739     C
H       0.8593   0.2384   0.2529     H
H       0.8593   0.2616   0.7529     H
N       0.8652   0.0958   0.1108     N
N       0.8652   0.4042   0.6108     N
F       0.8654   0.0637   0.9978     F
F       0.8654   0.4363   0.4978     F
C       0.8674   0.2095   0.8449     C
C       0.8674   0.2905   0.3449     C
C       0.8682   0.1979   0.0175     C
C       0.8682   0.3021   0.5175     C
H       0.8709   0.2473   0.8369     H
H       0.8709   0.2527   0.3369     H
C       0.8739   0.6438   0.6029     C
C       0.8739   0.8562   0.1029     C
C       0.8784   0.1719   0.1709     C
C       0.8784   0.3281   0.6709     C
C       0.8843   0.1749   0.5992     C
C       0.8843   0.3251   0.0992     C
H       0.8844   0.6486   0.5659     H
H       0.8844   0.8514   0.0659     H
C       0.8885   0.6058   0.6866     C
C       0.8885   0.8942   0.1866     C
N       0.8892   0.1348   0.9042     N
N       0.8892   0.3652   0.4042     N
C       0.8942   0.1866   0.8885     C
C       0.8942   0.3134   0.3885     C
Co     0.89611  0.02906  0.06681    Co
Co     0.89611  0.47094  0.56681    Co
C       0.8968   0.2248   0.5684     C
C       0.8968   0.2752   0.0684     C
C       0.8971   0.1261   0.1438     C
C       0.8971   0.3739   0.6438     C
C       0.9008   0.1157   0.6749     C
C       0.9008   0.3843   0.1749     C
H       0.9025   0.1923   0.1933     H
H       0.9025   0.3077   0.6933     H
N       0.9042   0.6108   0.6348     N
N       0.9042   0.8892   0.1348     N
H        0.909   0.5821   0.7094     H
H        0.909   0.9179   0.2094     H
N        0.915   0.1605   0.6443     N
N        0.915   0.3395   0.1443     N
H       0.9179   0.2094    0.909     H
H       0.9179   0.2906    0.409     H
N       0.9183   0.1772   0.0138     N
N       0.9183   0.3228   0.5138     N
H       0.9184   0.0221   0.7262     H
H       0.9184   0.4779   0.2262     H
C       0.9316   0.1032   0.7248     C
C       0.9316   0.3968   0.2248     C
F       0.9328   0.5383   0.5316     F
F       0.9328   0.9617   0.0316     F
Co     0.93319  0.10389  0.97094    Co
Co     0.93319  0.39611  0.47094    Co
H       0.9341   0.1156   0.1486     H
H       0.9341   0.3844   0.6486     H
C       0.9347   0.0515   0.7454     C
C       0.9347   0.4485   0.2454     C
F       0.9363   0.0022   0.1346     F
F       0.9363   0.4978   0.6346     F
H       0.9459   0.1817   0.6542     H
H       0.9459   0.3183   0.1542     H
C       0.9485   0.2454   0.5653     C
C       0.9485   0.2546   0.0653     C
H       0.9566   0.1808   0.7406     H
H       0.9566   0.3192   0.2406     H
C       0.9569   0.1443   0.7538     C
C       0.9569   0.3557   0.2538     C
C        0.958   0.2065   0.0387     C
C        0.958   0.2935   0.5387     C
C       0.9613    0.042   0.7935     C
C       0.9613    0.458   0.2935     C
F       0.9617   0.0316   0.9328     F
F       0.9617   0.4684   0.4328     F
H       0.9623   0.0058   0.8071     H
H       0.9623   0.4942   0.3071     H
F       0.9684   0.0672   0.0383     F
F       0.9684   0.4328   0.5383     F
Co     0.97094  0.56681  0.60389    Co
Co     0.97094  0.93319  0.10389    Co
H       0.9779   0.2262   0.5816     H
H       0.9779   0.2738   0.0816     H
C       0.9825   0.1318   0.8021     C
C       0.9825   0.3682   0.3021     C
N       0.9862   0.0817   0.8228     N
N       0.9862   0.4183   0.3228     N
H       0.9942   0.1929   0.0377     H
H       0.9942   0.3071   0.5377     H
F       0.9978   0.6346   0.5637     F
F       0.9978   0.8654   0.0637     F
H       0.9986   0.1609   0.8221     H
H       0.9986   0.3391   0.3221     H
