data_I
_chemical_name_common  '/home/zhangsd/repos/MofS-CGCNN/ML/data/TSD/clean_cifs/QUQFIS_clean'
_cell_length_a 18.59000
_cell_length_b 18.59000
_cell_length_c 18.59000
_cell_angle_alpha 74.87650
_cell_angle_beta  74.87650
_cell_angle_gamma 74.87650
_space_group_name_H-M_alt      'P 1'


loop_
_space_group_symop_operation_xyz
  'x, y, z' 

loop_
_atom_site_label
_atom_site_fract_x
_atom_site_fract_y
_atom_site_fract_z
_atom_site_type_symbol
O      0.00018  0.49162   0.7449     O
Zn     0.00242  0.58057  0.79842    Zn
H        0.003     0.13   0.3157     H
O      0.00309   0.5141  0.39893     O
C        0.004  0.06322  0.42165     C
C      0.01179  0.48446  0.67622     C
O       0.0141  0.50309  0.89893     O
H        0.022   0.4986   0.5286     H
C      0.02548  0.47348  0.04997     C
C       0.0265  0.45484  0.12801     C
H       0.0283   0.1771   0.8759     H
H       0.0286   0.9986    0.522     H
C      0.02987  0.92238   0.0311     C
C       0.0311  0.02987  0.92238     C
C      0.03442  0.79698  0.12684     C
C      0.03503  0.10289  0.35059     C
C      0.03553  0.67392  0.22101     C
O      0.03739  0.31161  0.80217     O
C      0.04997  0.02548  0.47348     C
C      0.05916  0.44255  0.91966     C
H       0.0616   0.2377   0.2445     H
C      0.06322  0.42165    0.004     C
C      0.06494  0.95744  0.95854     C
C      0.06569  0.15009  0.84119     C
C      0.06573  0.38223  0.15794     C
H       0.0665   0.3686   0.2107     H
O      0.07074  0.44139   0.6487     O
C      0.07174  0.85296  0.07362     C
C      0.07362  0.07174  0.85296     C
O      0.07421  0.61964  0.25953     O
C      0.07461  0.73526  0.16814     C
Zn     0.08057  0.50242  0.29842    Zn
Zn     0.09889   0.4097  0.76773    Zn
O      0.09913  0.39636  0.87908     O
C      0.10031  0.27481  0.77521     C
C      0.10289  0.35059  0.03503     C
C      0.10306  0.33026  0.11264     C
C      0.11002  0.21478  0.21861     C
C      0.11044  0.19001  0.78058     C
H       0.1122   0.9317   0.9336     H
C      0.11264  0.10306  0.33026     C
O      0.11964  0.57421  0.75953     O
C      0.12684  0.03442  0.79698     C
C      0.12801   0.0265  0.45484     C
H         0.13   0.3157    0.003     H
H       0.1336   0.9809   0.8027     H
C      0.14283  0.25258  0.14767     C
C      0.14767  0.14283  0.25258     C
O       0.1487  0.94139  0.57074     O
C      0.15009  0.84119  0.06569     C
C      0.15437  0.72735  0.16223     C
O      0.15791  0.30492  0.74453     O
C      0.15794  0.06573  0.38223     C
C      0.16223  0.15437  0.72735     C
C      0.16814  0.07461  0.73526     C
C      0.17392  0.53553  0.72101     C
C      0.17622  0.98446  0.51179     C
H       0.1771   0.8759   0.0283     H
H       0.1818   0.6862   0.1935     H
O      0.18262  0.46613  0.72105     O
H       0.1862   0.6818   0.6935     H
C      0.19001  0.78058  0.11044     C
H       0.1935   0.1818   0.6862     H
H       0.2107   0.0665   0.3686     H
C      0.21478  0.21861  0.11002     C
C      0.21861  0.11002  0.21478     C
C      0.22101  0.03553  0.67392     C
O      0.22105  0.96613  0.68262     O
C      0.22735  0.65437  0.66223     C
C      0.23526  0.57461  0.66814     C
H       0.2377   0.2445   0.0616     H
H       0.2445   0.0616   0.2377     H
O      0.24453  0.80492  0.65791     O
O       0.2449  0.99162  0.50018     O
C      0.25258  0.14767  0.14283     C
O      0.25953  0.07421  0.61964     O
Zn     0.26773   0.9097  0.59889    Zn
C      0.27481  0.77521  0.10031     C
C      0.27521  0.77481  0.60031     C
C      0.28058  0.69001  0.61044     C
C      0.29698  0.53442  0.62684     C
Zn     0.29842  0.08057  0.50242    Zn
O      0.30217  0.81161  0.53739     O
H       0.3027   0.4809   0.6336     H
O      0.30492  0.74453  0.15791     O
O      0.31161  0.80217  0.03739     O
H       0.3157    0.003     0.13     H
C      0.33026  0.11264  0.10306     C
C      0.34119  0.65009  0.56569     C
C      0.35059  0.03503  0.10289     C
C      0.35296  0.57174  0.57362     C
H       0.3686   0.2107   0.0665     H
H       0.3759   0.6771   0.5283     H
O      0.37908  0.89636  0.59913     O
C      0.38223  0.15794  0.06573     C
O      0.39636  0.87908  0.09913     O
O      0.39893  0.00309   0.5141     O
Zn      0.4097  0.76773  0.09889    Zn
C      0.41966  0.94255  0.55916     C
C      0.42165    0.004  0.06322     C
C      0.42238  0.52987   0.5311     C
H       0.4317   0.6122   0.4336     H
H       0.4336   0.4317   0.6122     H
O      0.44139   0.6487  0.07074     O
C      0.44255  0.91966  0.05916     C
C      0.45484  0.12801   0.0265     C
C      0.45744  0.56494  0.45854     C
C      0.45854  0.45744  0.56494     C
O      0.46613  0.72105  0.18262     O
C      0.47348  0.04997  0.02548     C
H       0.4809   0.6336   0.3027     H
C      0.48446  0.67622  0.01179     C
O      0.49162   0.7449  0.00018     O
H       0.4986   0.5286    0.022     H
O      0.50018   0.2449  0.99162     O
Zn     0.50242  0.29842  0.08057    Zn
H        0.503   0.8157     0.63     H
O      0.50309  0.89893   0.0141     O
C        0.504  0.92165  0.56322     C
C      0.51179  0.17622  0.98446     C
O       0.5141  0.39893  0.00309     O
H        0.522   0.0286   0.9986     H
C      0.52548  0.54997  0.97348     C
C       0.5265  0.62801  0.95484     C
H       0.5283   0.3759   0.6771     H
H       0.5286    0.022   0.4986     H
C      0.52987   0.5311  0.42238     C
C       0.5311  0.42238  0.52987     C
C      0.53442  0.62684  0.29698     C
C      0.53503  0.85059  0.60289     C
C      0.53553  0.72101  0.17392     C
O      0.53739  0.30217  0.81161     O
C      0.54997  0.97348  0.52548     C
C      0.55916  0.41966  0.94255     C
H       0.5616   0.7445   0.7377     H
C      0.56322    0.504  0.92165     C
C      0.56494  0.45854  0.45744     C
C      0.56569  0.34119  0.65009     C
C      0.56573  0.65794  0.88223     C
H       0.5665   0.7107   0.8686     H
O      0.57074   0.1487  0.94139     O
C      0.57174  0.57362  0.35296     C
C      0.57362  0.35296  0.57174     C
O      0.57421  0.75953  0.11964     O
C      0.57461  0.66814  0.23526     C
Zn     0.58057  0.79842  0.00242    Zn
Zn     0.59889  0.26773   0.9097    Zn
O      0.59913  0.37908  0.89636     O
C      0.60031  0.27521  0.77481     C
C      0.60289  0.53503  0.85059     C
C      0.60306  0.61264  0.83026     C
C      0.61002  0.71861  0.71478     C
C      0.61044  0.28058  0.69001     C
H       0.6122   0.4336   0.4317     H
C      0.61264  0.83026  0.60306     C
O      0.61964  0.25953  0.07421     O
C      0.62684  0.29698  0.53442     C
C      0.62801  0.95484   0.5265     C
H         0.63    0.503   0.8157     H
H       0.6336   0.3027   0.4809     H
C      0.64283  0.64767  0.75258     C
C      0.64767  0.75258  0.64283     C
O       0.6487  0.07074  0.44139     O
C      0.65009  0.56569  0.34119     C
C      0.65437  0.66223  0.22735     C
O      0.65791  0.24453  0.80492     O
C      0.65794  0.88223  0.56573     C
C      0.66223  0.22735  0.65437     C
C      0.66814  0.23526  0.57461     C
C      0.67392  0.22101  0.03553     C
C      0.67622  0.01179  0.48446     C
H       0.6771   0.5283   0.3759     H
H       0.6818   0.6935   0.1862     H
O      0.68262  0.22105  0.96613     O
H       0.6862   0.1935   0.1818     H
C      0.69001  0.61044  0.28058     C
H       0.6935   0.1862   0.6818     H
H       0.7107   0.8686   0.5665     H
C      0.71478  0.61002  0.71861     C
C      0.71861  0.71478  0.61002     C
C      0.72101  0.17392  0.53553     C
O      0.72105  0.18262  0.46613     O
C      0.72735  0.16223  0.15437     C
C      0.73526  0.16814  0.07461     C
H       0.7377   0.5616   0.7445     H
H       0.7445   0.7377   0.5616     H
O      0.74453  0.15791  0.30492     O
O       0.7449  0.00018  0.49162     O
C      0.75258  0.64283  0.64767     C
O      0.75953  0.11964  0.57421     O
Zn     0.76773  0.09889   0.4097    Zn
C      0.77481  0.60031  0.27521     C
C      0.77521  0.10031  0.27481     C
C      0.78058  0.11044  0.19001     C
C      0.79698  0.12684  0.03442     C
Zn     0.79842  0.00242  0.58057    Zn
O      0.80217  0.03739  0.31161     O
H       0.8027   0.1336   0.9809     H
O      0.80492  0.65791  0.24453     O
O      0.81161  0.53739  0.30217     O
H       0.8157     0.63    0.503     H
C      0.83026  0.60306  0.61264     C
C      0.84119  0.06569  0.15009     C
C      0.85059  0.60289  0.53503     C
C      0.85296  0.07362  0.07174     C
H       0.8686   0.5665   0.7107     H
H       0.8759   0.0283   0.1771     H
O      0.87908  0.09913  0.39636     O
C      0.88223  0.56573  0.65794     C
O      0.89636  0.59913  0.37908     O
O      0.89893   0.0141  0.50309     O
Zn      0.9097  0.59889  0.26773    Zn
C      0.91966  0.05916  0.44255     C
C      0.92165  0.56322    0.504     C
C      0.92238   0.0311  0.02987     C
H       0.9317   0.9336   0.1122     H
H       0.9336   0.1122   0.9317     H
O      0.94139  0.57074   0.1487     O
C      0.94255  0.55916  0.41966     C
C      0.95484   0.5265  0.62801     C
C      0.95744  0.95854  0.06494     C
C      0.95854  0.06494  0.95744     C
O      0.96613  0.68262  0.22105     O
C      0.97348  0.52548  0.54997     C
H       0.9809   0.8027   0.1336     H
C      0.98446  0.51179  0.17622     C
O      0.99162  0.50018   0.2449     O
H       0.9986    0.522   0.0286     H
