data_I
_chemical_name_common  '/home/zhangsd/repos/MofS-CGCNN/ML/data/TSD/clean_cifs/QUSRUT_clean'
_cell_length_a 14.53300
_cell_length_b 15.47900
_cell_length_c 15.66600
_cell_angle_alpha 74.64300
_cell_angle_beta  74.57600
_cell_angle_gamma 81.43100
_space_group_name_H-M_alt      'P 1'


loop_
_space_group_symop_operation_xyz
  'x, y, z' 

loop_
_atom_site_label
_atom_site_fract_x
_atom_site_fract_y
_atom_site_fract_z
_atom_site_type_symbol
O       0.0161   0.9533   0.1141     O
H       0.0207   0.2966     0.44     H
C        0.027     0.11    0.885     C
C       0.0274   0.6279   0.3366     C
C       0.0297   0.6989   0.3889     C
H       0.0398    0.248   0.8326     H
O       0.0445   0.4105   0.6516     O
H       0.0524   0.8062   0.0762     H
O        0.053     0.86    0.071     O
H       0.0569   0.7513   0.3452     H
N       0.0576   0.2734   0.5598     N
C       0.0706   0.1977   0.8699     C
H       0.0707   0.2116   0.9267     H
H       0.0725   0.6746   0.4293     H
C       0.0789   0.2966   0.4591     C
N       0.1046   0.2115   0.6948     N
H       0.1049   0.6739   0.7978     H
O       0.1057   0.6117   0.2808     O
H       0.1064   0.7156   0.9251     H
C       0.1178   0.3854   0.4178     C
O       0.1207   0.4405   0.4637     O
H       0.1249   0.2508   0.4364     H
C       0.1301   0.2297   0.6004     C
O        0.138     0.65   0.0912     O
O       0.1431   0.4039   0.3341     O
U       0.1581  0.50299  0.19238     U
N       0.1615    0.171   0.8238     N
C       0.1666   0.6204   0.0182     C
O        0.168   0.7927   0.6407     O
C       0.1709   0.6919     0.93     C
C       0.1735   0.6774   0.7746     C
C       0.1781   0.1794   0.7325     C
O       0.1856   0.5409   0.0255     O
U      0.18652  0.47899  0.56708     U
C       0.1926   0.7706   0.7145     C
H       0.1973   0.6333   0.7383     H
H       0.2049    0.741   0.9306     H
N        0.213   0.2086   0.5518     N
H       0.2167   0.1383   0.9292     H
N        0.219   0.6553   0.8513     N
O       0.2378   0.8218   0.7376     O
C       0.2405   0.1514   0.8635     C
O       0.2444   0.3701   0.1535     O
N       0.2674   0.1557   0.6886     N
U      0.26824  0.92117  0.58451     U
H       0.2761   0.0972   0.8482     H
C       0.2799   0.1711   0.5974     C
O       0.2815   0.5397   0.4176     O
O       0.2919   0.2983   0.7858     O
O       0.3089   0.5599   0.5786     O
C         0.31   0.2247   0.8359     C
C       0.3178   0.6374   0.8346     C
C       0.3315   0.3399   0.1327     C
O        0.338    0.028    0.457     O
N       0.3553   0.6353   0.9022     N
C       0.3576   0.5203   0.3645     C
H       0.3595   0.2297   0.4298     H
N       0.3612   0.6238   0.7527     N
O       0.3616    0.263   0.1614     O
H       0.3634   0.3891   0.4219     H
H       0.3643   0.4109   0.3183     H
N       0.3654   0.1469   0.5499     N
C       0.3658   0.1031   0.4096     C
O       0.3703   0.1269   0.3253     O
O       0.3747   0.9688   0.6496     O
H       0.3755   0.6388   0.0398     H
C       0.3822   0.5358   0.6085     C
H        0.384   0.4223    0.006     H
O       0.3866   0.2058   0.8647     O
H       0.3875    0.464   0.0858     H
C       0.3898    0.427   0.3627     C
C       0.3918   0.1715   0.4511     C
C       0.3994   0.4088    0.065     C
O       0.4011   0.4559   0.6511     O
O       0.4038    0.584   0.3022     O
H       0.4194   0.6633   0.5846     H
C       0.4268   0.0173   0.6613     C
C       0.4415   0.1047   0.5981     C
C       0.4434    0.638   0.0356     C
O       0.4476   0.7287   0.1329     O
C       0.4502   0.6196   0.8814     C
H       0.4508   0.1459   0.6317     H
C       0.4534   0.6039   0.5918     C
U      0.45585   0.3433  0.76294     U
C       0.4567   0.6052   0.7443     C
H       0.4599   0.5892   0.0839     H
H       0.4603   0.1769   0.4307     H
C       0.4633   0.7265   0.0494     C
O       0.4727   0.9937     0.72     O
U      0.47894  0.14105  0.17948     U
O       0.4864   0.7893   0.9843     O
N       0.4953   0.3995   0.1946     N
N       0.4959   0.4074   0.3402     N
N       0.4981   0.6213   0.9464     N
H       0.4994   0.9013   0.4474     H
H       0.4995   0.6021   0.5346     H
H       0.5005   0.3979   0.4654     H
H       0.5006   0.0987   0.5526     H
N       0.5019   0.3787   0.0536     N
N       0.5041   0.5926   0.6598     N
N       0.5047   0.6005   0.8054     N
O       0.5136   0.2107   0.0157     O
U      0.52106  0.85895  0.82052     U
O       0.5273   0.0063     0.28     O
C       0.5367   0.2735   0.9506     C
H       0.5397   0.8231   0.5693     H
H       0.5401   0.4108   0.9161     H
C       0.5433   0.3948   0.2557     C
U      0.54415   0.6567  0.23706     U
C       0.5466   0.3961   0.4082     C
H       0.5492   0.8541   0.3683     H
C       0.5498   0.3804   0.1186     C
O       0.5524   0.2713   0.8671     O
C       0.5566    0.362   0.9644     C
C       0.5585   0.8953   0.4019     C
C       0.5732   0.9827   0.3387     C
H       0.5806   0.3367   0.4154     H
O       0.5962    0.416   0.6978     O
O       0.5989   0.5441   0.3489     O
C       0.6006   0.5912    0.935     C
C       0.6082   0.8285   0.5489     C
C       0.6102    0.573   0.6373     C
H       0.6125    0.536   0.9142     H
O       0.6134   0.7942   0.1353     O
H        0.616   0.5777    0.994     H
C       0.6178   0.4642   0.3915     C
H       0.6245   0.3612   0.9602     H
O       0.6253   0.0312   0.3504     O
O       0.6297   0.8731   0.6747     O
C       0.6342   0.8969   0.5904     C
N       0.6346   0.8531   0.4501     N
H       0.6357   0.5891   0.6817     H
H       0.6366   0.6109   0.5781     H
O       0.6384    0.737   0.8386     O
N       0.6388   0.3762   0.2473     N
H       0.6405   0.7703   0.5702     H
C       0.6424   0.4797   0.6355     C
N       0.6447   0.3647   0.0978     N
O        0.662    0.972    0.543     O
C       0.6685   0.6601   0.8673     C
C       0.6822   0.3626   0.1654     C
C         0.69   0.7753   0.1641     C
O       0.6911   0.4401   0.4214     O
O       0.7081   0.7017   0.2142     O
O       0.7185   0.4603   0.5824     O
C       0.7201   0.8289   0.4026     C
H       0.7239   0.9028   0.1518     H
U      0.73176  0.07883  0.41549     U
N       0.7326   0.8443   0.3114     N
O       0.7556   0.6299   0.8465     O
C       0.7595   0.8486   0.1365     C
O       0.7622   0.1782   0.2624     O
N        0.781   0.3447   0.1487     N
H       0.7833   0.8617   0.0708     H
N        0.787   0.7914   0.4482     N
H       0.7951    0.259   0.0694     H
H       0.8027   0.3667   0.2617     H
C       0.8074   0.2294   0.2855     C
U      0.81348  0.52101  0.43292     U
O       0.8144   0.4591   0.9745     O
C       0.8219   0.8206   0.2675     C
C       0.8265   0.3226   0.2254     C
C       0.8291   0.3081     0.07     C
O        0.832   0.2073   0.3593     O
C       0.8334   0.3796   0.9818     C
N       0.8385    0.829   0.1762     N
U       0.8419  0.49701  0.80762     U
O       0.8569   0.5961   0.6659     O
O        0.862     0.35   0.9088     O
C       0.8699   0.7703   0.3996     C
H       0.8751   0.7492   0.5636     H
O       0.8793   0.5595   0.5363     O
C       0.8822   0.6146   0.5822     C
H       0.8936   0.2844   0.0749     H
O       0.8943   0.3883   0.7192     O
H       0.8951   0.3261   0.2022     H
N       0.8954   0.7885   0.3052     N
C       0.9211   0.7034   0.5409     C
H       0.9275   0.3254   0.5707     H
H       0.9293   0.7884   0.0733     H
C       0.9294   0.8023   0.1301     C
N       0.9424   0.7266   0.4402     N
H       0.9431   0.2487   0.6548     H
O        0.947     0.14    0.929     O
H       0.9476   0.1938   0.9238     H
O       0.9555   0.5895   0.3484     O
H       0.9602    0.752   0.1674     H
C       0.9703   0.3011   0.6111     C
C       0.9726   0.3721   0.6634     C
C        0.973     0.89    0.115     C
H       0.9793   0.7034     0.56     H
O       0.9839   0.0467   0.8859     O
