data_I
_chemical_name_common  '/home/zhangsd/repos/MofS-CGCNN/ML/data/TSD/clean_cifs/QUTVIM_clean'
_cell_length_a 15.38050
_cell_length_b  8.43350
_cell_length_c 13.89690
_cell_angle_alpha 90.00000
_cell_angle_beta  107.58300
_cell_angle_gamma 90.00000
_space_group_name_H-M_alt      'P 1'


loop_
_space_group_symop_operation_xyz
  'x, y, z' 

loop_
_atom_site_label
_atom_site_fract_x
_atom_site_fract_y
_atom_site_fract_z
_atom_site_type_symbol
K          0.0  0.28005     0.25     K
K          0.0  0.71995     0.75     K
N      0.11089  0.24558   0.1212     N
N      0.11089  0.75442   0.6212     N
N      0.11384  0.45494  0.83794     N
N      0.11384  0.54506  0.33794     N
N      0.14609  0.04778  0.39134     N
N      0.14609  0.95222  0.89134     N
C      0.16365  0.24825  0.07769     C
C      0.16365  0.75175  0.57769     C
C      0.16491  0.37984  0.89849     C
C      0.16491  0.62016  0.39849     C
C      0.18696  0.06122  0.93054     C
C      0.18696  0.93878  0.43054     C
Fe        0.25     0.25      0.0    Fe
Fe        0.25     0.75      0.5    Fe
C      0.31304  0.43878  0.06946     C
C      0.31304  0.56122  0.56946     C
C      0.33509  0.12016  0.10151     C
C      0.33509  0.87984  0.60151     C
C      0.33635  0.25175  0.92231     C
C      0.33635  0.74825  0.42231     C
N      0.35391  0.45222  0.60866     N
N      0.35391  0.54778  0.10866     N
N      0.38616  0.04506  0.16206     N
N      0.38616  0.95494  0.66206     N
N      0.38911  0.25442   0.8788     N
N      0.38911  0.74558   0.3788     N
K          0.5  0.21995     0.75     K
K          0.5  0.78005     0.25     K
N      0.61089  0.25442   0.6212     N
N      0.61089  0.74558   0.1212     N
N      0.61384  0.04506  0.33794     N
N      0.61384  0.95494  0.83794     N
N      0.64609  0.45222  0.89134     N
N      0.64609  0.54778  0.39134     N
C      0.66365  0.25175  0.57769     C
C      0.66365  0.74825  0.07769     C
C      0.66491  0.12016  0.39849     C
C      0.66491  0.87984  0.89849     C
C      0.68696  0.43878  0.43054     C
C      0.68696  0.56122  0.93054     C
Fe        0.75     0.25      0.5    Fe
Fe        0.75     0.75      0.0    Fe
C      0.81304  0.06122  0.56946     C
C      0.81304  0.93878  0.06946     C
C      0.83509  0.37984  0.60151     C
C      0.83509  0.62016  0.10151     C
C      0.83635  0.24825  0.42231     C
C      0.83635  0.75175  0.92231     C
N      0.85391  0.04778  0.10866     N
N      0.85391  0.95222  0.60866     N
N      0.88616  0.45494  0.66206     N
N      0.88616  0.54506  0.16206     N
N      0.88911  0.24558   0.3788     N
N      0.88911  0.75442   0.8788     N
