data_I
_chemical_name_common  '/home/zhangsd/repos/MofS-CGCNN/ML/data/TSD/clean_cifs/QUVFAP_clean'
_cell_length_a 11.36560
_cell_length_b 14.84490
_cell_length_c 16.30710
_cell_angle_alpha 90.00000
_cell_angle_beta  90.00000
_cell_angle_gamma 90.00000
_space_group_name_H-M_alt      'P 1'


loop_
_space_group_symop_operation_xyz
  'x, y, z' 

loop_
_atom_site_label
_atom_site_fract_x
_atom_site_fract_y
_atom_site_fract_z
_atom_site_type_symbol
H       0.0006   0.0801   0.6603     H
C       0.0019   0.7599   0.4575     C
H       0.0035   0.3802   0.6775     H
C       0.0062   0.7038   0.9934     C
C       0.0139   0.9712   0.7343     C
H       0.0251   0.9901   0.0326     H
O       0.0254   0.2366   0.9006     O
C       0.0256    0.555   0.7907     C
C       0.0287   0.4366    0.695     C
O       0.0308   0.8496   0.0487     O
C       0.0393   0.2993   0.4857     C
O       0.0447   0.0431   0.0294     O
C       0.0496   0.7371   0.5439     C
O       0.0646   0.1519   0.5441     O
O       0.0776   0.7647   0.3997     O
H       0.0906   0.9373   0.6249     H
H       0.0929   0.8579   0.6884     H
H       0.1019   0.2522   0.2972     H
C       0.1036   0.9224   0.6821     C
N       0.1043   0.6002   0.7419     N
O       0.1063   0.2737     0.05     O
C       0.1095   0.4843   0.6482     C
O       0.1098   0.6841   0.0132     O
O       0.1099     0.21   0.3291     O
H       0.1101   0.0945   0.1768     H
H       0.1301   0.6521   0.7569     H
C       0.1407   0.5648    0.672     C
H       0.1408   0.4593   0.6007     H
O       0.1411   0.3166   0.5068     O
O       0.1549   0.7229   0.5481     O
H       0.1707    0.041   0.3039     H
O       0.1783   0.7618   0.7831     O
P       0.1795   0.0517  0.04672     P
C       0.1869   0.0996   0.1513     C
H       0.1904   0.5985   0.6386     H
H       0.1958   0.9649   0.8256     H
H       0.2061   0.1631   0.1475     H
O        0.221   0.1491   0.8225     O
Er     0.22355  0.25482  0.93133    Er
N       0.2243   0.9459   0.7044     N
O        0.227   0.6963   0.1654     O
O       0.2295   0.8293   0.9205     O
O       0.2311   0.1159   0.9869     O
H       0.2319    0.006   0.6948     H
Er     0.23406  0.80492   0.0549    Er
O       0.2366   0.9607   0.0498     O
C       0.2378   0.1773   0.7512     C
O       0.2382   0.1306   0.6862     O
P       0.2423   0.1821  0.33281     P
C       0.2452   0.7226   0.2376     C
C       0.2469   0.0682   0.2936     C
O       0.2495   0.3267   0.8012     O
O       0.2505   0.6733   0.3012     O
C       0.2531   0.9318   0.7936     C
C       0.2548   0.2774   0.7376     C
P       0.2577   0.8179  0.83281     P
O       0.2618   0.8694   0.1862     O
C       0.2622   0.8227   0.2512     C
O       0.2634   0.0393   0.5498     O
Er     0.26594  0.19508   0.5549    Er
H       0.2681    0.994   0.1948     H
O       0.2689   0.8841   0.4869     O
O       0.2705   0.1707   0.4205     O
O        0.273   0.3037   0.6654     O
N       0.2757   0.0541   0.2044     N
Er     0.27645  0.74518  0.43133    Er
O        0.279   0.8509   0.3225     O
H       0.2939   0.8369   0.6475     H
H       0.3042   0.0351   0.3256     H
H       0.3096   0.4015   0.1386     H
C       0.3131   0.9004   0.6513     C
P       0.3205   0.9483  0.54672     P
O       0.3217   0.2382   0.2831     O
H       0.3293    0.959   0.8039     H
O       0.3451   0.2771   0.0481     O
O       0.3589   0.6834   0.0068     O
H       0.3592   0.5407   0.1007     H
C       0.3593   0.4352    0.172     C
H       0.3699   0.3479   0.2569     H
H       0.3899   0.9055   0.6768     H
O       0.3901     0.79   0.8291     O
O       0.3902   0.3159   0.5132     O
C       0.3905   0.5157   0.1482     C
O       0.3937   0.7263     0.55     O
N       0.3957   0.3998   0.2419     N
C       0.3964   0.0776   0.1821     C
H       0.3981   0.7478   0.7972     H
H       0.4071   0.1421   0.1884     H
H       0.4094   0.0627   0.1249     H
O       0.4224   0.2353   0.8997     O
O       0.4354   0.8481   0.0441     O
C       0.4504   0.2629   0.0439     C
O       0.4553   0.9569   0.5294     O
C       0.4607   0.7007   0.9857     C
O       0.4692   0.1504   0.5487     O
C       0.4713   0.5634    0.195     C
C       0.4744    0.445   0.2907     C
O       0.4746   0.7634   0.4006     O
H       0.4749   0.0099   0.5326     H
C       0.4861   0.0288   0.2343     C
C       0.4938   0.2962   0.4934     C
H       0.4965   0.6198   0.1775     H
C       0.4981   0.2401   0.9575     C
H       0.4994   0.9199   0.1603     H
H       0.5006   0.4199   0.3397     H
C       0.5019   0.7401   0.5425     C
H       0.5035   0.1198   0.3225     H
C       0.5062   0.7962   0.0066     C
C       0.5139   0.5288   0.2657     C
H       0.5251   0.5099   0.9674     H
O       0.5254   0.2634   0.0994     O
C       0.5256    0.945   0.2093     C
C       0.5287   0.0634    0.305     C
O       0.5308   0.6504   0.9513     O
C       0.5393   0.2007   0.5143     C
O       0.5447   0.4569   0.9706     O
C       0.5496   0.7629   0.4561     C
O       0.5646   0.3481   0.4559     O
O       0.5776   0.7353   0.6003     O
H       0.5906   0.5627   0.3751     H
H       0.5929   0.6421   0.3116     H
H       0.6019   0.2478   0.7028     H
C       0.6036   0.5776   0.3179     C
N       0.6043   0.8998   0.2581     N
O       0.6063   0.2263     0.95     O
C       0.6095   0.0157   0.3518     C
O       0.6098   0.8159   0.9868     O
O       0.6099     0.29   0.6709     O
H       0.6101   0.4055   0.8232     H
H       0.6301   0.8479   0.2431     H
C       0.6407   0.9352    0.328     C
H       0.6408   0.0407   0.3993     H
O       0.6411   0.1834   0.4932     O
O       0.6549   0.7771   0.4519     O
H       0.6707    0.459   0.6961     H
O       0.6783   0.7382   0.2169     O
P       0.6795   0.4483  0.95328     P
C       0.6869   0.4004   0.8487     C
H       0.6904   0.9015   0.3614     H
H       0.6958   0.5351   0.1744     H
H       0.7061   0.3369   0.8525     H
O        0.721   0.3509   0.1775     O
Er     0.72355  0.24518  0.06867    Er
N       0.7243   0.5541   0.2956     N
O        0.727   0.8037   0.8346     O
O       0.7295   0.6707   0.0795     O
O       0.7311   0.3841   0.0131     O
H       0.7319    0.494   0.3052     H
Er     0.73406  0.69508   0.9451    Er
O       0.7366   0.5393   0.9502     O
C       0.7378   0.3227   0.2488     C
O       0.7382   0.3694   0.3138     O
P       0.7423   0.3179  0.66719     P
C       0.7452   0.7774   0.7624     C
C       0.7469   0.4318   0.7064     C
O       0.7495   0.1733   0.1988     O
O       0.7505   0.8267   0.6988     O
C       0.7531   0.5682   0.2064     C
C       0.7548   0.2226   0.2624     C
P       0.7577   0.6821  0.16719     P
O       0.7618   0.6306   0.8138     O
C       0.7622   0.6773   0.7488     C
O       0.7634   0.4607   0.4502     O
Er     0.76594  0.30492   0.4451    Er
H       0.7681    0.506   0.8052     H
O       0.7689   0.6159   0.5131     O
O       0.7705   0.3293   0.5795     O
O        0.773   0.1963   0.3346     O
N       0.7757   0.4459   0.7956     N
Er     0.77645  0.75482  0.56867    Er
O        0.779   0.6491   0.6775     O
H       0.7939   0.6631   0.3525     H
H       0.8042   0.4649   0.6744     H
H       0.8096   0.0985   0.8614     H
C       0.8131   0.5996   0.3487     C
P       0.8205   0.5517  0.45328     P
O       0.8217   0.2618   0.7169     O
H       0.8293    0.541   0.1961     H
O       0.8451   0.2229   0.9519     O
O       0.8589   0.8166   0.9932     O
H       0.8592   0.9593   0.8993     H
C       0.8593   0.0648    0.828     C
H       0.8699   0.1521   0.7431     H
H       0.8899   0.5945   0.3232     H
O       0.8901     0.71   0.1709     O
O       0.8902   0.1841   0.4868     O
C       0.8905   0.9843   0.8518     C
O       0.8937   0.7737     0.45     O
N       0.8957   0.1002   0.7581     N
C       0.8964   0.4224   0.8179     C
H       0.8981   0.7522   0.2028     H
H       0.9071   0.3579   0.8116     H
H       0.9094   0.4373   0.8751     H
O       0.9224   0.2647   0.1003     O
O       0.9354   0.6519   0.9559     O
C       0.9504   0.2371   0.9561     C
O       0.9553   0.5431   0.4706     O
C       0.9607   0.7993   0.0143     C
O       0.9692   0.3496   0.4513     O
C       0.9713   0.9366    0.805     C
C       0.9744    0.055   0.7093     C
O       0.9746   0.7366   0.5994     O
H       0.9749   0.4901   0.4674     H
C       0.9861   0.4712   0.7657     C
C       0.9938   0.2038   0.5066     C
H       0.9965   0.8802   0.8225     H
C       0.9981   0.2599   0.0425     C
H       0.9994   0.5801   0.8397     H
