data_I
_chemical_name_common  '/home/zhangsd/repos/MofS-CGCNN/ML/data/TSD/clean_cifs/RALZEL_clean'
_cell_length_a 15.39040
_cell_length_b 15.39040
_cell_length_c  9.85860
_cell_angle_alpha 90.00000
_cell_angle_beta  90.00000
_cell_angle_gamma 90.00000
_space_group_name_H-M_alt      'P 1'


loop_
_space_group_symop_operation_xyz
  'x, y, z' 

loop_
_atom_site_label
_atom_site_fract_x
_atom_site_fract_y
_atom_site_fract_z
_atom_site_type_symbol
V          0.0      0.0    0.088     V
O          0.0      0.0     0.25     O
V          0.0      0.0    0.412     V
V          0.0      0.0    0.588     V
O          0.0      0.0     0.75     O
V          0.0      0.0    0.912     V
H       0.0047   0.3339      0.5     H
H       0.0047   0.6661      0.0     H
C       0.0201   0.2774      0.0     C
C       0.0201   0.7226      0.5     C
C       0.0274   0.1963      0.5     C
C       0.0274   0.8037      0.0     C
N         0.03   0.1304      0.0     N
N         0.03   0.8696      0.5     N
C       0.1055   0.2591      0.0     C
C       0.1055   0.7409      0.5     C
C       0.1133   0.1635      0.0     C
C       0.1133   0.8365      0.5     C
C       0.1171    0.191      0.5     C
C       0.1171    0.809      0.0     C
N       0.1304     0.03      0.5     N
N       0.1304     0.97      0.0     N
H       0.1519   0.2999      0.0     H
H       0.1519   0.7001      0.5     H
C       0.1635   0.1133      0.5     C
C       0.1635   0.8867      0.0     C
C       0.1697   0.2729      0.5     C
C       0.1697   0.7271      0.0     C
H       0.1777   0.2873   0.2951     H
H       0.1777   0.2873   0.7049     H
H       0.1777   0.7127   0.2049     H
H       0.1777   0.7127   0.7951     H
C        0.191   0.1171      0.0     C
C        0.191   0.8829      0.5     C
C       0.1948   0.3121   0.3792     C
C       0.1948   0.3121   0.6208     C
C       0.1948   0.6879   0.1208     C
C       0.1948   0.6879   0.8792     C
C       0.1963   0.0274      0.0     C
C       0.1963   0.9726      0.5     C
C       0.2444   0.3868   0.3803     C
C       0.2444   0.3868   0.6197     C
C       0.2444   0.6132   0.1197     C
C       0.2444   0.6132   0.8803     C
O        0.253   0.4104      0.0     O
O        0.253   0.5896      0.5     O
C       0.2591   0.1055      0.5     C
C       0.2591   0.8945      0.0     C
H        0.262   0.4123   0.2969     H
H        0.262   0.4123   0.7031     H
H        0.262   0.5877   0.2031     H
H        0.262   0.5877   0.7969     H
C       0.2684   0.4245      0.5     C
C       0.2684   0.5755      0.0     C
C       0.2729   0.1697      0.0     C
C       0.2729   0.8303      0.5     C
C       0.2774   0.0201      0.5     C
C       0.2774   0.9799      0.0     C
H       0.2873   0.1777   0.2049     H
H       0.2873   0.1777   0.7951     H
H       0.2873   0.8223   0.2951     H
H       0.2873   0.8223   0.7049     H
H       0.2999   0.1519      0.5     H
H       0.2999   0.8481      0.0     H
C       0.3121   0.1948   0.1208     C
C       0.3121   0.1948   0.8792     C
C       0.3121   0.8052   0.3792     C
C       0.3121   0.8052   0.6208     C
S      0.32117  0.47399      0.0     S
S      0.32117  0.52601      0.5     S
H       0.3339   0.0047      0.0     H
H       0.3339   0.9953      0.5     H
O       0.3736   0.4694   0.1223     O
O       0.3736   0.4694   0.8777     O
O       0.3736   0.5306   0.3777     O
O       0.3736   0.5306   0.6223     O
C       0.3868   0.2444   0.1197     C
C       0.3868   0.2444   0.8803     C
C       0.3868   0.7556   0.3803     C
C       0.3868   0.7556   0.6197     C
O       0.4104    0.253      0.5     O
O       0.4104    0.747      0.0     O
H       0.4123    0.262   0.2031     H
H       0.4123    0.262   0.7969     H
H       0.4123    0.738   0.2969     H
H       0.4123    0.738   0.7031     H
C       0.4245   0.2684      0.0     C
C       0.4245   0.7316      0.5     C
O       0.4694   0.3736   0.3777     O
O       0.4694   0.3736   0.6223     O
O       0.4694   0.6264   0.1223     O
O       0.4694   0.6264   0.8777     O
S      0.47399  0.32117      0.5     S
S      0.47399  0.67883      0.0     S
Sm         0.5      0.5     0.25    Sm
Sm         0.5      0.5     0.75    Sm
S      0.52601  0.32117      0.0     S
S      0.52601  0.67883      0.5     S
O       0.5306   0.3736   0.1223     O
O       0.5306   0.3736   0.8777     O
O       0.5306   0.6264   0.3777     O
O       0.5306   0.6264   0.6223     O
C       0.5755   0.2684      0.5     C
C       0.5755   0.7316      0.0     C
H       0.5877    0.262   0.2969     H
H       0.5877    0.262   0.7031     H
H       0.5877    0.738   0.2031     H
H       0.5877    0.738   0.7969     H
O       0.5896    0.253      0.0     O
O       0.5896    0.747      0.5     O
C       0.6132   0.2444   0.3803     C
C       0.6132   0.2444   0.6197     C
C       0.6132   0.7556   0.1197     C
C       0.6132   0.7556   0.8803     C
O       0.6264   0.4694   0.3777     O
O       0.6264   0.4694   0.6223     O
O       0.6264   0.5306   0.1223     O
O       0.6264   0.5306   0.8777     O
H       0.6661   0.0047      0.5     H
H       0.6661   0.9953      0.0     H
S      0.67883  0.47399      0.5     S
S      0.67883  0.52601      0.0     S
C       0.6879   0.1948   0.3792     C
C       0.6879   0.1948   0.6208     C
C       0.6879   0.8052   0.1208     C
C       0.6879   0.8052   0.8792     C
H       0.7001   0.1519      0.0     H
H       0.7001   0.8481      0.5     H
H       0.7127   0.1777   0.2951     H
H       0.7127   0.1777   0.7049     H
H       0.7127   0.8223   0.2049     H
H       0.7127   0.8223   0.7951     H
C       0.7226   0.0201      0.0     C
C       0.7226   0.9799      0.5     C
C       0.7271   0.1697      0.5     C
C       0.7271   0.8303      0.0     C
C       0.7316   0.4245      0.0     C
C       0.7316   0.5755      0.5     C
H        0.738   0.4123   0.2031     H
H        0.738   0.4123   0.7969     H
H        0.738   0.5877   0.2969     H
H        0.738   0.5877   0.7031     H
C       0.7409   0.1055      0.0     C
C       0.7409   0.8945      0.5     C
O        0.747   0.4104      0.5     O
O        0.747   0.5896      0.0     O
C       0.7556   0.3868   0.1197     C
C       0.7556   0.3868   0.8803     C
C       0.7556   0.6132   0.3803     C
C       0.7556   0.6132   0.6197     C
C       0.8037   0.0274      0.5     C
C       0.8037   0.9726      0.0     C
C       0.8052   0.3121   0.1208     C
C       0.8052   0.3121   0.8792     C
C       0.8052   0.6879   0.3792     C
C       0.8052   0.6879   0.6208     C
C        0.809   0.1171      0.5     C
C        0.809   0.8829      0.0     C
H       0.8223   0.2873   0.2049     H
H       0.8223   0.2873   0.7951     H
H       0.8223   0.7127   0.2951     H
H       0.8223   0.7127   0.7049     H
C       0.8303   0.2729      0.0     C
C       0.8303   0.7271      0.5     C
C       0.8365   0.1133      0.0     C
C       0.8365   0.8867      0.5     C
H       0.8481   0.2999      0.5     H
H       0.8481   0.7001      0.0     H
N       0.8696     0.03      0.0     N
N       0.8696     0.97      0.5     N
C       0.8829    0.191      0.0     C
C       0.8829    0.809      0.5     C
C       0.8867   0.1635      0.5     C
C       0.8867   0.8365      0.0     C
C       0.8945   0.2591      0.5     C
C       0.8945   0.7409      0.0     C
N         0.97   0.1304      0.5     N
N         0.97   0.8696      0.0     N
C       0.9726   0.1963      0.0     C
C       0.9726   0.8037      0.5     C
C       0.9799   0.2774      0.5     C
C       0.9799   0.7226      0.0     C
H       0.9953   0.3339      0.0     H
H       0.9953   0.6661      0.5     H
