data_I
_chemical_name_common  '/home/zhangsd/repos/MofS-CGCNN/ML/data/TSD/clean_cifs/RAVDEZ_clean'
_cell_length_a  9.23900
_cell_length_b 13.52780
_cell_length_c 14.63790
_cell_angle_alpha 90.00000
_cell_angle_beta  90.35400
_cell_angle_gamma 90.00000
_space_group_name_H-M_alt      'P 1'


loop_
_space_group_symop_operation_xyz
  'x, y, z' 

loop_
_atom_site_label
_atom_site_fract_x
_atom_site_fract_y
_atom_site_fract_z
_atom_site_type_symbol
C       0.0033   0.8891   0.3278     C
C       0.0083   0.6054   0.1639     C
C       0.0235   0.1653   0.9862     C
C       0.0248   0.3346   0.5158     C
O       0.0256    0.992   0.1959     O
C       0.0271   0.7953   0.3646     C
O       0.0294   0.4976   0.2927     O
C        0.036   0.6994   0.1285     C
C       0.0436   0.2678   0.9478     C
C       0.0443   0.2338   0.5559     C
O        0.064   0.6077   0.4488     O
C       0.0829   0.9252   0.2445     C
O       0.0835   0.8829   0.0379     O
C       0.0872   0.5675   0.2474     C
C       0.0891   0.0456   0.6274     C
C       0.0911   0.4568   0.8789     C
H       0.0922   0.7511   0.3356     H
O       0.0994   0.3571   0.4461     O
H       0.1076   0.9824   0.6533     H
H       0.1077   0.7406   0.1556     H
H       0.1091   0.5204   0.8539     H
O       0.1191   0.1348   0.0402     O
C       0.1342   0.1665   0.5125     C
C        0.144   0.3321    0.989     C
C       0.1545   0.0714   0.5457     C
C       0.1645   0.4277   0.9573     C
H        0.174    0.956    0.455     H
H       0.1831   0.1861   0.4586     H
H       0.1992   0.3096   0.0399     H
O       0.2051   0.8873   0.2263     O
O       0.2069   0.6044   0.2694     O
H         0.21    0.533    0.055     H
C       0.2382   0.9968   0.4913     C
Eu     0.24883   0.4969  0.40735    Eu
Eu     0.25117   0.9969  0.09265    Eu
C       0.2618   0.4968   0.0087     C
H         0.29    0.033    0.445     H
O       0.2931   0.1044   0.2306     O
O       0.2949   0.3873   0.2737     O
H       0.3008   0.8096   0.4601     H
H       0.3169   0.6861   0.0414     H
H        0.326    0.456    0.045     H
C       0.3355   0.9277   0.5427     C
C       0.3455   0.5714   0.9543     C
C        0.356   0.8321    0.511     C
C       0.3658   0.6665   0.9875     C
O       0.3809   0.6348   0.4598     O
H       0.3909   0.0204   0.6461     H
H       0.3923   0.2406   0.3444     H
H       0.3924   0.4824   0.8467     H
O       0.4006   0.8571   0.0539     O
H       0.4078   0.2511   0.1644     H
C       0.4089   0.9568   0.6211     C
C       0.4109   0.5456   0.8726     C
C       0.4128   0.0675   0.2526     C
O       0.4165   0.3829   0.4621     O
C       0.4171   0.4252   0.2555     C
O        0.436   0.1077   0.0512     O
C       0.4557   0.7338   0.9441     C
C       0.4564   0.7678   0.5522     C
C        0.464   0.1994   0.3715     C
O       0.4706   0.9976   0.2073     O
C       0.4729   0.2953   0.1354     C
O       0.4744    0.492   0.3041     O
C       0.4752   0.8346   0.9842     C
C       0.4765   0.6653   0.5138     C
C       0.4917   0.1054   0.3361     C
C       0.4967   0.3891   0.1722     C
C       0.5033   0.6109   0.8278     C
C       0.5083   0.8946   0.6639     C
C       0.5235   0.3347   0.4862     C
C       0.5248   0.1654   0.0158     C
O       0.5256    0.508   0.6959     O
C       0.5271   0.7047   0.8646     C
O       0.5294   0.0024   0.7927     O
C        0.536   0.8006   0.6285     C
C       0.5436   0.2322   0.4478     C
C       0.5443   0.2662   0.0559     C
O        0.564   0.8923   0.9488     O
C       0.5829   0.5748   0.7445     C
O       0.5835   0.6171   0.5379     O
C       0.5872   0.9325   0.7474     C
C       0.5891   0.4544   0.1274     C
C       0.5911   0.0432   0.3789     C
H       0.5922   0.7489   0.8356     H
O       0.5994   0.1429   0.9461     O
H       0.6076   0.5176   0.1533     H
H       0.6077   0.7594   0.6556     H
H       0.6091   0.9796   0.3539     H
O       0.6191   0.3652   0.5402     O
C       0.6342   0.3335   0.0125     C
C        0.644   0.1679    0.489     C
C       0.6545   0.4286   0.0457     C
C       0.6645   0.0723   0.4573     C
H        0.674    0.544    0.955     H
H       0.6831   0.3139   0.9586     H
H       0.6992   0.1904   0.5399     H
O       0.7051   0.6127   0.7263     O
O       0.7069   0.8956   0.7694     O
H         0.71    0.967    0.555     H
C       0.7382   0.5032   0.9913     C
Eu     0.74883   0.0031  0.90735    Eu
Eu     0.75117   0.5031  0.59265    Eu
C       0.7618   0.0032   0.5087     C
H         0.79    0.467    0.945     H
O       0.7931   0.3956   0.7306     O
O       0.7949   0.1127   0.7737     O
H       0.8008   0.6904   0.9601     H
H       0.8169   0.8139   0.5414     H
H        0.826    0.044    0.545     H
C       0.8355   0.5723   0.0427     C
C       0.8455   0.9286   0.4543     C
C        0.856   0.6679    0.011     C
C       0.8658   0.8335   0.4875     C
O       0.8809   0.8652   0.9598     O
H       0.8909   0.4796   0.1461     H
H       0.8923   0.2594   0.8444     H
H       0.8924   0.0176   0.3467     H
O       0.9006   0.6429   0.5539     O
H       0.9078   0.2489   0.6644     H
C       0.9089   0.5432   0.1211     C
C       0.9109   0.9544   0.3726     C
C       0.9128   0.4325   0.7526     C
O       0.9165   0.1171   0.9621     O
C       0.9171   0.0748   0.7555     C
O        0.936   0.3923   0.5512     O
C       0.9557   0.7662   0.4441     C
C       0.9564   0.7322   0.0522     C
C        0.964   0.3006   0.8715     C
O       0.9706   0.5024   0.7073     O
C       0.9729   0.2047   0.6354     C
O       0.9744    0.008   0.8041     O
C       0.9752   0.6654   0.4842     C
C       0.9765   0.8347   0.0138     C
C       0.9917   0.3946   0.8361     C
C       0.9967   0.1109   0.6722     C
