data_I
_chemical_name_common  '/home/zhangsd/repos/MofS-CGCNN/ML/data/TSD/clean_cifs/RAVVIU_clean'
_cell_length_a  9.81190
_cell_length_b 11.24700
_cell_length_c 14.41390
_cell_angle_alpha 91.15530
_cell_angle_beta  90.00000
_cell_angle_gamma 90.00000
_space_group_name_H-M_alt      'P 1'


loop_
_space_group_symop_operation_xyz
  'x, y, z' 

loop_
_atom_site_label
_atom_site_fract_x
_atom_site_fract_y
_atom_site_fract_z
_atom_site_type_symbol
Co         0.0      0.0      0.0    Co
Co         0.0      0.5     -0.0    Co
O      0.00394  0.62861  0.21981     O
O       0.0053   0.5432   0.8594     O
C       0.0121   0.5162   0.2124     C
O       0.0277  0.68444  0.02344     O
H        0.035    0.477    0.266     H
O       0.0607   0.1831   0.6319     O
Co     0.07973  0.24489  0.86696    Co
O       0.0837  0.85011  0.19531     O
O       0.1042  0.02397  0.12417     O
C       0.1079    0.743   0.9699     C
Co     0.10962  0.74022  0.31114    Co
O       0.1164   0.8514   0.9667     O
H        0.117    0.945    0.462     H
O       0.1209  0.61329  0.41009     O
C       0.1289   0.9551   0.1877     C
O        0.155  0.10292  0.94012     O
H        0.161    0.695    0.929     H
C       0.1731   0.1684   0.6699     C
H        0.193    0.988    0.238     H
O      0.20098  0.19071  0.75501     O
H        0.205    0.511    0.493     H
O       0.2093  0.48211  0.00291     O
C       0.2107   0.9239   0.4535     C
C       0.2212   0.5722   0.4511     C
O       0.2422   0.8471   0.3916     O
H        0.244    0.135    0.632     H
H        0.256    0.635    0.132     H
O       0.2578   0.3471   0.8916     O
C       0.2788   0.0722   0.9511     C
C       0.2893   0.4239   0.9535     C
O       0.2907  0.98211  0.50291     O
H        0.295    0.011    0.993     H
O      0.29902  0.69071  0.25501     O
H        0.307    0.488    0.738     H
C       0.3269   0.6684   0.1699     C
H        0.339    0.195    0.429     H
O        0.345  0.60292  0.44012     O
C       0.3711   0.4551   0.6877     C
O       0.3791  0.11329  0.91009     O
H        0.383    0.445    0.962     H
O       0.3836   0.3514   0.4667     O
Co     0.39038  0.24022  0.81114    Co
C       0.3921    0.243   0.4699     C
O       0.3958  0.52397  0.62417     O
O       0.4163  0.35011  0.69531     O
Co     0.42027  0.74489  0.36696    Co
O       0.4393   0.6831   0.1319     O
H        0.465    0.977    0.766     H
O       0.4723  0.18444  0.52344     O
C       0.4879   0.0162   0.7124     C
O       0.4947   0.0432   0.3594     O
O      0.49606  0.12861  0.71981     O
Co         0.5      0.0      0.5    Co
Co         0.5      0.5      0.5    Co
O      0.50394  0.87139  0.28019     O
O       0.5053   0.9568   0.6406     O
C       0.5121   0.9838   0.2876     C
O       0.5277  0.81556  0.47656     O
H        0.535    0.023    0.234     H
O       0.5607   0.3169   0.8681     O
Co     0.57973  0.25511  0.63304    Co
O       0.5837  0.64989  0.30469     O
O       0.6042  0.47603  0.37583     O
C       0.6079    0.757   0.5301     C
Co     0.60962  0.75978  0.18886    Co
O       0.6164   0.6486   0.5333     O
H        0.617    0.555    0.038     H
O       0.6209  0.88671  0.08991     O
C       0.6289   0.5449   0.3123     C
O        0.655  0.39708  0.55988     O
H        0.661    0.805    0.571     H
C       0.6731   0.3316   0.8301     C
H        0.693    0.512    0.262     H
O      0.70098  0.30929  0.74499     O
H        0.705    0.989    0.007     H
O       0.7093  0.01789  0.49709     O
C       0.7107   0.5761   0.0465     C
C       0.7212   0.9278   0.0489     C
O       0.7422   0.6529   0.1084     O
H        0.744    0.365    0.868     H
H        0.756    0.865    0.368     H
O       0.7578   0.1529   0.6084     O
C       0.7788   0.4278   0.5489     C
C       0.7893   0.0761   0.5465     C
O       0.7907  0.51789  0.99709     O
H        0.795    0.489    0.507     H
O      0.79902  0.80929  0.24499     O
H        0.807    0.012    0.762     H
C       0.8269   0.8316   0.3301     C
H        0.839    0.305    0.071     H
O        0.845  0.89708  0.05988     O
C       0.8711   0.0449   0.8123     C
O       0.8791  0.38671  0.58991     O
H        0.883    0.055    0.538     H
O       0.8836   0.1486   0.0333     O
Co     0.89038  0.25978  0.68886    Co
C       0.8921    0.257   0.0301     C
O       0.8958  0.97603  0.87583     O
O       0.9163  0.14989  0.80469     O
Co     0.92027  0.75511  0.13304    Co
O       0.9393   0.8169   0.3681     O
H        0.965    0.523    0.734     H
O       0.9723  0.31556  0.97656     O
C       0.9879   0.4838   0.7876     C
O       0.9947   0.4568   0.1406     O
O      0.99606  0.37139  0.78019     O
