data_I
_chemical_name_common  '/home/zhangsd/repos/MofS-CGCNN/ML/data/TSD/clean_cifs/RAWZIA_clean'
_cell_length_a 17.54480
_cell_length_b 13.57810
_cell_length_c  6.66420
_cell_angle_alpha 90.00000
_cell_angle_beta  113.19600
_cell_angle_gamma 90.00000
_space_group_name_H-M_alt      'P 1'


loop_
_space_group_symop_operation_xyz
  'x, y, z' 

loop_
_atom_site_label
_atom_site_fract_x
_atom_site_fract_y
_atom_site_fract_z
_atom_site_type_symbol
Al         0.0      0.0      0.0    Al
Al         0.0      0.0      0.5    Al
O          0.0  0.06207     0.25     O
O          0.0  0.93793     0.75     O
O      0.07715  0.09654  0.98952     O
O      0.07715  0.90346  0.48952     O
O      0.09032  0.08077  0.66653     O
O      0.09032  0.91923  0.16653     O
C      0.10859  0.11366    0.852     C
C      0.10859  0.88634    0.352     C
H        0.151    0.257     0.16     H
H        0.151    0.743     0.66     H
C      0.18593  0.18053  0.94031     C
C      0.18593  0.81947  0.44031     C
C      0.18991  0.25377   0.0874     C
C      0.18991  0.74623   0.5874     C
O      0.23829  0.49431  0.24822     O
O      0.23829  0.50569  0.74822     O
C      0.24377  0.17603  0.84704     C
C      0.24377  0.82397  0.34704     C
O      0.24454  0.12453  0.50716     O
O      0.24454  0.87547  0.00716     O
C      0.24959  0.40535  0.29948     C
C      0.24959  0.59465  0.79948     C
C      0.25041  0.09465  0.70052     C
C      0.25041  0.90535  0.20052     C
O      0.25546  0.37547  0.49284     O
O      0.25546  0.62453  0.99284     O
C      0.25623  0.32397  0.15296     C
C      0.25623  0.67603  0.65296     C
O      0.26171  0.00569  0.75178     O
O      0.26171  0.99431  0.25178     O
C      0.31009  0.24623   0.9126     C
C      0.31009  0.75377   0.4126     C
C      0.31407  0.31947  0.05969     C
C      0.31407  0.68053  0.55969     C
H        0.349    0.243     0.84     H
H        0.349    0.757     0.34     H
C      0.39141  0.38634    0.148     C
C      0.39141  0.61366    0.648     C
O      0.40968  0.41923  0.33347     O
O      0.40968  0.58077  0.83347     O
O      0.42285  0.40346  0.01048     O
O      0.42285  0.59654  0.51048     O
O          0.5  0.43793     0.75     O
Al         0.5      0.5      0.0    Al
Al         0.5      0.5      0.5    Al
O          0.5  0.56207     0.25     O
O      0.57715  0.40346  0.48952     O
O      0.57715  0.59654  0.98952     O
O      0.59032  0.41923  0.16653     O
O      0.59032  0.58077  0.66653     O
C      0.60859  0.38634    0.352     C
C      0.60859  0.61366    0.852     C
H        0.651    0.243     0.66     H
H        0.651    0.757     0.16     H
C      0.68593  0.31947  0.44031     C
C      0.68593  0.68053  0.94031     C
C      0.68991  0.24623   0.5874     C
C      0.68991  0.75377   0.0874     C
O      0.73829  0.00569  0.74822     O
O      0.73829  0.99431  0.24822     O
C      0.74377  0.32397  0.34704     C
C      0.74377  0.67603  0.84704     C
O      0.74454  0.37547  0.00716     O
O      0.74454  0.62453  0.50716     O
C      0.74959  0.09465  0.79948     C
C      0.74959  0.90535  0.29948     C
C      0.75041  0.40535  0.20052     C
C      0.75041  0.59465  0.70052     C
O      0.75546  0.12453  0.99284     O
O      0.75546  0.87547  0.49284     O
C      0.75623  0.17603  0.65296     C
C      0.75623  0.82397  0.15296     C
O      0.76171  0.49431  0.25178     O
O      0.76171  0.50569  0.75178     O
C      0.81009  0.25377   0.4126     C
C      0.81009  0.74623   0.9126     C
C      0.81407  0.18053  0.55969     C
C      0.81407  0.81947  0.05969     C
H        0.849    0.257     0.34     H
H        0.849    0.743     0.84     H
C      0.89141  0.11366    0.648     C
C      0.89141  0.88634    0.148     C
O      0.90968  0.08077  0.83347     O
O      0.90968  0.91923  0.33347     O
O      0.92285  0.09654  0.51048     O
O      0.92285  0.90346  0.01048     O
