data_I
_chemical_name_common  '/home/zhangsd/repos/MofS-CGCNN/ML/data/TSD/clean_cifs/RAYKIN_clean'
_cell_length_a 16.52760
_cell_length_b 16.52760
_cell_length_c 25.39590
_cell_angle_alpha 90.00000
_cell_angle_beta  90.00000
_cell_angle_gamma 120.00000
_space_group_name_H-M_alt      'P 1'


loop_
_space_group_symop_operation_xyz
  'x, y, z' 

loop_
_atom_site_label
_atom_site_fract_x
_atom_site_fract_y
_atom_site_fract_z
_atom_site_type_symbol
C       0.0115   0.3953  0.00365     C
C       0.0115   0.6162  0.66302     C
H       0.0224   0.3913  0.78547     H
H       0.0224   0.6311   0.8812     H
H       0.0277   0.4444  0.51633     H
H       0.0277   0.5833  0.15033     H
C       0.0354   0.4053  0.74993     C
C       0.0354   0.6301  0.91674     C
C       0.0363   0.3984  0.95327     C
C       0.0363   0.6379   0.7134     C
C       0.0367   0.4897  0.44402     C
C       0.0367    0.547  0.22264     C
H       0.0562   0.4149   0.0302     H
H       0.0562   0.6413  0.63647     H
C        0.061   0.4564  0.48503     C
C        0.061   0.6046  0.18163     C
C       0.0844    0.446  0.65027     C
C       0.0844   0.6384   0.0164     C
H        0.086   0.5418  0.28893     H
H        0.086   0.5442  0.37773     H
C       0.0938   0.5126  0.40573     C
C       0.0938   0.5812  0.26093     C
H       0.1005   0.4581  0.61487     H
H       0.1005   0.6424   0.0518     H
O       0.1174   0.3915  0.85653     O
O       0.1174   0.7259  0.81014     O
C       0.1255   0.4688  0.73451     C
C       0.1255   0.6567  0.93216     C
N      0.12806  0.42686   0.9412     N
N      0.12806   0.7012  0.72547     N
C       0.1363   0.4387  0.48193     C
C       0.1363   0.6976  0.18473     C
N      0.15083  0.48692  0.68522     N
N      0.15083  0.66391  0.98145     N
H       0.1525   0.4182  0.51213     H
H       0.1525   0.7343  0.15453     H
H      0.16045   0.3209  0.16667     H
H      0.16045  0.83955      0.5     H
C       0.1653   0.4216   0.8957     C
C       0.1653   0.7437  0.77097     C
H       0.1669   0.4516   0.9668     H
H       0.1669   0.7153  0.69987     H
C       0.1687   0.4938  0.40263     C
C       0.1687   0.6749  0.26403     C
H       0.1702      0.5  0.76047     H
H       0.1702   0.6702   0.9062     H
H       0.1792   0.4024   0.0878     H
H       0.1792   0.7768  0.57887     H
C       0.1843   0.4499  0.43899     C
C       0.1843   0.7344  0.22767     C
C      0.19295   0.3859  0.16667     C
C      0.19295  0.80705      0.5     C
C       0.2032   0.4345   0.1192     C
C       0.2032   0.7687  0.54747     C
H       0.2075   0.5141  0.37323     H
H       0.2075   0.6934  0.29343     H
H       0.2232   0.4024  0.24553     H
H       0.2232   0.8208  0.42113     H
C       0.2313   0.4345  0.21413     C
C       0.2313   0.7968  0.45253     C
O      0.23468   0.5387  0.02857     O
O      0.23468  0.69598   0.6381     O
C       0.2507   0.5329  0.12067     C
C       0.2507   0.7178    0.546     C
C       0.2563   0.4216  0.43763     C
C       0.2563   0.8347  0.22903     C
C       0.2601   0.5841  0.07075     C
C       0.2601    0.676  0.59592     C
C       0.2656   0.4499  0.89434     C
C       0.2656   0.8157  0.77233     C
H       0.2657   0.4182   0.8212     H
H       0.2657   0.8475  0.84547     H
O       0.2741   0.3915   0.4768     O
O       0.2741   0.8826  0.18986     O
C       0.2822   0.5329  0.21266     C
C       0.2822   0.7493    0.454     C
H       0.2847   0.4516  0.36653     H
H       0.2847   0.8331  0.30013     H
Zn     0.28704  0.57408  0.66667    Zn
Zn     0.28704  0.71295      0.0    Zn
C       0.2895    0.579  0.16667     C
C       0.2895   0.7105      0.5     C
O      0.29129  0.62157  0.59501     O
O      0.29129  0.66972  0.07166     O
N       0.2988  0.42686  0.39213     N
N       0.2988  0.87194  0.27453     N
C       0.3024   0.4387   0.8514     C
C       0.3024   0.8637  0.81527     C
O      0.30402   0.5387  0.30476     O
O      0.30402  0.76532   0.3619     O
H       0.3066   0.5141   0.9601     H
H       0.3066   0.7925  0.70657     H
H       0.3209  0.16045  0.83333     H
H        0.322    0.644  0.16667     H
H        0.322    0.678      0.5     H
C        0.324   0.5841  0.26258     C
C        0.324   0.7399  0.40408     C
C       0.3251   0.4938   0.9307     C
C       0.3251   0.8313  0.73597     C
H       0.3298      0.5  0.57287     H
H       0.3298   0.8298   0.0938     H
O      0.33028  0.62157  0.73833     O
O      0.33028  0.70871  0.92834     O
N      0.33609  0.48692  0.64812     N
N      0.33609  0.84917  0.01855     N
C       0.3433   0.4688  0.59883     C
C       0.3433   0.8745  0.06784     C
H        0.356    0.678  0.83333     H
H       0.3576   0.4581  0.71847     H
H       0.3576   0.8995   0.9482     H
H       0.3587   0.4149  0.30313     H
H       0.3587   0.9438  0.36353     H
C       0.3616    0.446  0.68307     C
C       0.3616   0.9156   0.9836     C
C       0.3621   0.3984  0.38006     C
C       0.3621   0.9637   0.2866     C
H       0.3689   0.3913  0.54787     H
H       0.3689   0.9776   0.1188     H
C       0.3699   0.4053  0.58341     C
C       0.3699   0.9646  0.08326     C
O      0.37843  0.66972  0.26167     O
O      0.37843  0.70871  0.40499     O
C       0.3838   0.3953  0.32968     C
C       0.3838   0.9885  0.33698     C
C       0.3859  0.19295  0.83333     C
H       0.3913   0.0224  0.21453     H
H       0.3913   0.3689  0.45213     H
O       0.3915   0.1174  0.14347     O
O       0.3915   0.2741   0.5232     O
C       0.3953   0.0115  0.99635     C
C       0.3953   0.3838  0.67032     C
C       0.3954   0.4564   0.8483     C
C       0.3954    0.939  0.81837     C
C       0.3984   0.0363  0.04673     C
C       0.3984   0.3621  0.61994     C
H       0.4024   0.1792   0.9122     H
H       0.4024   0.2232  0.75447     H
C       0.4053   0.0354  0.25007     C
C       0.4053   0.3699  0.41659     C
H       0.4149   0.0562   0.9698     H
H       0.4149   0.3587  0.69687     H
C       0.4159    0.676  0.73742     C
C       0.4159   0.7399  0.92925     C
H       0.4167   0.4444    0.817     H
H       0.4167   0.9723  0.84967     H
H       0.4182   0.1525  0.48787     H
H       0.4182   0.2657   0.1788     H
C       0.4188   0.5126   0.9276     C
C       0.4188   0.9062  0.73907     C
C        0.421   0.7105  0.83333     C
C       0.4216   0.1653   0.1043     C
C       0.4216   0.2563  0.56237     C
Zn     0.42591  0.71295  0.33333    Zn
N      0.42686  0.12806   0.0588     N
N      0.42686   0.2988  0.60787     N
C       0.4345   0.2032   0.8808     C
C       0.4345   0.2313  0.78587     C
C       0.4387   0.1363  0.51807     C
C       0.4387   0.3024   0.1486     C
H       0.4444   0.0277  0.48367     H
H       0.4444   0.4167    0.183     H
C        0.446   0.0844  0.34973     C
C        0.446   0.3616  0.31693     C
C       0.4499   0.1843  0.56101     C
C       0.4499   0.2656  0.10566     C
H       0.4516   0.1669   0.0332     H
H       0.4516   0.2847  0.63347     H
C        0.453   0.4897  0.88931     C
C        0.453   0.9633  0.77736     C
H       0.4558   0.5418   0.0444     H
H       0.4558    0.914  0.62227     H
C       0.4564    0.061  0.51497     C
C       0.4564   0.3954   0.1517     C
H       0.4581   0.1005  0.38513     H
H       0.4581   0.3576  0.28153     H
H       0.4582   0.5442   0.9556     H
H       0.4582    0.914  0.71107     H
O       0.4613  0.69598  0.69524     O
O       0.4613  0.76532  0.97143     O
C       0.4671   0.7178  0.78734     C
C       0.4671   0.7493  0.87933     C
C       0.4688   0.1255  0.26549     C
C       0.4688   0.3433  0.40117     C
H       0.4859   0.6934   0.0399     H
H       0.4859   0.7925  0.62677     H
N      0.48692  0.15083  0.31478     N
N      0.48692  0.33609  0.35188     N
C       0.4874   0.5812   0.0724     C
C       0.4874   0.9062  0.59427     C
C       0.4897   0.0367  0.55598     C
C       0.4897    0.453  0.11069     C
C       0.4938   0.1687  0.59737     C
C       0.4938   0.3251   0.0693     C
H          0.5   0.1702  0.23953     H
H          0.5   0.3298  0.42713     H
H          0.5   0.6702  0.42713     H
H          0.5   0.8298  0.23953     H
C       0.5062   0.6749   0.0693     C
C       0.5062   0.8313  0.59737     C
C       0.5103    0.547  0.11069     C
C       0.5103   0.9633  0.55598     C
C       0.5126   0.0938  0.59427     C
C       0.5126   0.4188   0.0724     C
N      0.51308  0.66391  0.35188     N
N      0.51308  0.84917  0.31478     N
H       0.5141   0.2075  0.62677     H
H       0.5141   0.3066   0.0399     H
C       0.5312   0.6567  0.40117     C
C       0.5312   0.8745  0.26549     C
C       0.5329   0.2507  0.87933     C
C       0.5329   0.2822  0.78734     C
O       0.5387  0.23468  0.97143     O
O       0.5387  0.30402  0.69524     O
H       0.5418    0.086  0.71107     H
H       0.5418   0.4558   0.9556     H
H       0.5419   0.6424  0.28153     H
H       0.5419   0.8995  0.38513     H
C       0.5436   0.6046   0.1517     C
C       0.5436    0.939  0.51497     C
H       0.5442    0.086  0.62227     H
H       0.5442   0.4582   0.0444     H
C        0.547   0.0367  0.77736     C
C        0.547   0.5103  0.88931     C
H       0.5484   0.7153  0.63347     H
H       0.5484   0.8331   0.0332     H
C       0.5501   0.7344  0.10566     C
C       0.5501   0.8157  0.56101     C
C        0.554   0.6384  0.31693     C
C        0.554   0.9156  0.34973     C
H       0.5556   0.5833    0.183     H
H       0.5556   0.9723  0.48367     H
C       0.5613   0.6976   0.1486     C
C       0.5613   0.8637  0.51807     C
C       0.5655   0.7687  0.78587     C
C       0.5655   0.7968   0.8808     C
N      0.57314   0.7012  0.60787     N
N      0.57314  0.87194   0.0588     N
Zn     0.57409  0.28705  0.33333    Zn
C       0.5784   0.7437  0.56237     C
C       0.5784   0.8347   0.1043     C
C        0.579   0.2895  0.83333     C
C       0.5812   0.0938  0.73907     C
C       0.5812   0.4874   0.9276     C
H       0.5818   0.7343   0.1788     H
H       0.5818   0.8475  0.48787     H
H       0.5833   0.0277  0.84967     H
H       0.5833   0.5556    0.817     H
C       0.5841   0.2601  0.92925     C
C       0.5841    0.324  0.73742     C
H       0.5851   0.6413  0.69687     H
H       0.5851   0.9438   0.9698     H
C       0.5947   0.6301  0.41659     C
C       0.5947   0.9646  0.25007     C
H       0.5976   0.7768  0.75447     H
H       0.5976   0.8208   0.9122     H
C       0.6016   0.6379  0.61994     C
C       0.6016   0.9637  0.04673     C
C       0.6046    0.061  0.81837     C
C       0.6046   0.5436   0.8483     C
C       0.6047   0.6162  0.67032     C
C       0.6047   0.9885  0.99635     C
O       0.6085   0.7259   0.5232     O
O       0.6085   0.8826  0.14347     O
H       0.6087   0.6311  0.45213     H
H       0.6087   0.9776  0.21453     H
C       0.6141  0.80705  0.83333     C
C       0.6162   0.0115  0.33698     C
C       0.6162   0.6047  0.32968     C
O      0.62157  0.29129  0.40499     O
O      0.62157  0.33028  0.26167     O
C       0.6301   0.0354  0.08326     C
C       0.6301   0.5947  0.58341     C
H       0.6311   0.0224   0.1188     H
H       0.6311   0.6087  0.54787     H
C       0.6379   0.0363   0.2866     C
C       0.6379   0.6016  0.38006     C
C       0.6384   0.0844   0.9836     C
C       0.6384    0.554  0.68307     C
H       0.6413   0.0562  0.36353     H
H       0.6413   0.5851  0.30313     H
H       0.6424   0.1005   0.9482     H
H       0.6424   0.5419  0.71847     H
H        0.644    0.322  0.83333     H
C       0.6567   0.1255  0.06784     C
C       0.6567   0.5312  0.59883     C
N      0.66391  0.15083  0.01855     N
N      0.66391  0.51308  0.64812     N
O      0.66972  0.29129  0.92834     O
O      0.66972  0.37843  0.73833     O
H       0.6702   0.1702   0.0938     H
H       0.6702      0.5  0.57287     H
C       0.6749   0.1687  0.73597     C
C       0.6749   0.5062   0.9307     C
C        0.676   0.2601  0.40408     C
C        0.676   0.4159  0.26258     C
H        0.678    0.322      0.5     H
H        0.678    0.356  0.16667     H
H       0.6791  0.83955  0.83333     H
H       0.6934   0.2075  0.70657     H
H       0.6934   0.4859   0.9601     H
O      0.69598  0.23468   0.3619     O
O      0.69598   0.4613  0.30476     O
C       0.6976   0.1363  0.81527     C
C       0.6976   0.5613   0.8514     C
N       0.7012  0.12806  0.27453     N
N       0.7012  0.57314  0.39213     N
O      0.70871  0.33028  0.07166     O
O      0.70871  0.37843  0.59501     O
C       0.7105   0.2895      0.5     C
C       0.7105    0.421  0.16667     C
Zn     0.71296  0.28705      1.0    Zn
Zn     0.71296  0.42592  0.66667    Zn
H       0.7153   0.1669  0.30013     H
H       0.7153   0.5484  0.36653     H
C       0.7178   0.2507    0.454     C
C       0.7178   0.4671  0.21266     C
O       0.7259   0.1174  0.18986     O
O       0.7259   0.6085   0.4768     O
H       0.7343   0.1525  0.84547     H
H       0.7343   0.5818   0.8212     H
C       0.7344   0.1843  0.77233     C
C       0.7344   0.5501  0.89434     C
C       0.7399    0.324  0.59592     C
C       0.7399   0.4159  0.07075     C
C       0.7437   0.1653  0.22903     C
C       0.7437   0.5784  0.43763     C
C       0.7493   0.2822    0.546     C
C       0.7493   0.4671  0.12067     C
O      0.76532  0.30402   0.6381     O
O      0.76532   0.4613  0.02857     O
C       0.7687   0.2032  0.45253     C
C       0.7687   0.5655  0.21413     C
H       0.7768   0.1792  0.42113     H
H       0.7768   0.5976  0.24553     H
H       0.7925   0.3066  0.29343     H
H       0.7925   0.4859  0.37323     H
C       0.7968   0.2313  0.54747     C
C       0.7968   0.5655   0.1192     C
C      0.80705  0.19295      0.5     C
C      0.80705   0.6141  0.16667     C
C       0.8157   0.2656  0.22767     C
C       0.8157   0.5501  0.43899     C
H       0.8208   0.2232  0.57887     H
H       0.8208   0.5976   0.0878     H
H       0.8298   0.3298   0.9062     H
H       0.8298      0.5  0.76047     H
C       0.8313   0.3251  0.26403     C
C       0.8313   0.5062  0.40263     C
H       0.8331   0.2847  0.69987     H
H       0.8331   0.5484   0.9668     H
C       0.8347   0.2563  0.77097     C
C       0.8347   0.5784   0.8957     C
H      0.83955  0.16045      0.5     H
H      0.83955   0.6791  0.16667     H
H       0.8475   0.2657  0.15453     H
H       0.8475   0.5818  0.51213     H
N      0.84917  0.33609  0.98145     N
N      0.84917  0.51308  0.68522     N
C       0.8637   0.3024  0.18473     C
C       0.8637   0.5613  0.48193     C
N      0.87194   0.2988  0.72547     N
N      0.87194  0.57314   0.9412     N
C       0.8745   0.3433  0.93216     C
C       0.8745   0.5312  0.73451     C
O       0.8826   0.2741  0.81014     O
O       0.8826   0.6085  0.85653     O
H       0.8995   0.3576   0.0518     H
H       0.8995   0.5419  0.61487     H
C       0.9062   0.4188  0.26093     C
C       0.9062   0.4874  0.40573     C
H        0.914   0.4558  0.37773     H
H        0.914   0.4582  0.28893     H
C       0.9156   0.3616   0.0164     C
C       0.9156    0.554  0.65027     C
C        0.939   0.3954  0.18163     C
C        0.939   0.5436  0.48503     C
H       0.9438   0.3587  0.63647     H
H       0.9438   0.5851   0.0302     H
C       0.9633    0.453  0.22264     C
C       0.9633   0.5103  0.44402     C
C       0.9637   0.3621   0.7134     C
C       0.9637   0.6016  0.95327     C
C       0.9646   0.3699  0.91674     C
C       0.9646   0.5947  0.74993     C
H       0.9723   0.4167  0.15033     H
H       0.9723   0.5556  0.51633     H
H       0.9776   0.3689   0.8812     H
H       0.9776   0.6087  0.78547     H
C       0.9885   0.3838  0.66302     C
C       0.9885   0.6047  0.00365     C
