data_I
_chemical_name_common  '/home/zhangsd/repos/MofS-CGCNN/ML/data/TSD/clean_cifs/REGMUN_clean'
_cell_length_a 13.54300
_cell_length_b 12.33800
_cell_length_c 40.26700
_cell_angle_alpha 90.00000
_cell_angle_beta  108.39500
_cell_angle_gamma 90.00000
_space_group_name_H-M_alt      'P 1'


loop_
_space_group_symop_operation_xyz
  'x, y, z' 

loop_
_atom_site_label
_atom_site_fract_x
_atom_site_fract_y
_atom_site_fract_z
_atom_site_type_symbol
C       0.0059   0.1726   0.2571     C
C       0.0059   0.3274   0.7571     C
C       0.0077   0.5119  0.15304     C
C       0.0077   0.9881  0.65304     C
C       0.0095   0.6938  0.18252     C
C       0.0095   0.8062  0.68252     C
N       0.0114   0.6831  0.58627     N
N       0.0114   0.8169  0.08627     N
H       0.0181   0.0629   0.1337     H
H       0.0181   0.4371   0.6337     H
C       0.0228   0.7089  0.09372     C
C       0.0228   0.7911  0.59372     C
C       0.0262   0.5293  0.35513     C
C       0.0262   0.9707  0.85513     C
H       0.0272   0.1642   0.4009     H
H       0.0272   0.3358   0.9009     H
C       0.0285    0.147  0.19804     C
C       0.0285    0.353  0.69804     C
C       0.0286   0.6949   0.2785     C
C       0.0286   0.8051   0.7785     C
N       0.0312   0.5582   0.3237     N
N       0.0312   0.9418   0.8237     N
H       0.0323   0.7489   0.6694     H
H       0.0323   0.7511   0.1694     H
H        0.041   0.2045   0.1827     H
H        0.041   0.2955   0.6827     H
C       0.0436   0.7228  0.22114     C
C       0.0436   0.7772  0.72114     C
N       0.0544   0.5892  0.17714     N
N       0.0544   0.9108  0.67714     N
O       0.0606   0.5331  0.44687     O
O       0.0606   0.9669  0.94687     O
H       0.0618   0.0127   0.3624     H
H       0.0618   0.4873   0.8624     H
H       0.0674   0.1895   0.3265     H
H       0.0674   0.3105   0.8265     H
H       0.0697   0.1295   0.6414     H
H       0.0697   0.3705   0.1414     H
O       0.0793   0.5954  0.50098     O
O       0.0793   0.9046  0.00098     O
C       0.0803   0.0662  0.65547     C
C       0.0803   0.4338  0.15547     C
H       0.0848   0.0614   0.2935     H
H       0.0848   0.4386   0.7935     H
N       0.0893   0.0504  0.86874     N
N       0.0893   0.4496  0.36874     N
C       0.0899   0.5265  0.48015     C
C       0.0899   0.9735  0.98015     C
H       0.0916   0.0374   0.2553     H
H       0.0916   0.4626   0.7553     H
C       0.0931   0.0943  0.27243     C
C       0.0931   0.4057  0.77243     C
H        0.097   0.1191   0.2127     H
H        0.097   0.3809   0.7127     H
C       0.0988   0.6538  0.58053     C
C       0.0988   0.8462  0.08053     C
C       0.1017    0.009  0.81664     C
C       0.1017    0.491  0.31664     C
H       0.1095   0.7429    0.344     H
H       0.1095   0.7571    0.844     H
H       0.1123   0.5822   0.5745     H
H       0.1123   0.9178   0.0745     H
C        0.115   0.7399   0.7933     C
C        0.115   0.7601   0.2933     C
C       0.1172   0.6751  0.09231     C
C       0.1172   0.8249  0.59231     C
H       0.1215   0.0094    0.796     H
H       0.1215   0.4906    0.296     H
H       0.1232   0.6055    0.694     H
H       0.1232   0.8945    0.194     H
C       0.1261   0.7047  0.73522     C
C       0.1261   0.7953  0.23522     C
Co     0.12711  0.09114  0.92064    Co
Co     0.12711  0.40886  0.42064    Co
C        0.138   0.0748  0.84448     C
C        0.138   0.4252  0.34448     C
H       0.1444   0.6035   0.0962     H
H       0.1444   0.8965   0.5962     H
C       0.1472   0.0769  0.99501     C
C       0.1472   0.4231  0.49501     C
H       0.1499   0.0701   0.0458     H
H       0.1499   0.4299   0.5458     H
C       0.1516   0.5544  0.19316     C
C       0.1516   0.9456  0.69316     C
C        0.158   0.7253  0.83308     C
C        0.158   0.7747  0.33308     C
H       0.1597   0.1327   0.2785     H
H       0.1597   0.3673   0.7785     H
C       0.1631   0.6894  0.77132     C
C       0.1631   0.8106  0.27132     C
N       0.1655   0.7354  0.58417     N
N       0.1655   0.7646  0.08417     N
H       0.1665   0.6479   0.8387     H
H       0.1665   0.8521   0.3387     H
N       0.1714   0.0404  0.68129     N
N       0.1714   0.4596  0.18129     N
C       0.1718   0.1112  0.02948     C
C       0.1718   0.3888  0.52948     C
C       0.1759   0.6478  0.71146     C
C       0.1759   0.8522  0.21146     C
N       0.1772   0.1349   0.9718     N
N       0.1772   0.3651   0.4718     N
H       0.1893   0.1295    0.847     H
H       0.1893   0.3705    0.347     H
H       0.2011   0.5937   0.2111     H
H       0.2011   0.9063   0.7111     H
H       0.2012   0.6617   0.4353     H
H       0.2012   0.8383   0.9353     H
O       0.2028   0.0788   0.1628     O
O       0.2028   0.4212   0.6628     O
H       0.2061   0.7016   0.6996     H
H       0.2061   0.7984   0.1996     H
H       0.2082   0.1137   0.0981     H
H       0.2082   0.3863   0.5981     H
O       0.2232   0.2337   0.9218     O
O       0.2232   0.2663   0.4218     O
H       0.2256   0.7384    0.342     H
H       0.2256   0.7616    0.842     H
C       0.2284    0.206  0.03993     C
C       0.2284    0.294  0.53993     C
H       0.2308   0.5993   0.7253     H
H       0.2308   0.9007   0.2253     H
C       0.2337   0.1857  0.10278     C
C       0.2337   0.3143  0.60278     C
C        0.234   0.2236  0.98128     C
C        0.234   0.2764  0.48128     C
C       0.2359   0.1718  0.16673     C
C       0.2359   0.3282  0.66673     C
H       0.2399   0.1068   0.7647     H
H       0.2399   0.3932   0.2647     H
H       0.2441   0.5474   0.7733     H
H       0.2441   0.9526   0.2733     H
H       0.2515   0.7402   0.5514     H
H       0.2515   0.7598   0.0514     H
C       0.2525   0.2493  0.07631     C
C       0.2525   0.2507  0.57631     C
C       0.2532     0.23  0.13569     C
C       0.2532     0.27  0.63569     C
C        0.254   0.6151  0.78715     C
C        0.254   0.8849  0.28715     C
H       0.2562   0.5959   0.8112     H
H       0.2562   0.9041   0.3112     H
H       0.2597    0.652   0.6525     H
H       0.2597    0.848   0.1525     H
C       0.2609    0.621  0.43547     C
C       0.2609    0.879  0.93547     C
O      0.26125   0.2277    0.195     O
O      0.26125   0.2723    0.695     O
N       0.2615   0.5119  0.43004     N
N       0.2615   0.9881  0.93004     N
C        0.263   0.2383   0.5151     C
C        0.263   0.2617   0.0151     C
C       0.2647   0.2262  0.45137     C
C       0.2647   0.2738  0.95137     C
C       0.2656    0.736  0.57699     C
C       0.2656    0.764  0.07699     C
H       0.2857   0.5972   0.5164     H
H       0.2857   0.9028   0.0164     H
N       0.2904   0.1696   0.6431     N
N       0.2904   0.3304   0.1431     N
C        0.294   0.1477  0.58515     C
C        0.294   0.3523  0.08515     C
H       0.3043   0.6978   0.0874     H
H       0.3043   0.8022   0.5874     H
H       0.3055   0.1757   0.5216     H
H       0.3055   0.3243   0.0216     H
H       0.3093   0.1035   0.5681     H
H       0.3093   0.3965   0.0681     H
C       0.3097   0.0823     0.77     C
C       0.3097   0.4177     0.27     C
C       0.3129   0.1098  0.61875     C
C       0.3129   0.3902  0.11875     C
H       0.3177    0.745   0.1432     H
H       0.3177    0.755   0.6432     H
Co     0.32068  0.11206  0.69318    Co
Co     0.32068  0.38794  0.19318    Co
H       0.3243   0.6926   0.2587     H
H       0.3243   0.8074   0.7587     H
C       0.3263   0.6797  0.65137     C
C       0.3263   0.8203  0.15137     C
O       0.3278   0.1494  0.45861     O
O       0.3278   0.3506  0.95861     O
C       0.3337   0.6391  0.59068     C
C       0.3337   0.8609  0.09068     C
N       0.3549   0.6654  0.78824     N
N       0.3549   0.8346  0.28824     N
H       0.3562   0.0611   0.8236     H
H       0.3562   0.4389   0.3236     H
C       0.3564   0.6166  0.53083     C
C       0.3564   0.6631  0.44111     C
C       0.3564   0.8369  0.94111     C
C       0.3564   0.8834  0.03083     C
C       0.3594    0.011  0.93249     C
C       0.3594    0.489  0.43249     C
N       0.3606   0.0672  0.74585     N
N       0.3606   0.4328  0.24585     N
C       0.3621   0.6115  0.62623     C
C       0.3621   0.8885  0.12623     C
C       0.3634   0.0023  0.63319     C
C       0.3634   0.4977  0.13319     C
O        0.365   0.5206  0.16371     O
H        0.365   0.6954   0.5305     H
H        0.365   0.8046   0.0305     H
O        0.365   0.9794  0.66371     O
C       0.3727   0.0576  0.80235     C
C       0.3727   0.4424  0.30235     C
C       0.3738   0.7447  0.27113     C
C       0.3738   0.7553  0.77113     C
C       0.3744   0.5788   0.5682     C
C       0.3744   0.9212   0.0682     C
H       0.3764   0.7368   0.4455     H
H       0.3764   0.7632   0.9455     H
H       0.3782   0.6765   0.6747     H
H       0.3782   0.8235   0.1747     H
H       0.3788    0.503   0.6825     H
H       0.3788    0.997   0.1825     H
H       0.3839   0.0816   0.9298     H
H       0.3839   0.4184   0.4298     H
O       0.4022   0.5527   0.1143     O
O       0.4022   0.9473   0.6143     O
H       0.4068   0.5815   0.5214     H
H       0.4068   0.9185   0.0214     H
H        0.418   0.6474   0.3806     H
H        0.418   0.8526   0.8806     H
N       0.4189   0.5775  0.43914     N
N       0.4189   0.9225  0.93914     N
C       0.4227   0.5192  0.63866     C
C       0.4227   0.9808  0.13866     C
H       0.4288   0.0693   0.0319     H
H       0.4288   0.4307   0.5319     H
C       0.4343   0.0135  0.08078     C
C       0.4343   0.4865  0.58078     C
C         0.44   0.0179  0.17552     C
C         0.44   0.4821  0.67552     C
H       0.4445    0.098   0.1761     H
H       0.4445    0.402   0.6761     H
C       0.4458   0.6159  0.80219     C
C       0.4458   0.8841  0.30219     C
H       0.4471   0.6411   0.3451     H
H       0.4471   0.8589   0.8451     H
H       0.4534   0.1632   0.0608     H
H       0.4534   0.3368   0.5608     H
C       0.4543   0.0328  0.76423     C
C       0.4543   0.4672  0.26423     C
H       0.4544   0.5508   0.8154     H
H       0.4544   0.9492   0.3154     H
C       0.4596   0.0444  0.11586     C
C       0.4596   0.4556  0.61586     C
N       0.4653   0.0265  0.79849     N
N       0.4653   0.4735  0.29849     N
C       0.4691   0.0871  0.05643     C
C       0.4691   0.4129  0.55643     C
C       0.4753   0.6443  0.37072     C
C       0.4753   0.8557  0.87072     C
C       0.4774   0.7453  0.27555     C
C       0.4774   0.7547  0.77555     C
N       0.4775   0.1677  0.70443     N
N       0.4775   0.3323  0.20443     N
H       0.4812   0.2091   0.1223     H
H       0.4812   0.2909   0.6223     H
H        0.487   0.1933   0.2338     H
H        0.487   0.3067   0.7338     H
H       0.4926   0.5147   0.7456     H
H       0.4926   0.9853   0.2456     H
H       0.5074   0.0147   0.7544     H
H       0.5074   0.4853   0.2544     H
H        0.513   0.6933   0.2662     H
H        0.513   0.8067   0.7662     H
H       0.5188   0.7091   0.3777     H
H       0.5188   0.7909   0.8777     H
N       0.5225   0.6677  0.79557     N
N       0.5225   0.8323  0.29557     N
C       0.5226   0.2453  0.22445     C
C       0.5226   0.2547  0.72445     C
C       0.5247   0.1443  0.12928     C
C       0.5247   0.3557  0.62928     C
C       0.5309   0.5871  0.44357     C
C       0.5309   0.9129  0.94357     C
N       0.5347   0.5265  0.70151     N
N       0.5347   0.9735  0.20151     N
C       0.5404   0.5444  0.38414     C
C       0.5404   0.9556  0.88414     C
H       0.5456   0.0508   0.6846     H
H       0.5456   0.4492   0.1846     H
C       0.5457   0.5328  0.73577     C
C       0.5457   0.9672  0.23577     C
H       0.5466   0.6632   0.4392     H
H       0.5466   0.8368   0.9392     H
H       0.5529   0.1411   0.1549     H
H       0.5529   0.3589   0.6549     H
C       0.5542   0.1159  0.69781     C
C       0.5542   0.3841  0.19781     C
H       0.5555    0.598   0.3239     H
H       0.5555    0.902   0.8239     H
C         0.56   0.5179  0.32448     C
C         0.56   0.9821  0.82448     C
C       0.5657   0.5135  0.41922     C
C       0.5657   0.9865  0.91922     C
H       0.5712   0.5693   0.4681     H
H       0.5712   0.9307   0.9681     H
C       0.5773   0.0192  0.86134     C
C       0.5773   0.4808  0.36134     C
N       0.5811   0.0775  0.06086     N
N       0.5811   0.4225  0.56086     N
H        0.582   0.1474   0.1194     H
H        0.582   0.3526   0.6194     H
H       0.5932   0.0815   0.9786     H
H       0.5932   0.4185   0.4786     H
O       0.5978   0.0527   0.3857     O
O       0.5978   0.4473   0.8857     O
H       0.6161   0.5816   0.5702     H
H       0.6161   0.9184   0.0702     H
H       0.6212    0.003   0.8175     H
H       0.6212    0.497   0.3175     H
H       0.6218   0.1765   0.8253     H
H       0.6218   0.3235   0.3253     H
H       0.6236   0.2368   0.0545     H
H       0.6236   0.2632   0.5545     H
C       0.6256   0.0788   0.9318     C
C       0.6256   0.4212   0.4318     C
C       0.6262   0.2447  0.22887     C
C       0.6262   0.2553  0.72887     C
C       0.6273   0.5576  0.69765     C
C       0.6273   0.9424  0.19765     C
O        0.635   0.0206  0.33629     O
H        0.635   0.1954   0.9695     H
H        0.635   0.3046   0.4695     H
O        0.635   0.4794  0.83629     O
C       0.6366   0.5023  0.86681     C
C       0.6366   0.9977  0.36681     C
C       0.6379   0.1115  0.87377     C
C       0.6379   0.3885  0.37377     C
N       0.6394   0.5672  0.75415     N
N       0.6394   0.9328  0.25415     N
C       0.6406    0.511  0.56751     C
C       0.6406    0.989  0.06751     C
C       0.6436   0.1166  0.96917     C
C       0.6436   0.1631  0.05889     C
C       0.6436   0.3369  0.55889     C
C       0.6436   0.3834  0.46917     C
H       0.6438   0.5611   0.6764     H
H       0.6438   0.9389   0.1764     H
N       0.6451   0.1654  0.71176     N
N       0.6451   0.3346  0.21176     N
C       0.6663   0.1391  0.90932     C
C       0.6663   0.3609  0.40932     C
O       0.6722   0.6494  0.04139     O
O       0.6722   0.8506  0.54139     O
C       0.6737   0.1797  0.84863     C
C       0.6737   0.3203  0.34863     C
H       0.6757   0.1926   0.2413     H
H       0.6757   0.3074   0.7413     H
Co     0.67932  0.61206  0.80682    Co
Co     0.67932  0.88794  0.30682    Co
H       0.6823    0.245   0.3568     H
H       0.6823    0.255   0.8568     H
C       0.6871   0.6098  0.88125     C
C       0.6871   0.8902  0.38125     C
C       0.6903   0.5823     0.73     C
C       0.6903   0.9177     0.23     C
H       0.6907   0.6035   0.9319     H
H       0.6907   0.8965   0.4319     H
H       0.6945   0.6757   0.9784     H
H       0.6945   0.8243   0.4784     H
H       0.6957   0.1978   0.4126     H
H       0.6957   0.3022   0.9126     H
C        0.706   0.6477  0.91485     C
C        0.706   0.8523  0.41485     C
N       0.7096   0.6696   0.8569     N
N       0.7096   0.8304   0.3569     N
H       0.7143   0.0972   0.9836     H
H       0.7143   0.4028   0.4836     H
C       0.7344    0.236  0.92301     C
C       0.7344    0.264  0.42301     C
C       0.7353   0.7262  0.04863     C
C       0.7353   0.7738  0.54863     C
C        0.737   0.7383   0.9849     C
C        0.737   0.7617   0.4849     C
N       0.7385   0.0119  0.06996     N
N       0.7385   0.4881  0.56996     N
O      0.73875   0.7277    0.305     O
O      0.73875   0.7723    0.805     O
C       0.7391    0.121  0.06453     C
C       0.7391    0.379  0.56453     C
H       0.7403    0.152   0.8475     H
H       0.7403    0.348   0.3475     H
H       0.7438   0.0959   0.6888     H
H       0.7438   0.4041   0.1888     H
C        0.746   0.1151  0.71285     C
C        0.746   0.3849  0.21285     C
C       0.7468     0.73  0.36431     C
C       0.7468     0.77  0.86431     C
C       0.7475   0.7493  0.42369     C
C       0.7475   0.7507  0.92369     C
H       0.7485   0.2402   0.9486     H
H       0.7485   0.2598   0.4486     H
H       0.7559   0.0474   0.7267     H
H       0.7559   0.4526   0.2267     H
H       0.7601   0.6068   0.7353     H
H       0.7601   0.8932   0.2353     H
C       0.7641   0.6718  0.33327     C
C       0.7641   0.8282  0.83327     C
C        0.766   0.7236  0.51872     C
C        0.766   0.7764  0.01872     C
C       0.7663   0.6857  0.39722     C
C       0.7663   0.8143  0.89722     C
H       0.7692   0.0993   0.7747     H
H       0.7692   0.4007   0.2747     H
C       0.7716    0.706  0.46007     C
C       0.7716    0.794  0.96007     C
H       0.7744   0.2384    0.158     H
H       0.7744   0.2616    0.658     H
O       0.7768   0.7337   0.5782     O
O       0.7768   0.7663   0.0782     O
H       0.7918   0.6137   0.4019     H
H       0.7918   0.8863   0.9019     H
H       0.7939   0.2016   0.8004     H
H       0.7939   0.2984   0.3004     H
O       0.7972   0.5788   0.3372     O
O       0.7972   0.9212   0.8372     O
H       0.7988   0.1617   0.0647     H
H       0.7988   0.3383   0.5647     H
H       0.7989   0.0937   0.2889     H
H       0.7989   0.4063   0.7889     H
H       0.8107   0.6295    0.653     H
H       0.8107   0.8705    0.153     H
N       0.8228   0.6349   0.5282     N
N       0.8228   0.8651   0.0282     N
C       0.8241   0.1478  0.78854     C
C       0.8241   0.3522  0.28854     C
C       0.8282   0.6112  0.47052     C
C       0.8282   0.8888  0.97052     C
N       0.8286   0.5404  0.81871     N
N       0.8286   0.9596  0.31871     N
H       0.8335   0.1479   0.6613     H
H       0.8335   0.3521   0.1613     H
N       0.8345   0.2354  0.91583     N
N       0.8345   0.2646  0.41583     N
C       0.8369   0.1894  0.72868     C
C       0.8369   0.3106  0.22868     C
H       0.8403   0.6327   0.2215     H
H       0.8403   0.8673   0.7215     H
C        0.842   0.2253  0.66692     C
C        0.842   0.2747  0.16692     C
C       0.8484   0.0544  0.30684     C
C       0.8484   0.4456  0.80684     C
H       0.8501   0.5701   0.4542     H
H       0.8501   0.9299   0.9542     H
C       0.8528   0.5769  0.50499     C
C       0.8528   0.9231  0.00499     C
H       0.8556   0.1035   0.4038     H
H       0.8556   0.3965   0.9038     H
C        0.862   0.5748  0.65552     C
C        0.862   0.9252  0.15552     C
Co     0.87289  0.59114  0.57936    Co
Co     0.87289  0.90886  0.07936    Co
C       0.8739   0.2047  0.76478     C
C       0.8739   0.2953  0.26478     C
H       0.8768   0.1055    0.806     H
H       0.8768   0.3945    0.306     H
H       0.8785   0.5094    0.704     H
H       0.8785   0.9906    0.204     H
C       0.8828   0.1751  0.40769     C
C       0.8828   0.3249  0.90769     C
C        0.885   0.2399   0.7067     C
C        0.885   0.2601   0.2067     C
H       0.8877   0.0822   0.9255     H
H       0.8877   0.4178   0.4255     H
H       0.8905   0.2429    0.156     H
H       0.8905   0.2571    0.656     H
C       0.8983    0.509  0.68336     C
C       0.8983    0.991  0.18336     C
C       0.9012   0.1538  0.91947     C
C       0.9012   0.3462  0.41947     C
H        0.903   0.6191   0.2873     H
H        0.903   0.8809   0.7873     H
C       0.9069   0.5943  0.22757     C
C       0.9069   0.9057  0.72757     C
H       0.9084   0.5374   0.2447     H
H       0.9084   0.9626   0.7447     H
C       0.9101   0.0265  0.01985     C
C       0.9101   0.4735  0.51985     C
N       0.9107   0.5504  0.63126     N
N       0.9107   0.9496  0.13126     N
H       0.9152   0.5614   0.2065     H
H       0.9152   0.9386   0.7065     H
C       0.9197   0.5662  0.84453     C
C       0.9197   0.9338  0.34453     C
O       0.9207   0.0954  0.99902     O
O       0.9207   0.4046  0.49902     O
H       0.9303   0.6295   0.8586     H
H       0.9303   0.8705   0.3586     H
H       0.9326   0.6895   0.1735     H
H       0.9326   0.8105   0.6735     H
H       0.9382   0.5127   0.1376     H
H       0.9382   0.9873   0.6376     H
O       0.9394   0.0331  0.05313     O
O       0.9394   0.4669  0.55313     O
N       0.9456   0.0892  0.32286     N
N       0.9456   0.4108  0.82286     N
C       0.9564   0.2228  0.27886     C
C       0.9564   0.2772  0.77886     C
H        0.959   0.7045   0.3173     H
H        0.959   0.7955   0.8173     H
H       0.9677   0.2489   0.8306     H
H       0.9677   0.2511   0.3306     H
N       0.9688   0.0582   0.1763     N
N       0.9688   0.4418   0.6763     N
C       0.9714   0.1949   0.2215     C
C       0.9714   0.3051   0.7215     C
C       0.9715    0.647  0.30196     C
C       0.9715    0.853  0.80196     C
H       0.9728   0.6642   0.0991     H
H       0.9728   0.8358   0.5991     H
C       0.9738   0.0293  0.14487     C
C       0.9738   0.4707  0.64487     C
C       0.9772   0.2089  0.40628     C
C       0.9772   0.2911  0.90628     C
H       0.9819   0.5629   0.3663     H
H       0.9819   0.9371   0.8663     H
N       0.9886   0.1831  0.91373     N
N       0.9886   0.3169  0.41373     N
C       0.9905   0.1938  0.31748     C
C       0.9905   0.3062  0.81748     C
C       0.9923   0.0119  0.34696     C
C       0.9923   0.4881  0.84696     C
C       0.9941   0.6726   0.2429     C
C       0.9941   0.8274   0.7429     C
