data_I
_chemical_name_common  '/home/zhangsd/repos/MofS-CGCNN/ML/data/TSD/clean_cifs/REGMOH_clean'
_cell_length_a 13.49950
_cell_length_b 12.42120
_cell_length_c 40.15300
_cell_angle_alpha 90.00000
_cell_angle_beta  108.43800
_cell_angle_gamma 90.00000
_space_group_name_H-M_alt      'P 1'


loop_
_space_group_symop_operation_xyz
  'x, y, z' 

loop_
_atom_site_label
_atom_site_fract_x
_atom_site_fract_y
_atom_site_fract_z
_atom_site_type_symbol
C       0.0028   0.6655  0.25565     C
C       0.0028   0.8345  0.75565     C
C       0.0088    0.007  0.15359     C
N       0.0088   0.1834  0.58586     N
N       0.0088   0.3166  0.08586     N
C       0.0088    0.493  0.65359     C
C       0.0093   0.1865  0.18377     C
C       0.0093   0.3135  0.68377     C
H       0.0165   0.5638   0.1318     H
H       0.0165   0.9362   0.6318     H
H       0.0246   0.6704   0.3965     H
H       0.0246   0.8296   0.8965     H
C       0.0247   0.2134  0.09718     C
C       0.0247   0.2866  0.59718     C
C        0.025   0.6436  0.19614     C
C        0.025   0.8564  0.69614     C
C       0.0276   0.0287  0.35724     C
C       0.0276   0.4713  0.85724     C
H       0.0292   0.2446   0.1702     H
H       0.0292   0.2554   0.6702     H
C       0.0324   0.1895     0.28     C
C       0.0324   0.3105     0.78     C
N       0.0335    0.055  0.32581     N
N       0.0335    0.445  0.82581     N
H       0.0363   0.7015   0.1808     H
H       0.0363   0.7985   0.6808     H
C       0.0448   0.2158  0.22194     C
C       0.0448   0.2842  0.72194     C
N        0.056   0.0837   0.1775     N
N        0.056   0.4163   0.6775     N
O      0.06126  0.02921  0.44725     O
O      0.06126  0.47079  0.94725     O
H       0.0614   0.5071   0.3615     H
H       0.0614   0.9929   0.8615     H
H       0.0678   0.6802   0.3247     H
H       0.0678   0.8198   0.8247     H
H        0.071   0.6335   0.6417     H
H        0.071   0.8665   0.1417     H
H       0.0803   0.5247   0.2538     H
H       0.0803   0.9753   0.7538     H
O      0.08047   0.0913  0.50134     O
O      0.08047   0.4087  0.00134     O
C        0.082   0.5699  0.65556     C
C        0.082   0.9301  0.15556     C
H       0.0853   0.5578   0.2928     H
H       0.0853   0.9422   0.7928     H
C       0.0887   0.5848  0.27029     C
C       0.0887   0.9152  0.77029     C
N       0.0899   0.5515  0.87128     N
N       0.0899   0.9485  0.37128     N
C        0.091   0.0227  0.48066     C
C        0.091   0.4773  0.98066     C
H       0.0943   0.6168   0.2107     H
H       0.0943   0.8832   0.7107     H
C       0.0962   0.1546     0.58     C
C       0.0962   0.3454     0.08     C
C        0.103    0.514  0.81883     C
C        0.103    0.986  0.31883     C
H       0.1077   0.0853   0.5719     H
H       0.1077   0.4147   0.0719     H
C       0.1187   0.2445  0.79427     C
C       0.1187   0.2555  0.29427     C
H       0.1194   0.1071   0.6947     H
H       0.1194   0.3929   0.1947     H
C       0.1214   0.1806  0.09811     C
C       0.1214   0.3194  0.59811     C
H       0.1228   0.5158   0.7981     H
H       0.1228   0.9842   0.2981     H
C       0.1259    0.211  0.73546     C
C       0.1259    0.289  0.23546     C
Ni     0.12882  0.59473  0.92243    Ni
Ni     0.12882  0.90527  0.42243    Ni
H       0.1344   0.2167   0.3457     H
H       0.1344   0.2833   0.8457     H
C        0.138    0.579  0.84696     C
C        0.138    0.921  0.34696     C
H       0.1425   0.1566   0.8398     H
H       0.1425   0.3434   0.3398     H
C       0.1484   0.5804  0.99574     C
C       0.1484   0.9196  0.49574     C
H       0.1518   0.1119   0.1052     H
H       0.1518   0.3881   0.6052     H
H       0.1534   0.5731   0.0468     H
H       0.1534   0.9269   0.5468     H
C        0.155   0.0509  0.19267     C
C        0.155   0.4491  0.69267     C
H       0.1565   0.6194   0.2738     H
H       0.1565   0.8806   0.7738     H
C       0.1625   0.2281  0.83376     C
C       0.1625   0.2719  0.33376     C
C       0.1648   0.1942  0.77179     C
C       0.1648   0.3058  0.27179     C
N       0.1666   0.2341  0.58674     N
N       0.1666   0.2659  0.08674     N
C       0.1729   0.1521  0.71093     C
C       0.1729   0.3479  0.21093     C
N        0.174   0.5421  0.68046     N
N        0.174   0.9579  0.18046     N
C       0.1744   0.6142  0.03027     C
C       0.1744   0.8858  0.53027     C
N       0.1765   0.6384  0.97233     N
N       0.1765   0.8616  0.47233     N
H       0.1879   0.6349   0.8496     H
H       0.1879   0.8651   0.3496     H
H       0.1991   0.2046   0.6975     H
H       0.1991   0.2954   0.1975     H
H       0.1998   0.1542   0.4364     H
H       0.1998   0.3458   0.9364     H
O      0.20411   0.5831  0.16385     O
O      0.20411   0.9169  0.66385     O
H       0.2056   0.0907   0.2102     H
H       0.2056   0.4093   0.7102     H
H       0.2105   0.6173   0.0989     H
H       0.2105   0.8827   0.5989     H
O       0.2201   0.7361  0.92165     O
O       0.2201   0.7639  0.42165     O
H       0.2307   0.1066   0.7247     H
H       0.2307   0.3934   0.2247     H
C       0.2315   0.7088  0.04069     C
C       0.2315   0.7912  0.54069     C
C        0.234   0.7265  0.98163     C
C        0.234   0.7735  0.48163     C
C       0.2364   0.6887  0.10363     C
C       0.2364   0.8113  0.60363     C
C        0.238   0.6755  0.16785     C
C        0.238   0.8245  0.66785     C
H       0.2385   0.6119   0.7628     H
H       0.2385   0.8881   0.2628     H
H       0.2388   0.2336   0.8412     H
H       0.2388   0.2664   0.3412     H
H       0.2448   0.0517   0.7728     H
H       0.2448   0.4483   0.2728     H
H       0.2541    0.243   0.5545     H
H       0.2541    0.257   0.0545     H
C        0.255   0.7332  0.13663     C
C        0.255   0.7668  0.63663     C
C       0.2562   0.1184  0.78703     C
C       0.2562   0.3816  0.28703     C
C       0.2562   0.7495  0.57726     C
C       0.2562   0.7505  0.07726     C
H       0.2594   0.0984   0.8112     H
H       0.2594   0.4016   0.3112     H
C       0.2598   0.1141  0.43654     C
C       0.2598   0.3859  0.93654     C
H       0.2615   0.1473   0.6548     H
H       0.2615   0.3527   0.1548     H
C       0.2616   0.7222  0.45125     C
C       0.2616   0.7778  0.95125     C
N       0.2618   0.0049  0.43171     N
N       0.2618   0.4951  0.93171     N
O      0.26275  0.73072  0.19623     O
O      0.26275  0.76928  0.69623     O
C       0.2632   0.7356  0.51561     C
C       0.2632   0.7644  0.01561     C
C       0.2675   0.2358  0.58005     C
C       0.2675   0.2642  0.08005     C
H       0.2794   0.1094    0.519     H
H       0.2794   0.3906    0.019     H
N      0.29276   0.6674  0.64391     N
N      0.29276   0.8326  0.14391     N
C       0.2985   0.6472  0.58619     C
C       0.2985   0.8528  0.08619     C
H       0.3044   0.6723   0.5219     H
H       0.3044   0.8277   0.0219     H
H       0.3065   0.1995   0.0914     H
H       0.3065   0.3005   0.5914     H
C       0.3074   0.5844  0.76817     C
C       0.3074   0.9156  0.26817     C
H       0.3149    0.604   0.5691     H
H       0.3149    0.896   0.0691     H
C       0.3165   0.6087  0.61972     C
C       0.3165   0.8913  0.11972     C
Ni     0.32097  0.61208  0.69248    Ni
Ni     0.32097  0.88792  0.19248    Ni
H       0.3211     0.25   0.1463     H
H       0.3211     0.25   0.6463     H
O       0.3222   0.6452  0.45772     O
O       0.3222   0.8548  0.95772     O
H       0.3286   0.1946   0.2571     H
H       0.3286   0.3054   0.7571     H
C       0.3288   0.1746  0.65392     C
C       0.3288   0.3254  0.15392     C
C       0.3357   0.1382  0.59286     C
C       0.3357   0.3618  0.09286     C
C       0.3535   0.1192   0.5322     C
C       0.3535   0.3808   0.0322     C
H       0.3548    0.563   0.8221     H
H       0.3548    0.937   0.3221     H
C       0.3554   0.1562  0.44152     C
C       0.3554   0.3438  0.94152     C
N       0.3564   0.1666   0.7878     N
N       0.3564   0.3334   0.2878     N
C       0.3591   0.5166  0.93361     C
C       0.3591   0.9834  0.43361     C
N       0.3593   0.5651  0.74413     N
N       0.3593   0.9349  0.24413     N
C       0.3647   0.1081  0.62823     C
C       0.3647   0.3919  0.12823     C
C       0.3668   0.5014    0.634     C
C       0.3668   0.9986    0.134     C
O      0.36727  0.02211  0.16457     O
O      0.36727  0.47789  0.66457     O
C       0.3708   0.5578  0.80078     C
C       0.3708   0.9422  0.30078     C
H       0.3715   0.1957   0.5325     H
H       0.3715   0.3043   0.0325     H
C       0.3745   0.0797  0.56947     C
C       0.3745   0.4203  0.06947     C
H       0.3751   0.2297   0.4456     H
H       0.3751   0.2703   0.9456     H
C       0.3774   0.2464   0.2701     C
C       0.3774   0.2536   0.7701     C
H       0.3806   0.1696   0.6773     H
H       0.3806   0.3304   0.1773     H
H       0.3825   0.5052   0.1838     H
H       0.3825   0.9948   0.6838     H
H        0.384   0.5866    0.931     H
H        0.384   0.9134    0.431     H
H       0.3961    0.078   0.5209     H
H       0.3961    0.422   0.0209     H
O       0.4063   0.0531  0.11524     O
O       0.4063   0.4469  0.61524     O
H       0.4172   0.1465   0.3819     H
H       0.4172   0.3535   0.8819     H
N       0.4184   0.0718  0.43958     N
N       0.4184   0.4282  0.93958     N
C       0.4255   0.0163  0.63974     C
C       0.4255   0.4837  0.13974     C
H       0.4286   0.5635   0.0321     H
H       0.4286   0.9365   0.5321     H
C       0.4352   0.5116  0.08154     C
C       0.4352   0.9884  0.58154     C
H       0.4385   0.1378    0.345     H
H       0.4385   0.3622    0.845     H
C       0.4444    0.523  0.17673     C
C       0.4444    0.977  0.67673     C
C       0.4476   0.1169  0.80244     C
C       0.4476   0.3831  0.30244     C
H       0.4508   0.6024   0.1769     H
H       0.4508   0.8976   0.6769     H
C       0.4515   0.5277  0.76267     C
C       0.4515   0.9723  0.26267     C
H       0.4549   0.6584   0.0605     H
H       0.4549   0.8416   0.5605     H
H       0.4556   0.0534   0.8162     H
H       0.4556   0.4466   0.3162     H
N       0.4618   0.5221  0.79682     N
N       0.4618   0.9779  0.29682     N
C        0.462   0.5445  0.11668     C
C        0.462   0.9555  0.61668     C
C       0.4699   0.5823  0.05649     C
C       0.4699   0.9177  0.55649     C
C       0.4714   0.1426  0.37048     C
C       0.4714   0.3574  0.87048     C
N       0.4748   0.6663  0.70446     N
N       0.4748   0.8337  0.20446     N
C        0.481   0.2485   0.2747     C
C        0.481   0.2515   0.7747     C
H       0.4827   0.6985   0.2351     H
H       0.4827   0.8015   0.7351     H
H       0.4849   0.7073   0.1238     H
H       0.4849   0.7927   0.6238     H
H       0.4956   0.0072   0.7471     H
H       0.4956   0.4928   0.2471     H
H       0.5044   0.5072   0.7529     H
H       0.5044   0.9928   0.2529     H
H       0.5151   0.2073   0.3762     H
H       0.5151   0.2927   0.8762     H
H       0.5173   0.1985   0.2649     H
H       0.5173   0.3015   0.7649     H
C        0.519   0.7485   0.2253     C
C        0.519   0.7515   0.7253     C
N       0.5252   0.1663  0.79554     N
N       0.5252   0.3337  0.29554     N
C       0.5286   0.6426  0.12952     C
C       0.5286   0.8574  0.62952     C
C       0.5301   0.0823  0.44351     C
C       0.5301   0.4177  0.94351     C
C        0.538   0.0445  0.38332     C
C        0.538   0.4555  0.88332     C
N       0.5382   0.0221  0.70318     N
N       0.5382   0.4779  0.20318     N
H       0.5444   0.5534   0.6838     H
H       0.5444   0.9466   0.1838     H
H       0.5451   0.1584   0.4395     H
H       0.5451   0.3416   0.9395     H
C       0.5485   0.0277  0.73733     C
C       0.5485   0.4723  0.23733     C
H       0.5492   0.1024   0.3231     H
H       0.5492   0.3976   0.8231     H
C       0.5524   0.6169  0.69756     C
C       0.5524   0.8831  0.19756     C
C       0.5556    0.023  0.32327     C
C       0.5556    0.477  0.82327     C
H       0.5615   0.6378    0.155     H
H       0.5615   0.8622    0.655     H
C       0.5648   0.0116  0.41846     C
C       0.5648   0.4884  0.91846     C
H       0.5714   0.0635   0.4679     H
H       0.5714   0.4365   0.9679     H
C       0.5745   0.5163  0.86026     C
C       0.5745   0.9837  0.36026     C
N       0.5816   0.5718  0.06042     N
N       0.5816   0.9282  0.56042     N
H       0.5828   0.6465   0.1181     H
H       0.5828   0.8535   0.6181     H
O       0.5937   0.5531  0.38476     O
O       0.5937   0.9469  0.88476     O
H       0.6039    0.578   0.9791     H
H       0.6039    0.922   0.4791     H
H        0.616   0.0866    0.569     H
H        0.616   0.4134    0.069     H
H       0.6175   0.0052   0.3162     H
H       0.6175   0.4948   0.8162     H
H       0.6194   0.6696   0.8227     H
H       0.6194   0.8304   0.3227     H
C       0.6226   0.7464   0.2299     C
C       0.6226   0.7536   0.7299     C
H       0.6249   0.7297   0.0544     H
H       0.6249   0.7703   0.5544     H
C       0.6255   0.5797  0.93053     C
C       0.6255   0.9203  0.43053     C
H       0.6285   0.6957   0.9675     H
H       0.6285   0.8043   0.4675     H
C       0.6292   0.0578  0.69922     C
C       0.6292   0.4422  0.19922     C
O      0.63273  0.52211  0.33543     O
O      0.63273  0.97789  0.83543     O
C       0.6332   0.0014    0.866     C
C       0.6332   0.4986    0.366     C
C       0.6353   0.6081  0.87177     C
C       0.6353   0.8919  0.37177     C
N       0.6407   0.0651  0.75587     N
N       0.6407   0.4349  0.25587     N
C       0.6409   0.0166  0.56639     C
C       0.6409   0.4834  0.06639     C
N       0.6436   0.6666   0.7122     N
N       0.6436   0.8334   0.2122     N
C       0.6446   0.6562  0.05848     C
C       0.6446   0.8438  0.55848     C
H       0.6452    0.063   0.6779     H
H       0.6452    0.437   0.1779     H
C       0.6465   0.6192   0.9678     C
C       0.6465   0.8808   0.4678     C
C       0.6643   0.6382  0.90714     C
C       0.6643   0.8618  0.40714     C
C       0.6712   0.6746  0.84608     C
C       0.6712   0.8254  0.34608     C
H       0.6714   0.6946   0.2429     H
H       0.6714   0.8054   0.7429     H
O       0.6778   0.1452  0.04228     O
O       0.6778   0.3548  0.54228     O
H       0.6789     0.75   0.3537     H
H       0.6789     0.75   0.8537     H
Ni     0.67903  0.11208  0.80752    Ni
Ni     0.67903  0.38792  0.30752    Ni
C       0.6835   0.1087  0.88028     C
C       0.6835   0.3913  0.38028     C
H       0.6851    0.104   0.9309     H
H       0.6851    0.396   0.4309     H
C       0.6926   0.0844  0.73183     C
C       0.6926   0.4156  0.23183     C
H       0.6935   0.6995   0.4086     H
H       0.6935   0.8005   0.9086     H
H       0.6956   0.1723   0.9781     H
H       0.6956   0.3277   0.4781     H
C       0.7015   0.1472  0.91381     C
C       0.7015   0.3528  0.41381     C
N      0.70724   0.1674  0.85609     N
N      0.70724   0.3326  0.35609     N
H       0.7206   0.6094    0.981     H
H       0.7206   0.8906    0.481     H
C       0.7325   0.7358  0.91995     C
C       0.7325   0.7642  0.41995     C
C       0.7368   0.2356  0.98439     C
C       0.7368   0.2644  0.48439     C
O      0.73725  0.23072  0.30377     O
O      0.73725  0.26928  0.80377     O
N       0.7382   0.5049  0.06829     N
N       0.7382   0.9951  0.56829     N
C       0.7384   0.2222  0.04875     C
C       0.7384   0.2778  0.54875     C
H       0.7385   0.6473   0.8452     H
H       0.7385   0.8527   0.3452     H
C       0.7402   0.6141  0.06346     C
C       0.7402   0.8859  0.56346     C
H       0.7406   0.5984   0.6888     H
H       0.7406   0.9016   0.1888     H
C       0.7438   0.2495  0.92274     C
C       0.7438   0.2505  0.42274     C
C       0.7438   0.6184  0.71297     C
C       0.7438   0.8816  0.21297     C
C        0.745   0.2332  0.36337     C
C        0.745   0.2668  0.86337     C
H       0.7459    0.743   0.9455     H
H       0.7459    0.757   0.4455     H
H       0.7552   0.5517   0.7272     H
H       0.7552   0.9483   0.2272     H
H       0.7612   0.7336   0.6588     H
H       0.7612   0.7664   0.1588     H
H       0.7615   0.1119   0.7372     H
H       0.7615   0.3881   0.2372     H
C        0.762   0.1755  0.33215     C
C        0.762   0.3245  0.83215     C
C       0.7636   0.1887  0.39637     C
C       0.7636   0.3113  0.89637     C
C        0.766   0.2265  0.51837     C
C        0.766   0.2735  0.01837     C
C       0.7685   0.2088  0.45931     C
C       0.7685   0.2912  0.95931     C
H       0.7693   0.6066   0.7753     H
H       0.7693   0.8934   0.2753     H
O       0.7799   0.2361  0.57835     O
O       0.7799   0.2639  0.07835     O
H       0.7895   0.1173   0.4011     H
H       0.7895   0.3827   0.9011     H
H       0.7944   0.5907   0.2898     H
H       0.7944   0.9093   0.7898     H
O      0.79589   0.0831  0.33615     O
O      0.79589   0.4169  0.83615     O
H       0.8002   0.6542   0.0636     H
H       0.8002   0.8458   0.5636     H
H       0.8009   0.7046   0.8025     H
H       0.8009   0.7954   0.3025     H
H       0.8121   0.1349   0.6504     H
H       0.8121   0.3651   0.1504     H
N       0.8235   0.1384  0.52767     N
N       0.8235   0.3616  0.02767     N
C       0.8256   0.1142  0.46973     C
C       0.8256   0.3858  0.96973     C
N        0.826   0.0421  0.81954     N
N        0.826   0.4579  0.31954     N
C       0.8271   0.6521  0.78907     C
C       0.8271   0.8479  0.28907     C
N       0.8334   0.7341  0.91326     N
N       0.8334   0.7659  0.41326     N
C       0.8352   0.6942  0.72821     C
C       0.8352   0.8058  0.22821     C
C       0.8375   0.7281  0.66624     C
C       0.8375   0.7719  0.16624     C
H       0.8435   0.1194   0.2262     H
H       0.8435   0.3806   0.7262     H
C        0.845   0.5509  0.30733     C
C        0.845   0.9491  0.80733     C
H       0.8466   0.0731   0.4532     H
H       0.8466   0.4269   0.9532     H
H       0.8482   0.6119   0.3948     H
H       0.8482   0.8881   0.8948     H
C       0.8516   0.0804  0.50426     C
C       0.8516   0.4196  0.00426     C
H       0.8575   0.6566   0.6602     H
H       0.8575   0.8434   0.1602     H
C        0.862    0.079  0.65304     C
C        0.862    0.421  0.15304     C
H       0.8656   0.7167   0.1543     H
H       0.8656   0.7833   0.6543     H
Ni     0.87118  0.09473  0.57757    Ni
Ni     0.87118  0.40527  0.07757    Ni
C       0.8741    0.711  0.76454     C
C       0.8741    0.789  0.26454     C
H       0.8772   0.0158   0.7019     H
H       0.8772   0.4842   0.2019     H
C       0.8786   0.6806  0.40189     C
C       0.8786   0.8194  0.90189     C
H       0.8806   0.6071   0.8053     H
H       0.8806   0.8929   0.3053     H
C       0.8813   0.7445  0.70573     C
C       0.8813   0.7555  0.20573     C
H       0.8923   0.5853   0.9281     H
H       0.8923   0.9147   0.4281     H
C        0.897    0.014  0.68117     C
C        0.897    0.486  0.18117     C
C       0.9038   0.6546     0.92     C
C       0.9038   0.8454     0.42     C
H       0.9057   0.1168   0.2893     H
H       0.9057   0.3832   0.7893     H
C        0.909   0.5227  0.01934     C
C        0.909   0.9773  0.51934     C
N       0.9101   0.0515  0.62872     N
N       0.9101   0.4485  0.12872     N
C       0.9113   0.0848  0.22971     C
C       0.9113   0.4152  0.72971     C
H       0.9147   0.0578   0.2072     H
H       0.9147   0.4422   0.7072     H
C        0.918   0.0699  0.84444     C
C        0.918   0.4301  0.34444     C
O      0.91953   0.5913  0.99866     O
O      0.91953   0.9087  0.49866     O
H       0.9197   0.0247   0.2462     H
H       0.9197   0.4753   0.7462     H
H        0.929   0.1335   0.8583     H
H        0.929   0.3665   0.3583     H
H       0.9322   0.1802   0.1753     H
H       0.9322   0.3198   0.6753     H
H       0.9386   0.0071   0.1385     H
H       0.9386   0.4929   0.6385     H
O      0.93874  0.52921  0.05275     O
O      0.93874  0.97079  0.55275     O
N        0.944   0.5837   0.3225     N
N        0.944   0.9163   0.8225     N
C       0.9552   0.7158  0.27806     C
C       0.9552   0.7842  0.77806     C
H       0.9637   0.2015   0.3192     H
H       0.9637   0.2985   0.8192     H
N       0.9665    0.555  0.17419     N
N       0.9665    0.945  0.67419     N
C       0.9676   0.6895     0.22     C
C       0.9676   0.8105     0.72     C
H       0.9708   0.7446   0.3298     H
H       0.9708   0.7554   0.8298     H
C       0.9724   0.5287  0.14276     C
C       0.9724   0.9713  0.64276     C
C        0.975   0.1436  0.30386     C
C        0.975   0.3564  0.80386     C
C       0.9753   0.7134  0.40282     C
C       0.9753   0.7866  0.90282     C
H       0.9754   0.1704   0.1035     H
H       0.9754   0.3296   0.6035     H
H       0.9835   0.0638   0.3682     H
H       0.9835   0.4362   0.8682     H
C       0.9907   0.6865  0.31623     C
C       0.9907   0.8135  0.81623     C
C       0.9912    0.507  0.34641     C
N       0.9912   0.6834  0.91414     N
N       0.9912   0.8166  0.41414     N
C       0.9912    0.993  0.84641     C
C       0.9972   0.1655  0.24435     C
C       0.9972   0.3345  0.74435     C
