data_I
_chemical_name_common  '/home/zhangsd/repos/MofS-CGCNN/ML/data/TSD/clean_cifs/REJLIC_clean'
_cell_length_a 11.79140
_cell_length_b 17.05040
_cell_length_c 20.79500
_cell_angle_alpha 104.72600
_cell_angle_beta  106.36000
_cell_angle_gamma 103.48100
_space_group_name_H-M_alt      'P 1'


loop_
_space_group_symop_operation_xyz
  'x, y, z' 

loop_
_atom_site_label
_atom_site_fract_x
_atom_site_fract_y
_atom_site_fract_z
_atom_site_type_symbol
Co         0.0      0.0      0.0    Co
Co         0.0      0.5      0.5    Co
Co       7e-05  0.25188  0.24835    Co
C        0.011     0.61   0.6419     C
C       0.0118   0.1124    0.141     C
S       0.0162  0.40978  0.92662     S
S       0.0259  0.91509  0.42763     S
C        0.029   0.2584   0.9921     C
N       0.0296   0.8402   0.6934     N
N       0.0314   0.3863   0.5207     N
N       0.0331   0.3443   0.1911     N
N       0.0357   0.8896   0.0226     N
C       0.0397   0.7612   0.4918     C
C       0.0431   0.5695   0.8712     C
C       0.0468   0.1887   0.0103     C
O       0.0487   0.0596   0.1074     O
O       0.0496   0.5588   0.6078     O
C       0.0528   0.0763    0.371     C
C       0.0531   0.6913   0.5114     C
C       0.0598   0.6367   0.8471     C
C       0.0623    0.978   0.6441     C
C        0.064   0.1439   0.3459     C
C       0.0663   0.2483   0.5623     C
C       0.0735    0.483    0.144     C
C       0.0773   0.7523   0.0627     C
O       0.0843   0.1743   0.1974     O
O       0.0844   0.6709   0.6998     O
C       0.0853   0.0577   0.6258     C
C       0.0858   0.1783   0.5897     C
H         0.09   0.3137   0.0175     H
C       0.0978   0.5615   0.1245     C
C        0.101   0.6822    0.089     C
H       0.1037   0.8155   0.5156     H
H       0.1137   0.5593   0.8988     H
H       0.1213   0.1971    0.048     H
C       0.1221   0.8927   0.8825     C
C       0.1229   0.3949   0.3792     C
H       0.1252   0.0678   0.3985     H
H       0.1263   0.6994   0.5498     H
C       0.1357   0.3947   0.5722     C
C        0.139   0.8991   0.0754     C
C       0.1406   0.8891   0.7028     C
H        0.143    0.672   0.8584     H
H       0.1459   0.1818   0.3581     H
C       0.1466   0.3907   0.2004     C
N       0.1502   0.8287   0.8405     N
N       0.1526   0.3346   0.3361     N
C       0.1559   0.3267   0.5936     C
C       0.1599   0.9578   0.6798     C
C        0.162    0.833   0.0968     C
C       0.1698     0.46   0.1775     C
O       0.1851    0.554   0.5147     O
O       0.1856    0.056   0.0127     O
N       0.1915    0.116   0.6526     N
N       0.1925   0.1841   0.6305     N
H       0.1988   0.4494   0.5953     H
H       0.1997   0.9548   0.0995     H
N       0.2063   0.6158    0.147     N
N       0.2086   0.6858    0.126     N
H       0.2115   0.8763   0.7268     H
H       0.2156   0.3759   0.2241     H
C       0.2307    0.947   0.9364     C
C       0.2319   0.4496   0.4339     C
H       0.2322    0.335   0.6299     H
H       0.2366   0.8432   0.1352     H
H       0.2428   0.9918   0.6891     H
H       0.2532   0.4915   0.1851     H
C       0.2651   0.5255   0.4991     C
C       0.2663   0.0286   0.9958     C
C       0.2723   0.8468   0.8713     C
C       0.2758   0.3549   0.3648     C
H       0.3172   0.8125   0.8535     H
H       0.3218   0.3234    0.345     H
N        0.327   0.9171   0.9293     N
N       0.3283   0.4232   0.4236     N
O       0.3802   0.5585   0.5365     O
O       0.3818   0.0671   0.0274     O
H       0.4217   0.2088   0.5331     H
H       0.4273   0.3089   0.4763     H
C       0.4459    0.268   0.5599     C
C       0.4494   0.3287   0.5266     C
N       0.4726   0.1534   0.6394     N
H       0.4732   0.8285   0.0268     H
H       0.4737   0.5982    0.283     H
H       0.4749   0.5034   0.3467     H
C       0.4772   0.2945   0.6307     C
N       0.4789   0.1081   0.6849     N
C       0.4808   0.2327   0.6697     C
N       0.4812   0.4115   0.5595     N
C       0.4829   0.8642   0.0727     C
N       0.4887   0.9457   0.0827     N
H       0.4897   0.7719   0.1187     H
C       0.4907   0.8295   0.1269     C
C       0.4914   0.1543   0.7488     C
H       0.4931    0.049   0.1523     H
H       0.4933   0.0011   0.7534     H
C       0.4936    0.619   0.3331     C
C       0.4937   0.5627   0.3715     C
C       0.4941    0.992   0.1455     C
S       0.4953  0.25684  0.75621     S
C       0.4989   0.0374    0.798     C
C       0.4999     0.88   0.1922     C
Co         0.5      0.0      0.0    Co
Co         0.5      0.5      0.5    Co
C       0.5001     0.12   0.8078     C
C       0.5011   0.9626    0.202     C
S       0.5047  0.74316  0.24379     S
C       0.5059    0.008   0.8545     C
C       0.5063   0.4373   0.6285     C
C       0.5064    0.381   0.6669     C
H       0.5067   0.9989   0.2466     H
H       0.5069    0.951   0.8477     H
C       0.5086   0.8457   0.2512     C
C       0.5093   0.1705   0.8731     C
H       0.5103   0.2281   0.8813     H
N       0.5113   0.0543   0.9173     N
C       0.5171   0.1358   0.9273     C
N       0.5188   0.5885   0.4405     N
C       0.5192   0.7673   0.3303     C
N       0.5211   0.8919   0.3151     N
C       0.5228   0.7055   0.3693     C
H       0.5251   0.4966   0.6533     H
H       0.5263   0.4018    0.717     H
H       0.5268   0.1715   0.9732     H
N       0.5274   0.8466   0.3606     N
C       0.5506   0.6713   0.4734     C
C       0.5541    0.732   0.4401     C
H       0.5727   0.6911   0.5237     H
H       0.5783   0.7912   0.4669     H
O       0.6182   0.9329   0.9726     O
O       0.6198   0.4415   0.4635     O
N       0.6717   0.5768   0.5764     N
N        0.673   0.0829   0.0707     N
H       0.6782   0.6766    0.655     H
H       0.6828   0.1875   0.1465     H
C       0.7242   0.6451   0.6352     C
C       0.7277   0.1532   0.1287     C
C       0.7337   0.9714   0.0042     C
C       0.7349   0.4745   0.5009     C
H       0.7468   0.5085   0.8149     H
H       0.7572   0.0082   0.3109     H
H       0.7634   0.1568   0.8648     H
H       0.7678    0.665   0.3701     H
C       0.7681   0.5504   0.5661     C
C       0.7693    0.053   0.0636     C
H       0.7844   0.6241   0.7759     H
H       0.7885   0.1237   0.2732     H
N       0.7914   0.3142    0.874     N
N       0.7937   0.3842    0.853     N
H       0.8003   0.0452   0.9005     H
H       0.8012   0.5506   0.4047     H
N       0.8075   0.8159   0.3695     N
N       0.8085    0.884   0.3474     N
O       0.8144    0.944   0.9873     O
O       0.8149    0.446   0.4853     O
C       0.8302     0.54   0.8225     C
C        0.838    0.167   0.9032     C
C       0.8401   0.0422   0.3202     C
C       0.8441   0.6733   0.4064     C
N       0.8474   0.6654   0.6639     N
N       0.8498   0.1713   0.1595     N
C       0.8534   0.6093   0.7996     C
H       0.8541   0.8182   0.6419     H
H        0.857    0.328   0.1416     H
C       0.8594   0.1109   0.2972     C
C        0.861   0.1009   0.9246     C
C       0.8643   0.6053   0.4278     C
H       0.8737   0.3006   0.4502     H
H       0.8748   0.9322   0.6015     H
C       0.8771   0.6051   0.6208     C
C       0.8779   0.1073   0.1175     C
H       0.8787   0.8029    0.952     H
H       0.8863   0.4407   0.1012     H
H       0.8963   0.1845   0.4844     H
C        0.899   0.3178    0.911     C
C       0.9022   0.4385   0.8755     C
H         0.91   0.6863   0.9825     H
C       0.9142   0.8217   0.4103     C
C       0.9147   0.9423   0.3742     C
O       0.9156   0.3291   0.3002     O
O       0.9157   0.8257   0.8026     O
C       0.9227   0.2477   0.9373     C
C       0.9265    0.517    0.856     C
C       0.9337   0.7517   0.4377     C
C        0.936   0.8561   0.6541     C
C       0.9377    0.022   0.3559     C
C       0.9402   0.3633   0.1529     C
C       0.9469   0.3087   0.4886     C
C       0.9472   0.9237    0.629     C
O       0.9504   0.4412   0.3922     O
O       0.9513   0.9404   0.8926     O
C       0.9532   0.8113   0.9897     C
C       0.9569   0.4305   0.1288     C
C       0.9603   0.2388   0.5082     C
N       0.9643   0.1104   0.9774     N
N       0.9669   0.6557   0.8089     N
N       0.9686   0.6137   0.4793     N
N       0.9704   0.1598   0.3066     N
C        0.971   0.7416   0.0079     C
S       0.9741  0.08491  0.57237     S
S       0.9838  0.59022  0.07338     S
C       0.9882   0.8876    0.859     C
C        0.989     0.39   0.3581     C
Co     0.99993  0.74812  0.75165    Co
