data_I
_chemical_name_common  '/home/zhangsd/repos/MofS-CGCNN/ML/data/TSD/clean_cifs/RESWUI02_clean'
_cell_length_a  8.51390
_cell_length_b 10.21650
_cell_length_c 11.07210
_cell_angle_alpha 64.20800
_cell_angle_beta  71.56300
_cell_angle_gamma 80.75200
_space_group_name_H-M_alt      'P 1'


loop_
_space_group_symop_operation_xyz
  'x, y, z' 

loop_
_atom_site_label
_atom_site_fract_x
_atom_site_fract_y
_atom_site_fract_z
_atom_site_type_symbol
C       0.0036   0.5157   0.8688     C
H       0.0058   0.5264   0.7804     H
O       0.0158   0.8727    0.967     O
C       0.0277   0.6192   0.0194     C
C       0.0314   0.6342   0.8876     C
O       0.0514   0.9893   0.6635     O
H       0.0526   0.7241   0.8121     H
C        0.056   0.7464   0.0427     C
O       0.1216   0.7234   0.1365     O
Er     0.13348  0.93623  0.16231    Er
O       0.1549   0.1226   0.7301     O
O       0.1734   0.7539    0.373     O
C       0.1737   0.0466   0.6613     C
H       0.2233    0.547    0.584     H
H       0.2768    0.885   0.5146     H
C       0.3227   0.7276   0.3213     C
C       0.3353   0.5282   0.5499     C
C       0.3427   0.0212   0.5778     C
H       0.3614   0.3676   0.7312     H
C       0.3663   0.9313   0.5085     C
O        0.395   0.8035    0.194     O
C       0.4152   0.6082   0.4127     C
C       0.4174   0.4204   0.6384     C
H       0.4628   0.1484    0.616     H
C       0.4781   0.0889    0.569     C
C       0.5219   0.9111    0.431     C
H       0.5372   0.8516    0.384     H
C       0.5826   0.5796   0.3616     C
C       0.5848   0.3918   0.5873     C
O        0.605   0.1965    0.806     O
C       0.6337   0.0687   0.4915     C
H       0.6386   0.6324   0.2688     H
C       0.6573   0.9788   0.4222     C
C       0.6647   0.4718   0.4501     C
C       0.6773   0.2724   0.6787     C
H       0.7232    0.115   0.4854     H
H       0.7767    0.453    0.416     H
C       0.8263   0.9534   0.3387     C
O       0.8266   0.2461    0.627     O
O       0.8451   0.8774   0.2699     O
Er     0.86652  0.06377  0.83769    Er
O       0.8784   0.2766   0.8635     O
C        0.944   0.2536   0.9573     C
H       0.9474   0.2759   0.1879     H
O       0.9486   0.0107   0.3365     O
C       0.9686   0.3658   0.1124     C
C       0.9723   0.3808   0.9806     C
O       0.9842   0.1273    0.033     O
H       0.9942   0.4736   0.2196     H
C       0.9964   0.4843   0.1312     C
