data_I
_chemical_name_common  '/home/zhangsd/repos/MofS-CGCNN/ML/data/TSD/clean_cifs/REYCEF_clean'
_cell_length_a  8.00620
_cell_length_b 12.71710
_cell_length_c 12.71710
_cell_angle_alpha 106.16000
_cell_angle_beta  102.60800
_cell_angle_gamma 77.39250
_space_group_name_H-M_alt      'P 1'


loop_
_space_group_symop_operation_xyz
  'x, y, z' 

loop_
_atom_site_label
_atom_site_fract_x
_atom_site_fract_y
_atom_site_fract_z
_atom_site_type_symbol
H       0.0204   0.9174   0.8792     H
H       0.0274   0.7271   0.0391     H
Zn     0.03178    0.543  0.28606    Zn
O       0.0471  0.70359  0.29461     O
C       0.0555  0.88805  0.63735     C
C       0.0578   0.7823   0.0105     C
C       0.0764  0.89062  0.36058     C
C       0.0886   0.0909   0.1131     C
C       0.0962   0.0785   0.6875     C
H       0.0996    0.814   0.6368     H
C       0.1008   0.1577   0.0477     C
O       0.1122  0.48537  0.13713     O
C        0.114  0.08196  0.40904     C
H       0.1145    0.834   0.0722     H
C        0.139  0.76988  0.35972     C
C       0.1622  0.96826  0.68554     C
O       0.1662  0.26895  0.45823     O
H       0.1663   0.1323   0.7209     H
O        0.171   0.7299  0.93052     O
C       0.1814  0.97043  0.41097     C
H       0.2054   0.4454   0.9506     H
H       0.2258   0.9907   0.2119     H
O       0.2286  0.42634   0.7429     O
C       0.2293  0.16728  0.45372     C
C       0.2364   0.0358    0.168     C
C       0.2636    0.168   0.0358     C
C       0.2707  0.45372  0.16728     C
O       0.2714   0.7429  0.42634     O
H       0.2742   0.2119   0.9907     H
H       0.2946   0.9506   0.4454     H
C       0.3186  0.41097  0.97043     C
O        0.329  0.93052   0.7299     O
H       0.3337   0.7209   0.1323     H
O       0.3338  0.45823  0.26895     O
C       0.3378  0.68554  0.96826     C
C        0.361  0.35972  0.76988     C
H       0.3855   0.0722    0.834     H
C        0.386  0.40904  0.08196     C
O       0.3878  0.13713  0.48537     O
C       0.3992   0.0477   0.1577     C
H       0.4004   0.6368    0.814     H
C       0.4038   0.6875   0.0785     C
C       0.4114   0.1131   0.0909     C
C       0.4236  0.36058  0.89062     C
C       0.4422   0.0105   0.7823     C
C       0.4445  0.63735  0.88805     C
O       0.4529  0.29461  0.70359     O
Zn     0.46822  0.28606    0.543    Zn
H       0.4726   0.0391   0.7271     H
H       0.4796   0.8792   0.9174     H
H       0.5204   0.1208   0.0826     H
H       0.5274   0.9609   0.2729     H
Zn     0.53178  0.71394    0.457    Zn
O       0.5471  0.70539  0.29641     O
C       0.5555  0.36265  0.11195     C
C       0.5578   0.9895   0.2177     C
C       0.5764  0.63942  0.10938     C
C       0.5886   0.8869   0.9091     C
C       0.5962   0.3125   0.9215     C
H       0.5996   0.3632    0.186     H
C       0.6008   0.9523   0.8423     C
O       0.6122  0.86287  0.51463     O
C        0.614  0.59096  0.91804     C
H       0.6145   0.9278    0.166     H
C        0.639  0.64028  0.23012     C
C       0.6622  0.31446  0.03174     C
O       0.6662  0.54177  0.73105     O
H       0.6663   0.2791   0.8677     H
O        0.671  0.06948   0.2701     O
C       0.6814  0.58903  0.02957     C
H       0.7054   0.0494   0.5546     H
H       0.7258   0.7881   0.0093     H
O       0.7286   0.2571  0.57366     O
C       0.7293  0.54628  0.83272     C
C       0.7364    0.832   0.9642     C
C       0.7636   0.9642    0.832     C
C       0.7707  0.83272  0.54628     C
O       0.7714  0.57366   0.2571     O
H       0.7742   0.0093   0.7881     H
H       0.7946   0.5546   0.0494     H
C       0.8186  0.02957  0.58903     C
O        0.829   0.2701  0.06948     O
H       0.8337   0.8677   0.2791     H
O       0.8338  0.73105  0.54177     O
C       0.8378  0.03174  0.31446     C
C        0.861  0.23012  0.64028     C
H       0.8855    0.166   0.9278     H
C        0.886  0.91804  0.59096     C
O       0.8878  0.51463  0.86287     O
C       0.8992   0.8423   0.9523     C
H       0.9004    0.186   0.3632     H
C       0.9038   0.9215   0.3125     C
C       0.9114   0.9091   0.8869     C
C       0.9236  0.10938  0.63942     C
C       0.9422   0.2177   0.9895     C
C       0.9445  0.11195  0.36265     C
O       0.9529  0.29641  0.70539     O
Zn     0.96822    0.457  0.71394    Zn
H       0.9726   0.2729   0.9609     H
H       0.9796   0.0826   0.1208     H
