data_I
_chemical_name_common  '/home/zhangsd/repos/MofS-CGCNN/ML/data/TSD/clean_cifs/RIBDEN_clean'
_cell_length_a 10.05230
_cell_length_b 10.05230
_cell_length_c 19.32840
_cell_angle_alpha 90.00000
_cell_angle_beta  90.00000
_cell_angle_gamma 103.95200
_space_group_name_H-M_alt      'P 1'


loop_
_space_group_symop_operation_xyz
  'x, y, z' 

loop_
_atom_site_label
_atom_site_fract_x
_atom_site_fract_y
_atom_site_fract_z
_atom_site_type_symbol
O       0.0057   0.0691  0.68231     O
C       0.0066   0.0066      1.0     C
C       0.0194   0.9564   0.3738     C
C      0.03629  0.06431  0.56139     C
C       0.0436   0.9806   0.1262     C
Co      0.0628  0.19204  0.76825    Co
C      0.06431  0.03629  0.43861     C
O      0.06703  0.15657  0.87642     O
O       0.0691   0.0057  0.31769     O
H       0.0833   0.0833      1.0     H
O      0.09799  0.72653  0.26507     O
C       0.1488   0.1736  0.56105     C
O      0.15657  0.06703  0.12358     O
O      0.15987  0.26335  0.23735     O
H       0.1655   0.5071   0.2504     H
C       0.1736   0.1488  0.43895     C
H       0.1797   0.2195   0.6032     H
Co     0.19204   0.0628  0.23175    Co
C       0.2178   0.2178      0.5     C
H       0.2195   0.1797   0.3968     H
O      0.21981  0.36113  0.74646     O
C       0.2212   0.7788     0.25     C
C       0.2619   0.5435  0.25012     C
O      0.26335  0.15987  0.76265     O
O      0.27347  0.90201  0.23493     O
C       0.2869   0.3055  0.24722     C
C       0.3055   0.2869  0.75278     C
C       0.3155   0.6845     0.25     C
C       0.3393   0.3393      0.5     C
C      0.34995  0.45505  0.24987     C
O      0.36113  0.21981  0.25354     O
O       0.3612    0.409  0.55443     O
O        0.409   0.3612  0.44557     O
H       0.4486   0.5514     0.75     H
C      0.45505  0.34995  0.75013     C
C       0.4565   0.7381  0.24988     C
C       0.4914   0.5086     0.25     C
H       0.4929   0.8345   0.2496     H
H       0.5071   0.1655   0.7496     H
C       0.5086   0.4914     0.75     C
C       0.5435   0.2619  0.74988     C
C      0.54495  0.65005  0.25013     C
H       0.5514   0.4486     0.25     H
O        0.591   0.6388  0.94557     O
O       0.6388    0.591  0.05443     O
O      0.63887  0.78019  0.75354     O
C      0.65005  0.54495  0.74987     C
C       0.6607   0.6607      1.0     C
C       0.6845   0.3155     0.75     C
C       0.6945   0.7131  0.25278     C
C       0.7131   0.6945  0.74722     C
O      0.72653  0.09799  0.73493     O
O      0.73665  0.84013  0.26265     O
C       0.7381   0.4565  0.75012     C
C       0.7788   0.2212     0.75     C
O      0.78019  0.63887  0.24646     O
H       0.7805   0.8203   0.8968     H
C       0.7822   0.7822      0.0     C
Co     0.80796   0.9372  0.73175    Co
H       0.8203   0.7805   0.1032     H
C       0.8264   0.8512  0.93895     C
H       0.8345   0.4929   0.7504     H
O      0.84013  0.73665  0.73735     O
O      0.84343  0.93297  0.62358     O
C       0.8512   0.8264  0.06105     C
O      0.90201  0.27347  0.76507     O
H       0.9167   0.9167      0.5     H
O       0.9309   0.9943  0.81769     O
O      0.93297  0.84343  0.37642     O
C      0.93569  0.96371  0.93861     C
Co      0.9372  0.80796  0.26825    Co
C       0.9564   0.0194   0.6262     C
C      0.96371  0.93569  0.06139     C
C       0.9806   0.0436   0.8738     C
C       0.9934   0.9934      0.5     C
O       0.9943   0.9309  0.18231     O
