data_I
_chemical_name_common  '/home/zhangsd/repos/MofS-CGCNN/ML/data/TSD/clean_cifs/RIFGAQ_clean'
_cell_length_a 26.33680
_cell_length_b 26.33680
_cell_length_c 26.33680
_cell_angle_alpha 90.00000
_cell_angle_beta  90.00000
_cell_angle_gamma 90.00000
_space_group_name_H-M_alt      'P 1'


loop_
_space_group_symop_operation_xyz
  'x, y, z' 

loop_
_atom_site_label
_atom_site_fract_x
_atom_site_fract_y
_atom_site_fract_z
_atom_site_type_symbol
Cu         0.0   0.2146   0.2146    Cu
Cu         0.0   0.2146   0.7854    Cu
Cu         0.0   0.2854   0.2854    Cu
Cu         0.0   0.2854   0.7146    Cu
Cu         0.0   0.7146   0.2854    Cu
Cu         0.0   0.7146   0.7146    Cu
Cu         0.0   0.7854   0.2146    Cu
Cu         0.0   0.7854   0.7854    Cu
O      0.05235  0.18321  0.25697     O
O      0.05235  0.18321  0.74303     O
O      0.05235  0.24303  0.31679     O
O      0.05235  0.24303  0.68321     O
O      0.05235  0.25697  0.18321     O
O      0.05235  0.25697  0.81679     O
O      0.05235  0.31679  0.24303     O
O      0.05235  0.31679  0.75697     O
O      0.05235  0.68321  0.24303     O
O      0.05235  0.68321  0.75697     O
O      0.05235  0.74303  0.18321     O
O      0.05235  0.74303  0.81679     O
O      0.05235  0.75697  0.31679     O
O      0.05235  0.75697  0.68321     O
O      0.05235  0.81679  0.25697     O
O      0.05235  0.81679  0.74303     O
C       0.0686   0.2023   0.2977     C
C       0.0686   0.2023   0.7023     C
C       0.0686   0.2977   0.2023     C
C       0.0686   0.2977   0.7977     C
C       0.0686   0.7023   0.2023     C
C       0.0686   0.7023   0.7977     C
C       0.0686   0.7977   0.2977     C
C       0.0686   0.7977   0.7023     C
C       0.1111   0.1766   0.3234     C
C       0.1111   0.1766   0.6766     C
C       0.1111   0.3234   0.1766     C
C       0.1111   0.3234   0.8234     C
C       0.1111   0.6766   0.1766     C
C       0.1111   0.6766   0.8234     C
C       0.1111   0.8234   0.3234     C
C       0.1111   0.8234   0.6766     C
H       0.1179   0.1179   0.2741     H
H       0.1179   0.1179   0.7259     H
H       0.1179   0.2259   0.3821     H
H       0.1179   0.2259   0.6179     H
H       0.1179   0.2741   0.1179     H
H       0.1179   0.2741   0.8821     H
H       0.1179   0.3821   0.2259     H
H       0.1179   0.3821   0.7741     H
H       0.1179   0.6179   0.2259     H
H       0.1179   0.6179   0.7741     H
H       0.1179   0.7259   0.1179     H
H       0.1179   0.7259   0.8821     H
H       0.1179   0.7741   0.3821     H
H       0.1179   0.7741   0.6179     H
H       0.1179   0.8821   0.2741     H
H       0.1179   0.8821   0.7259     H
C       0.1328   0.1328   0.3024     C
C       0.1328   0.1328   0.6976     C
C       0.1328   0.1976   0.3672     C
C       0.1328   0.1976   0.6328     C
C       0.1328   0.3024   0.1328     C
C       0.1328   0.3024   0.8672     C
C       0.1328   0.3672   0.1976     C
C       0.1328   0.3672   0.8024     C
C       0.1328   0.6328   0.1976     C
C       0.1328   0.6328   0.8024     C
C       0.1328   0.6976   0.1328     C
C       0.1328   0.6976   0.8672     C
C       0.1328   0.8024   0.3672     C
C       0.1328   0.8024   0.6328     C
C       0.1328   0.8672   0.3024     C
C       0.1328   0.8672   0.6976     C
C       0.1766   0.1111   0.3234     C
C       0.1766   0.1111   0.6766     C
C       0.1766   0.1766   0.3889     C
C       0.1766   0.1766   0.6111     C
C       0.1766   0.3234   0.1111     C
C       0.1766   0.3234   0.8889     C
C       0.1766   0.3889   0.1766     C
C       0.1766   0.3889   0.8234     C
C       0.1766   0.6111   0.1766     C
C       0.1766   0.6111   0.8234     C
C       0.1766   0.6766   0.1111     C
C       0.1766   0.6766   0.8889     C
C       0.1766   0.8234   0.3889     C
C       0.1766   0.8234   0.6111     C
C       0.1766   0.8889   0.3234     C
C       0.1766   0.8889   0.6766     C
O      0.18321  0.05235  0.25697     O
O      0.18321  0.05235  0.74303     O
O      0.18321  0.24303  0.44765     O
O      0.18321  0.24303  0.55235     O
O      0.18321  0.25697  0.05235     O
O      0.18321  0.25697  0.94765     O
O      0.18321  0.44765  0.24303     O
O      0.18321  0.44765  0.75697     O
O      0.18321  0.55235  0.24303     O
O      0.18321  0.55235  0.75697     O
O      0.18321  0.74303  0.05235     O
O      0.18321  0.74303  0.94765     O
O      0.18321  0.75697  0.44765     O
O      0.18321  0.75697  0.55235     O
O      0.18321  0.94765  0.25697     O
O      0.18321  0.94765  0.74303     O
C       0.1976   0.1328   0.3672     C
C       0.1976   0.1328   0.6328     C
C       0.1976   0.3672   0.1328     C
C       0.1976   0.3672   0.8672     C
C       0.1976   0.6328   0.1328     C
C       0.1976   0.6328   0.8672     C
C       0.1976   0.8672   0.3672     C
C       0.1976   0.8672   0.6328     C
C       0.2023   0.0686   0.2977     C
C       0.2023   0.0686   0.7023     C
C       0.2023   0.2023   0.4314     C
C       0.2023   0.2023   0.5686     C
C       0.2023   0.2977   0.0686     C
C       0.2023   0.2977   0.9314     C
C       0.2023   0.4314   0.2023     C
C       0.2023   0.4314   0.7977     C
C       0.2023   0.5686   0.2023     C
C       0.2023   0.5686   0.7977     C
C       0.2023   0.7023   0.0686     C
C       0.2023   0.7023   0.9314     C
C       0.2023   0.7977   0.4314     C
C       0.2023   0.7977   0.5686     C
C       0.2023   0.9314   0.2977     C
C       0.2023   0.9314   0.7023     C
Cu      0.2146      0.0   0.2146    Cu
Cu      0.2146      0.0   0.7854    Cu
Cu      0.2146   0.2146      0.0    Cu
Cu      0.2146   0.2854      0.5    Cu
Cu      0.2146      0.5   0.2854    Cu
Cu      0.2146      0.5   0.7146    Cu
Cu      0.2146   0.7146      0.5    Cu
Cu      0.2146   0.7854      0.0    Cu
H       0.2259   0.1179   0.3821     H
H       0.2259   0.1179   0.6179     H
H       0.2259   0.3821   0.1179     H
H       0.2259   0.3821   0.8821     H
H       0.2259   0.6179   0.1179     H
H       0.2259   0.6179   0.8821     H
H       0.2259   0.8821   0.3821     H
H       0.2259   0.8821   0.6179     H
O      0.24303  0.05235  0.31679     O
O      0.24303  0.05235  0.68321     O
O      0.24303  0.18321  0.44765     O
O      0.24303  0.18321  0.55235     O
O      0.24303  0.31679  0.05235     O
O      0.24303  0.31679  0.94765     O
O      0.24303  0.44765  0.18321     O
O      0.24303  0.44765  0.81679     O
O      0.24303  0.55235  0.18321     O
O      0.24303  0.55235  0.81679     O
O      0.24303  0.68321  0.05235     O
O      0.24303  0.68321  0.94765     O
O      0.24303  0.81679  0.44765     O
O      0.24303  0.81679  0.55235     O
O      0.24303  0.94765  0.31679     O
O      0.24303  0.94765  0.68321     O
O      0.25697  0.05235  0.18321     O
O      0.25697  0.05235  0.81679     O
O      0.25697  0.18321  0.05235     O
O      0.25697  0.18321  0.94765     O
O      0.25697  0.31679  0.44765     O
O      0.25697  0.31679  0.55235     O
O      0.25697  0.44765  0.31679     O
O      0.25697  0.44765  0.68321     O
O      0.25697  0.55235  0.31679     O
O      0.25697  0.55235  0.68321     O
O      0.25697  0.68321  0.44765     O
O      0.25697  0.68321  0.55235     O
O      0.25697  0.81679  0.05235     O
O      0.25697  0.81679  0.94765     O
O      0.25697  0.94765  0.18321     O
O      0.25697  0.94765  0.81679     O
H       0.2741   0.1179   0.1179     H
H       0.2741   0.1179   0.8821     H
H       0.2741   0.3821   0.3821     H
H       0.2741   0.3821   0.6179     H
H       0.2741   0.6179   0.3821     H
H       0.2741   0.6179   0.6179     H
H       0.2741   0.8821   0.1179     H
H       0.2741   0.8821   0.8821     H
Cu      0.2854      0.0   0.2854    Cu
Cu      0.2854      0.0   0.7146    Cu
Cu      0.2854   0.2146      0.5    Cu
Cu      0.2854   0.2854      0.0    Cu
Cu      0.2854      0.5   0.2146    Cu
Cu      0.2854      0.5   0.7854    Cu
Cu      0.2854   0.7146      0.0    Cu
Cu      0.2854   0.7854      0.5    Cu
C       0.2977   0.0686   0.2023     C
C       0.2977   0.0686   0.7977     C
C       0.2977   0.2023   0.0686     C
C       0.2977   0.2023   0.9314     C
C       0.2977   0.2977   0.4314     C
C       0.2977   0.2977   0.5686     C
C       0.2977   0.4314   0.2977     C
C       0.2977   0.4314   0.7023     C
C       0.2977   0.5686   0.2977     C
C       0.2977   0.5686   0.7023     C
C       0.2977   0.7023   0.4314     C
C       0.2977   0.7023   0.5686     C
C       0.2977   0.7977   0.0686     C
C       0.2977   0.7977   0.9314     C
C       0.2977   0.9314   0.2023     C
C       0.2977   0.9314   0.7977     C
C       0.3024   0.1328   0.1328     C
C       0.3024   0.1328   0.8672     C
C       0.3024   0.3672   0.3672     C
C       0.3024   0.3672   0.6328     C
C       0.3024   0.6328   0.3672     C
C       0.3024   0.6328   0.6328     C
C       0.3024   0.8672   0.1328     C
C       0.3024   0.8672   0.8672     C
O      0.31679  0.05235  0.24303     O
O      0.31679  0.05235  0.75697     O
O      0.31679  0.24303  0.05235     O
O      0.31679  0.24303  0.94765     O
O      0.31679  0.25697  0.44765     O
O      0.31679  0.25697  0.55235     O
O      0.31679  0.44765  0.25697     O
O      0.31679  0.44765  0.74303     O
O      0.31679  0.55235  0.25697     O
O      0.31679  0.55235  0.74303     O
O      0.31679  0.74303  0.44765     O
O      0.31679  0.74303  0.55235     O
O      0.31679  0.75697  0.05235     O
O      0.31679  0.75697  0.94765     O
O      0.31679  0.94765  0.24303     O
O      0.31679  0.94765  0.75697     O
C       0.3234   0.1111   0.1766     C
C       0.3234   0.1111   0.8234     C
C       0.3234   0.1766   0.1111     C
C       0.3234   0.1766   0.8889     C
C       0.3234   0.3234   0.3889     C
C       0.3234   0.3234   0.6111     C
C       0.3234   0.3889   0.3234     C
C       0.3234   0.3889   0.6766     C
C       0.3234   0.6111   0.3234     C
C       0.3234   0.6111   0.6766     C
C       0.3234   0.6766   0.3889     C
C       0.3234   0.6766   0.6111     C
C       0.3234   0.8234   0.1111     C
C       0.3234   0.8234   0.8889     C
C       0.3234   0.8889   0.1766     C
C       0.3234   0.8889   0.8234     C
C       0.3672   0.1328   0.1976     C
C       0.3672   0.1328   0.8024     C
C       0.3672   0.1976   0.1328     C
C       0.3672   0.1976   0.8672     C
C       0.3672   0.3024   0.3672     C
C       0.3672   0.3024   0.6328     C
C       0.3672   0.3672   0.3024     C
C       0.3672   0.3672   0.6976     C
C       0.3672   0.6328   0.3024     C
C       0.3672   0.6328   0.6976     C
C       0.3672   0.6976   0.3672     C
C       0.3672   0.6976   0.6328     C
C       0.3672   0.8024   0.1328     C
C       0.3672   0.8024   0.8672     C
C       0.3672   0.8672   0.1976     C
C       0.3672   0.8672   0.8024     C
H       0.3821   0.1179   0.2259     H
H       0.3821   0.1179   0.7741     H
H       0.3821   0.2259   0.1179     H
H       0.3821   0.2259   0.8821     H
H       0.3821   0.2741   0.3821     H
H       0.3821   0.2741   0.6179     H
H       0.3821   0.3821   0.2741     H
H       0.3821   0.3821   0.7259     H
H       0.3821   0.6179   0.2741     H
H       0.3821   0.6179   0.7259     H
H       0.3821   0.7259   0.3821     H
H       0.3821   0.7259   0.6179     H
H       0.3821   0.7741   0.1179     H
H       0.3821   0.7741   0.8821     H
H       0.3821   0.8821   0.2259     H
H       0.3821   0.8821   0.7741     H
C       0.3889   0.1766   0.1766     C
C       0.3889   0.1766   0.8234     C
C       0.3889   0.3234   0.3234     C
C       0.3889   0.3234   0.6766     C
C       0.3889   0.6766   0.3234     C
C       0.3889   0.6766   0.6766     C
C       0.3889   0.8234   0.1766     C
C       0.3889   0.8234   0.8234     C
C       0.4314   0.2023   0.2023     C
C       0.4314   0.2023   0.7977     C
C       0.4314   0.2977   0.2977     C
C       0.4314   0.2977   0.7023     C
C       0.4314   0.7023   0.2977     C
C       0.4314   0.7023   0.7023     C
C       0.4314   0.7977   0.2023     C
C       0.4314   0.7977   0.7977     C
O      0.44765  0.18321  0.24303     O
O      0.44765  0.18321  0.75697     O
O      0.44765  0.24303  0.18321     O
O      0.44765  0.24303  0.81679     O
O      0.44765  0.25697  0.31679     O
O      0.44765  0.25697  0.68321     O
O      0.44765  0.31679  0.25697     O
O      0.44765  0.31679  0.74303     O
O      0.44765  0.68321  0.25697     O
O      0.44765  0.68321  0.74303     O
O      0.44765  0.74303  0.31679     O
O      0.44765  0.74303  0.68321     O
O      0.44765  0.75697  0.18321     O
O      0.44765  0.75697  0.81679     O
O      0.44765  0.81679  0.24303     O
O      0.44765  0.81679  0.75697     O
Cu         0.5   0.2146   0.2854    Cu
Cu         0.5   0.2146   0.7146    Cu
Cu         0.5   0.2854   0.2146    Cu
Cu         0.5   0.2854   0.7854    Cu
Cu         0.5   0.7146   0.2146    Cu
Cu         0.5   0.7146   0.7854    Cu
Cu         0.5   0.7854   0.2854    Cu
Cu         0.5   0.7854   0.7146    Cu
O      0.55235  0.18321  0.24303     O
O      0.55235  0.18321  0.75697     O
O      0.55235  0.24303  0.18321     O
O      0.55235  0.24303  0.81679     O
O      0.55235  0.25697  0.31679     O
O      0.55235  0.25697  0.68321     O
O      0.55235  0.31679  0.25697     O
O      0.55235  0.31679  0.74303     O
O      0.55235  0.68321  0.25697     O
O      0.55235  0.68321  0.74303     O
O      0.55235  0.74303  0.31679     O
O      0.55235  0.74303  0.68321     O
O      0.55235  0.75697  0.18321     O
O      0.55235  0.75697  0.81679     O
O      0.55235  0.81679  0.24303     O
O      0.55235  0.81679  0.75697     O
C       0.5686   0.2023   0.2023     C
C       0.5686   0.2023   0.7977     C
C       0.5686   0.2977   0.2977     C
C       0.5686   0.2977   0.7023     C
C       0.5686   0.7023   0.2977     C
C       0.5686   0.7023   0.7023     C
C       0.5686   0.7977   0.2023     C
C       0.5686   0.7977   0.7977     C
C       0.6111   0.1766   0.1766     C
C       0.6111   0.1766   0.8234     C
C       0.6111   0.3234   0.3234     C
C       0.6111   0.3234   0.6766     C
C       0.6111   0.6766   0.3234     C
C       0.6111   0.6766   0.6766     C
C       0.6111   0.8234   0.1766     C
C       0.6111   0.8234   0.8234     C
H       0.6179   0.1179   0.2259     H
H       0.6179   0.1179   0.7741     H
H       0.6179   0.2259   0.1179     H
H       0.6179   0.2259   0.8821     H
H       0.6179   0.2741   0.3821     H
H       0.6179   0.2741   0.6179     H
H       0.6179   0.3821   0.2741     H
H       0.6179   0.3821   0.7259     H
H       0.6179   0.6179   0.2741     H
H       0.6179   0.6179   0.7259     H
H       0.6179   0.7259   0.3821     H
H       0.6179   0.7259   0.6179     H
H       0.6179   0.7741   0.1179     H
H       0.6179   0.7741   0.8821     H
H       0.6179   0.8821   0.2259     H
H       0.6179   0.8821   0.7741     H
C       0.6328   0.1328   0.1976     C
C       0.6328   0.1328   0.8024     C
C       0.6328   0.1976   0.1328     C
C       0.6328   0.1976   0.8672     C
C       0.6328   0.3024   0.3672     C
C       0.6328   0.3024   0.6328     C
C       0.6328   0.3672   0.3024     C
C       0.6328   0.3672   0.6976     C
C       0.6328   0.6328   0.3024     C
C       0.6328   0.6328   0.6976     C
C       0.6328   0.6976   0.3672     C
C       0.6328   0.6976   0.6328     C
C       0.6328   0.8024   0.1328     C
C       0.6328   0.8024   0.8672     C
C       0.6328   0.8672   0.1976     C
C       0.6328   0.8672   0.8024     C
C       0.6766   0.1111   0.1766     C
C       0.6766   0.1111   0.8234     C
C       0.6766   0.1766   0.1111     C
C       0.6766   0.1766   0.8889     C
C       0.6766   0.3234   0.3889     C
C       0.6766   0.3234   0.6111     C
C       0.6766   0.3889   0.3234     C
C       0.6766   0.3889   0.6766     C
C       0.6766   0.6111   0.3234     C
C       0.6766   0.6111   0.6766     C
C       0.6766   0.6766   0.3889     C
C       0.6766   0.6766   0.6111     C
C       0.6766   0.8234   0.1111     C
C       0.6766   0.8234   0.8889     C
C       0.6766   0.8889   0.1766     C
C       0.6766   0.8889   0.8234     C
O      0.68321  0.05235  0.24303     O
O      0.68321  0.05235  0.75697     O
O      0.68321  0.24303  0.05235     O
O      0.68321  0.24303  0.94765     O
O      0.68321  0.25697  0.44765     O
O      0.68321  0.25697  0.55235     O
O      0.68321  0.44765  0.25697     O
O      0.68321  0.44765  0.74303     O
O      0.68321  0.55235  0.25697     O
O      0.68321  0.55235  0.74303     O
O      0.68321  0.74303  0.44765     O
O      0.68321  0.74303  0.55235     O
O      0.68321  0.75697  0.05235     O
O      0.68321  0.75697  0.94765     O
O      0.68321  0.94765  0.24303     O
O      0.68321  0.94765  0.75697     O
C       0.6976   0.1328   0.1328     C
C       0.6976   0.1328   0.8672     C
C       0.6976   0.3672   0.3672     C
C       0.6976   0.3672   0.6328     C
C       0.6976   0.6328   0.3672     C
C       0.6976   0.6328   0.6328     C
C       0.6976   0.8672   0.1328     C
C       0.6976   0.8672   0.8672     C
C       0.7023   0.0686   0.2023     C
C       0.7023   0.0686   0.7977     C
C       0.7023   0.2023   0.0686     C
C       0.7023   0.2023   0.9314     C
C       0.7023   0.2977   0.4314     C
C       0.7023   0.2977   0.5686     C
C       0.7023   0.4314   0.2977     C
C       0.7023   0.4314   0.7023     C
C       0.7023   0.5686   0.2977     C
C       0.7023   0.5686   0.7023     C
C       0.7023   0.7023   0.4314     C
C       0.7023   0.7023   0.5686     C
C       0.7023   0.7977   0.0686     C
C       0.7023   0.7977   0.9314     C
C       0.7023   0.9314   0.2023     C
C       0.7023   0.9314   0.7977     C
Cu      0.7146      0.0   0.2854    Cu
Cu      0.7146      0.0   0.7146    Cu
Cu      0.7146   0.2146      0.5    Cu
Cu      0.7146   0.2854      0.0    Cu
Cu      0.7146      0.5   0.2146    Cu
Cu      0.7146      0.5   0.7854    Cu
Cu      0.7146   0.7146      0.0    Cu
Cu      0.7146   0.7854      0.5    Cu
H       0.7259   0.1179   0.1179     H
H       0.7259   0.1179   0.8821     H
H       0.7259   0.3821   0.3821     H
H       0.7259   0.3821   0.6179     H
H       0.7259   0.6179   0.3821     H
H       0.7259   0.6179   0.6179     H
H       0.7259   0.8821   0.1179     H
H       0.7259   0.8821   0.8821     H
O      0.74303  0.05235  0.18321     O
O      0.74303  0.05235  0.81679     O
O      0.74303  0.18321  0.05235     O
O      0.74303  0.18321  0.94765     O
O      0.74303  0.31679  0.44765     O
O      0.74303  0.31679  0.55235     O
O      0.74303  0.44765  0.31679     O
O      0.74303  0.44765  0.68321     O
O      0.74303  0.55235  0.31679     O
O      0.74303  0.55235  0.68321     O
O      0.74303  0.68321  0.44765     O
O      0.74303  0.68321  0.55235     O
O      0.74303  0.81679  0.05235     O
O      0.74303  0.81679  0.94765     O
O      0.74303  0.94765  0.18321     O
O      0.74303  0.94765  0.81679     O
O      0.75697  0.05235  0.31679     O
O      0.75697  0.05235  0.68321     O
O      0.75697  0.18321  0.44765     O
O      0.75697  0.18321  0.55235     O
O      0.75697  0.31679  0.05235     O
O      0.75697  0.31679  0.94765     O
O      0.75697  0.44765  0.18321     O
O      0.75697  0.44765  0.81679     O
O      0.75697  0.55235  0.18321     O
O      0.75697  0.55235  0.81679     O
O      0.75697  0.68321  0.05235     O
O      0.75697  0.68321  0.94765     O
O      0.75697  0.81679  0.44765     O
O      0.75697  0.81679  0.55235     O
O      0.75697  0.94765  0.31679     O
O      0.75697  0.94765  0.68321     O
H       0.7741   0.1179   0.3821     H
H       0.7741   0.1179   0.6179     H
H       0.7741   0.3821   0.1179     H
H       0.7741   0.3821   0.8821     H
H       0.7741   0.6179   0.1179     H
H       0.7741   0.6179   0.8821     H
H       0.7741   0.8821   0.3821     H
H       0.7741   0.8821   0.6179     H
Cu      0.7854      0.0   0.2146    Cu
Cu      0.7854      0.0   0.7854    Cu
Cu      0.7854   0.2146      0.0    Cu
Cu      0.7854   0.2854      0.5    Cu
Cu      0.7854      0.5   0.2854    Cu
Cu      0.7854      0.5   0.7146    Cu
Cu      0.7854   0.7146      0.5    Cu
Cu      0.7854   0.7854      0.0    Cu
C       0.7977   0.0686   0.2977     C
C       0.7977   0.0686   0.7023     C
C       0.7977   0.2023   0.4314     C
C       0.7977   0.2023   0.5686     C
C       0.7977   0.2977   0.0686     C
C       0.7977   0.2977   0.9314     C
C       0.7977   0.4314   0.2023     C
C       0.7977   0.4314   0.7977     C
C       0.7977   0.5686   0.2023     C
C       0.7977   0.5686   0.7977     C
C       0.7977   0.7023   0.0686     C
C       0.7977   0.7023   0.9314     C
C       0.7977   0.7977   0.4314     C
C       0.7977   0.7977   0.5686     C
C       0.7977   0.9314   0.2977     C
C       0.7977   0.9314   0.7023     C
C       0.8024   0.1328   0.3672     C
C       0.8024   0.1328   0.6328     C
C       0.8024   0.3672   0.1328     C
C       0.8024   0.3672   0.8672     C
C       0.8024   0.6328   0.1328     C
C       0.8024   0.6328   0.8672     C
C       0.8024   0.8672   0.3672     C
C       0.8024   0.8672   0.6328     C
O      0.81679  0.05235  0.25697     O
O      0.81679  0.05235  0.74303     O
O      0.81679  0.24303  0.44765     O
O      0.81679  0.24303  0.55235     O
O      0.81679  0.25697  0.05235     O
O      0.81679  0.25697  0.94765     O
O      0.81679  0.44765  0.24303     O
O      0.81679  0.44765  0.75697     O
O      0.81679  0.55235  0.24303     O
O      0.81679  0.55235  0.75697     O
O      0.81679  0.74303  0.05235     O
O      0.81679  0.74303  0.94765     O
O      0.81679  0.75697  0.44765     O
O      0.81679  0.75697  0.55235     O
O      0.81679  0.94765  0.25697     O
O      0.81679  0.94765  0.74303     O
C       0.8234   0.1111   0.3234     C
C       0.8234   0.1111   0.6766     C
C       0.8234   0.1766   0.3889     C
C       0.8234   0.1766   0.6111     C
C       0.8234   0.3234   0.1111     C
C       0.8234   0.3234   0.8889     C
C       0.8234   0.3889   0.1766     C
C       0.8234   0.3889   0.8234     C
C       0.8234   0.6111   0.1766     C
C       0.8234   0.6111   0.8234     C
C       0.8234   0.6766   0.1111     C
C       0.8234   0.6766   0.8889     C
C       0.8234   0.8234   0.3889     C
C       0.8234   0.8234   0.6111     C
C       0.8234   0.8889   0.3234     C
C       0.8234   0.8889   0.6766     C
C       0.8672   0.1328   0.3024     C
C       0.8672   0.1328   0.6976     C
C       0.8672   0.1976   0.3672     C
C       0.8672   0.1976   0.6328     C
C       0.8672   0.3024   0.1328     C
C       0.8672   0.3024   0.8672     C
C       0.8672   0.3672   0.1976     C
C       0.8672   0.3672   0.8024     C
C       0.8672   0.6328   0.1976     C
C       0.8672   0.6328   0.8024     C
C       0.8672   0.6976   0.1328     C
C       0.8672   0.6976   0.8672     C
C       0.8672   0.8024   0.3672     C
C       0.8672   0.8024   0.6328     C
C       0.8672   0.8672   0.3024     C
C       0.8672   0.8672   0.6976     C
H       0.8821   0.1179   0.2741     H
H       0.8821   0.1179   0.7259     H
H       0.8821   0.2259   0.3821     H
H       0.8821   0.2259   0.6179     H
H       0.8821   0.2741   0.1179     H
H       0.8821   0.2741   0.8821     H
H       0.8821   0.3821   0.2259     H
H       0.8821   0.3821   0.7741     H
H       0.8821   0.6179   0.2259     H
H       0.8821   0.6179   0.7741     H
H       0.8821   0.7259   0.1179     H
H       0.8821   0.7259   0.8821     H
H       0.8821   0.7741   0.3821     H
H       0.8821   0.7741   0.6179     H
H       0.8821   0.8821   0.2741     H
H       0.8821   0.8821   0.7259     H
C       0.8889   0.1766   0.3234     C
C       0.8889   0.1766   0.6766     C
C       0.8889   0.3234   0.1766     C
C       0.8889   0.3234   0.8234     C
C       0.8889   0.6766   0.1766     C
C       0.8889   0.6766   0.8234     C
C       0.8889   0.8234   0.3234     C
C       0.8889   0.8234   0.6766     C
C       0.9314   0.2023   0.2977     C
C       0.9314   0.2023   0.7023     C
C       0.9314   0.2977   0.2023     C
C       0.9314   0.2977   0.7977     C
C       0.9314   0.7023   0.2023     C
C       0.9314   0.7023   0.7977     C
C       0.9314   0.7977   0.2977     C
C       0.9314   0.7977   0.7023     C
O      0.94765  0.18321  0.25697     O
O      0.94765  0.18321  0.74303     O
O      0.94765  0.24303  0.31679     O
O      0.94765  0.24303  0.68321     O
O      0.94765  0.25697  0.18321     O
O      0.94765  0.25697  0.81679     O
O      0.94765  0.31679  0.24303     O
O      0.94765  0.31679  0.75697     O
O      0.94765  0.68321  0.24303     O
O      0.94765  0.68321  0.75697     O
O      0.94765  0.74303  0.18321     O
O      0.94765  0.74303  0.81679     O
O      0.94765  0.75697  0.31679     O
O      0.94765  0.75697  0.68321     O
O      0.94765  0.81679  0.25697     O
O      0.94765  0.81679  0.74303     O
