data_I
_chemical_name_common  '/home/zhangsd/repos/MofS-CGCNN/ML/data/TSD/clean_cifs/RIPKIM01_clean'
_cell_length_a 29.13500
_cell_length_b 13.19100
_cell_length_c  8.59900
_cell_angle_alpha 90.00000
_cell_angle_beta  90.24700
_cell_angle_gamma 90.00000
_space_group_name_H-M_alt      'P 1'


loop_
_space_group_symop_operation_xyz
  'x, y, z' 

loop_
_atom_site_label
_atom_site_fract_x
_atom_site_fract_y
_atom_site_fract_z
_atom_site_type_symbol
N      0.01816   0.4735    0.536     N
N      0.01816   0.5265    0.036     N
H       0.0213   0.3327   0.0485     H
H       0.0213   0.6673   0.5485     H
H       0.0471   0.3345   0.2089     H
H       0.0471   0.6655   0.7089     H
C      0.04784   0.3575   0.1031     C
C      0.04784   0.6425   0.6031     C
C      0.04798   0.4696   0.0999     C
C      0.04798   0.5304   0.5999     C
H       0.0662    0.334    0.633     H
H       0.0662    0.666    0.133     H
H       0.0751   0.3324   0.0537     H
H       0.0751   0.6676   0.5537     H
C       0.0861   0.4758   0.6789     C
C       0.0861   0.5242   0.1789     C
C      0.08851   0.3725   0.6833     C
C      0.08851   0.6275   0.1833     C
C      0.12142   0.4729   0.2525     C
C      0.12142   0.5271   0.7525     C
H       0.1222   0.4025   0.2507     H
H       0.1222   0.5975   0.7507     H
C      0.12354   0.3254   0.7612     C
C      0.12354   0.6746   0.2612     C
H       0.1239   0.2549   0.7627     H
H       0.1239   0.7451   0.2627     H
H       0.1555   0.2071   0.4003     H
H       0.1555   0.7929   0.9003     H
C      0.15553   0.4738   0.8284     C
C      0.15553   0.5262   0.3284     C
N       0.1569   0.3736   0.8345     N
N       0.1569   0.6264   0.3345     N
H       0.1622   0.0144   0.3655     H
H       0.1622   0.9856   0.8655     H
H       0.1787   0.4898   0.3779     H
H       0.1787   0.5102   0.8779     H
O       0.1873   0.2778     0.16     O
O       0.1873   0.7222     0.66     O
C      0.18851     0.21   0.4152     C
C      0.18851     0.79   0.9152     C
H       0.1903   0.0981   0.5825     H
H       0.1903   0.9019   0.0825     H
O      0.19042   0.1567   0.9037     O
O      0.19042   0.8433   0.4037     O
H       0.1951   0.2642   0.4882     H
H       0.1951   0.7358   0.9882     H
C      0.19527    0.021   0.3764     C
C      0.19527    0.979   0.8764     C
C      0.20519   0.1095   0.4834     C
C      0.20519   0.8905   0.9834     C
H       0.2075   0.0367   0.2744     H
H       0.2075   0.9633   0.7744     H
C      0.21112   0.2334    0.262     C
C      0.21112   0.7666    0.762     C
Cu     0.21255  0.29518  0.94934    Cu
Cu     0.21255  0.70482  0.44934    Cu
C      0.21454   0.0808   0.9275     C
C      0.21454   0.9192   0.4275     C
H        0.238   0.1135   0.5022     H
H        0.238   0.8865   0.0022     H
O      0.24615   0.4188   0.0145     O
O      0.24615   0.5812   0.5145     O
O      0.24807    0.293   0.7542     O
O      0.24807    0.707   0.2542     O
O      0.25193    0.207   0.2458     O
O      0.25193    0.793   0.7458     O
O      0.25385   0.0812   0.9855     O
O      0.25385   0.9188   0.4855     O
H        0.262   0.3865   0.4978     H
H        0.262   0.6135   0.9978     H
C      0.28546   0.4192   0.0725     C
C      0.28546   0.5808   0.5725     C
Cu     0.28745  0.20482  0.05066    Cu
Cu     0.28745  0.79518  0.55066    Cu
C      0.28888   0.2666    0.738     C
C      0.28888   0.7334    0.238     C
H       0.2925   0.4633   0.7256     H
H       0.2925   0.5367   0.2256     H
C      0.29481   0.3905   0.5166     C
C      0.29481   0.6095   0.0166     C
C      0.30473    0.479   0.6236     C
C      0.30473    0.521   0.1236     C
H       0.3049   0.2358   0.5118     H
H       0.3049   0.7642   0.0118     H
O      0.30958   0.3433   0.0963     O
O      0.30958   0.6567   0.5963     O
H       0.3097   0.4019   0.4175     H
H       0.3097   0.5981   0.9175     H
C      0.31149     0.29   0.5848     C
C      0.31149     0.71   0.0848     C
O       0.3127   0.2222     0.84     O
O       0.3127   0.7778     0.34     O
H       0.3213   0.0102   0.6221     H
H       0.3213   0.9898   0.1221     H
H       0.3378   0.4856   0.6345     H
H       0.3378   0.5144   0.1345     H
N       0.3431   0.1264   0.1655     N
N       0.3431   0.8736   0.6655     N
C      0.34447   0.0262   0.1716     C
C      0.34447   0.9738   0.6716     C
H       0.3445   0.2929   0.5997     H
H       0.3445   0.7071   0.0997     H
H       0.3761   0.2451   0.2373     H
H       0.3761   0.7549   0.7373     H
C      0.37646   0.1746   0.2388     C
C      0.37646   0.8254   0.7388     C
H       0.3778   0.0975   0.7493     H
H       0.3778   0.9025   0.2493     H
C      0.37858   0.0271   0.7475     C
C      0.37858   0.9729   0.2475     C
C      0.41149   0.1275   0.3167     C
C      0.41149   0.8725   0.8167     C
C       0.4139   0.0242   0.3211     C
C       0.4139   0.9758   0.8211     C
H       0.4249   0.1676   0.9463     H
H       0.4249   0.8324   0.4463     H
H       0.4338    0.166    0.367     H
H       0.4338    0.834    0.867     H
C      0.45202   0.0304   0.9001     C
C      0.45202   0.9696   0.4001     C
C      0.45216   0.1425   0.8969     C
C      0.45216   0.8575   0.3969     C
H       0.4529   0.1655   0.7911     H
H       0.4529   0.8345   0.2911     H
H       0.4787   0.1673   0.9515     H
H       0.4787   0.8327   0.4515     H
N      0.48184   0.0265    0.464     N
N      0.48184   0.9735    0.964     N
N      0.51816   0.0265    0.036     N
N      0.51816   0.9735    0.536     N
H       0.5213   0.1673   0.5485     H
H       0.5213   0.8327   0.0485     H
H       0.5471   0.1655   0.7089     H
H       0.5471   0.8345   0.2089     H
C      0.54784   0.1425   0.6031     C
C      0.54784   0.8575   0.1031     C
C      0.54798   0.0304   0.5999     C
C      0.54798   0.9696   0.0999     C
H       0.5662    0.166    0.133     H
H       0.5662    0.834    0.633     H
H       0.5751   0.1676   0.5537     H
H       0.5751   0.8324   0.0537     H
C       0.5861   0.0242   0.1789     C
C       0.5861   0.9758   0.6789     C
C      0.58851   0.1275   0.1833     C
C      0.58851   0.8725   0.6833     C
C      0.62142   0.0271   0.7525     C
C      0.62142   0.9729   0.2525     C
H       0.6222   0.0975   0.7507     H
H       0.6222   0.9025   0.2507     H
C      0.62354   0.1746   0.2612     C
C      0.62354   0.8254   0.7612     C
H       0.6239   0.2451   0.2627     H
H       0.6239   0.7549   0.7627     H
H       0.6555   0.2929   0.9003     H
H       0.6555   0.7071   0.4003     H
C      0.65553   0.0262   0.3284     C
C      0.65553   0.9738   0.8284     C
N       0.6569   0.1264   0.3345     N
N       0.6569   0.8736   0.8345     N
H       0.6622   0.4856   0.8655     H
H       0.6622   0.5144   0.3655     H
H       0.6787   0.0102   0.8779     H
H       0.6787   0.9898   0.3779     H
O       0.6873   0.2222     0.66     O
O       0.6873   0.7778     0.16     O
C      0.68851     0.29   0.9152     C
C      0.68851     0.71   0.4152     C
H       0.6903   0.4019   0.0825     H
H       0.6903   0.5981   0.5825     H
O      0.69042   0.3433   0.4037     O
O      0.69042   0.6567   0.9037     O
H       0.6951   0.2358   0.9882     H
H       0.6951   0.7642   0.4882     H
C      0.69527    0.479   0.8764     C
C      0.69527    0.521   0.3764     C
C      0.70519   0.3905   0.9834     C
C      0.70519   0.6095   0.4834     C
H       0.7075   0.4633   0.7744     H
H       0.7075   0.5367   0.2744     H
C      0.71112   0.2666    0.762     C
C      0.71112   0.7334    0.262     C
Cu     0.71255  0.20482  0.44934    Cu
Cu     0.71255  0.79518  0.94934    Cu
C      0.71454   0.4192   0.4275     C
C      0.71454   0.5808   0.9275     C
H        0.738   0.3865   0.0022     H
H        0.738   0.6135   0.5022     H
O      0.74615   0.0812   0.5145     O
O      0.74615   0.9188   0.0145     O
O      0.74807    0.207   0.2542     O
O      0.74807    0.793   0.7542     O
O      0.75193    0.293   0.7458     O
O      0.75193    0.707   0.2458     O
O      0.75385   0.4188   0.4855     O
O      0.75385   0.5812   0.9855     O
H        0.762   0.1135   0.9978     H
H        0.762   0.8865   0.4978     H
C      0.78546   0.0808   0.5725     C
C      0.78546   0.9192   0.0725     C
Cu     0.78745  0.29518  0.55066    Cu
Cu     0.78745  0.70482  0.05066    Cu
C      0.78888   0.2334    0.238     C
C      0.78888   0.7666    0.738     C
H       0.7925   0.0367   0.2256     H
H       0.7925   0.9633   0.7256     H
C      0.79481   0.1095   0.0166     C
C      0.79481   0.8905   0.5166     C
C      0.80473    0.021   0.1236     C
C      0.80473    0.979   0.6236     C
H       0.8049   0.2642   0.0118     H
H       0.8049   0.7358   0.5118     H
O      0.80958   0.1567   0.5963     O
O      0.80958   0.8433   0.0963     O
H       0.8097   0.0981   0.9175     H
H       0.8097   0.9019   0.4175     H
C      0.81149     0.21   0.0848     C
C      0.81149     0.79   0.5848     C
O       0.8127   0.2778     0.34     O
O       0.8127   0.7222     0.84     O
H       0.8213   0.4898   0.1221     H
H       0.8213   0.5102   0.6221     H
H       0.8378   0.0144   0.1345     H
H       0.8378   0.9856   0.6345     H
N       0.8431   0.3736   0.6655     N
N       0.8431   0.6264   0.1655     N
C      0.84447   0.4738   0.6716     C
C      0.84447   0.5262   0.1716     C
H       0.8445   0.2071   0.0997     H
H       0.8445   0.7929   0.5997     H
H       0.8761   0.2549   0.7373     H
H       0.8761   0.7451   0.2373     H
C      0.87646   0.3254   0.7388     C
C      0.87646   0.6746   0.2388     C
H       0.8778   0.4025   0.2493     H
H       0.8778   0.5975   0.7493     H
C      0.87858   0.4729   0.2475     C
C      0.87858   0.5271   0.7475     C
C      0.91149   0.3725   0.8167     C
C      0.91149   0.6275   0.3167     C
C       0.9139   0.4758   0.8211     C
C       0.9139   0.5242   0.3211     C
H       0.9249   0.3324   0.4463     H
H       0.9249   0.6676   0.9463     H
H       0.9338    0.334    0.867     H
H       0.9338    0.666    0.367     H
C      0.95202   0.4696   0.4001     C
C      0.95202   0.5304   0.9001     C
C      0.95216   0.3575   0.3969     C
C      0.95216   0.6425   0.8969     C
H       0.9529   0.3345   0.2911     H
H       0.9529   0.6655   0.7911     H
H       0.9787   0.3327   0.4515     H
H       0.9787   0.6673   0.9515     H
N      0.98184   0.4735    0.964     N
N      0.98184   0.5265    0.464     N
