data_I
_chemical_name_common  '/home/zhangsd/repos/MofS-CGCNN/ML/data/TSD/clean_cifs/RIPWIY_clean'
_cell_length_a 29.03540
_cell_length_b 22.13780
_cell_length_c 24.55830
_cell_angle_alpha 90.00000
_cell_angle_beta  108.98700
_cell_angle_gamma 90.00000
_space_group_name_H-M_alt      'P 1'


loop_
_space_group_symop_operation_xyz
  'x, y, z' 

loop_
_atom_site_label
_atom_site_fract_x
_atom_site_fract_y
_atom_site_fract_z
_atom_site_type_symbol
P          0.0   0.1164     0.75     P
P          0.0   0.8836     0.25     P
O       0.0031   0.1906   0.5993     O
O       0.0031   0.8094   0.0993     O
O       0.0075    0.073   0.4812     O
O       0.0075    0.927   0.9812     O
O        0.011   0.0726   0.6289     O
O        0.011   0.9274   0.1289     O
O       0.0156   0.1544    0.804     O
O       0.0156   0.8456    0.304     O
Na      0.0162    0.275   0.8081    Na
Na      0.0162    0.725   0.3081    Na
O       0.0167   0.0125   0.3179     O
O       0.0167   0.9875   0.8179     O
O       0.0195   0.4722   0.6295     O
O       0.0195   0.5278   0.1295     O
O       0.0213   0.4483   0.3155     O
O       0.0213   0.5517   0.8155     O
C        0.023   0.0248    0.503     C
C        0.023   0.9752    0.003     C
W      0.02358  0.38877  0.60353     W
W      0.02358  0.61123  0.10353     W
O        0.032   0.3046   0.6004     O
O        0.032   0.6954   0.1004     O
O       0.0357   0.1881   0.0515     O
O       0.0357   0.8119   0.5515     O
O       0.0372   0.3692   0.6957     O
O       0.0372   0.6308   0.1957     O
W      0.03916  0.46173  0.17829     W
W      0.03916  0.53827  0.67829     W
O       0.0418   0.0739   0.7497     O
O       0.0418   0.9261   0.2497     O
O       0.0421   0.3764   0.8996     O
O       0.0421   0.6236   0.3996     O
W      0.04288  0.13097  0.89499     W
W      0.04288  0.86903  0.39499     W
K       0.0445   0.2158   0.4246     K
K       0.0445   0.7842   0.9246     K
W      0.04924  0.01546  0.67803     W
W      0.04924  0.98454  0.17803     W
O       0.0511   0.0448   0.1324     O
O       0.0511   0.9552   0.6324     O
O       0.0539   0.4705   0.7492     O
O       0.0539   0.5295   0.2492     O
O       0.0563   0.2231    0.531     O
O       0.0563   0.7769    0.031     O
W      0.06173  0.22763  0.60268     W
W      0.06173  0.77237  0.10268     W
O        0.064     0.11   0.9673     O
O        0.064     0.89   0.4673     O
O       0.0647   0.0026   0.5279     O
O       0.0647   0.9974   0.0279     O
O       0.0688    0.237   0.6946     O
O       0.0688    0.763   0.1946     O
O       0.0689    0.373   0.8038     O
O       0.0689    0.627   0.3038     O
P      0.07037   0.4023   0.7495     P
P      0.07037   0.5977   0.2495     P
O       0.0741   0.4204   0.2483     O
O       0.0741   0.5796   0.7483     O
O       0.0755   0.0304   0.2492     O
O       0.0755   0.9696   0.7492     O
Sm     0.07795  0.09689  0.06554    Sm
Sm     0.07795  0.90311  0.56554    Sm
W      0.07942  0.00681  0.82039     W
W      0.07942  0.99319  0.32039     W
O       0.0799   0.0723   0.8711     O
O       0.0799   0.9277   0.3711     O
O       0.0875   0.4746   0.8705     O
O       0.0875   0.5254   0.3705     O
O       0.0877   0.1916   0.8984     O
O       0.0877   0.8084   0.3984     O
W      0.09155  0.46252  0.32026     W
W      0.09155  0.53748  0.82026     W
O       0.0917   0.4028   0.6273     O
O       0.0917   0.5972   0.1273     O
O       0.0968    0.155   0.6277     O
O       0.0968    0.845   0.1277     O
O       0.1011   0.2391   0.8025     O
O       0.1011   0.7609   0.3025     O
W      0.10483   0.3933  0.89514     W
W      0.10483   0.6067  0.39514     W
O       0.1057   0.0525   0.6832     O
O       0.1057   0.9475   0.1832     O
O       0.1067   0.4937   0.1819     O
O       0.1067   0.5063   0.6819     O
P      0.11362   0.2267   0.7487     P
P      0.11362   0.7733   0.2487     P
O       0.1177   0.3089   0.8997     O
O       0.1177   0.6911   0.3997     O
O       0.1241   0.4031   0.7475     O
O       0.1241   0.5969   0.2475     O
O       0.1242   0.2691   0.6261     O
O       0.1242   0.7309   0.1261     O
O       0.1309   0.1594     0.75     O
O       0.1309   0.8406     0.25     O
O       0.1351   0.4094   0.9672     O
O       0.1351   0.5906   0.4672     O
O       0.1396   0.0497   0.8144     O
O       0.1396   0.9503   0.3144     O
W      0.14538  0.23312  0.89524     W
W      0.14538  0.76688  0.39524     W
W      0.14666  0.44442  0.67724     W
W      0.14666  0.55558  0.17724     W
O       0.1486   0.4928   0.3164     O
O       0.1486   0.5072   0.8164     O
W      0.15438  0.11748  0.67712     W
W      0.15438  0.88252  0.17712     W
O       0.1567   0.2664   0.7471     O
O       0.1567   0.7336   0.2471     O
O       0.1609   0.4031   0.8709     O
O       0.1609   0.5969   0.3709     O
O       0.1654   0.1568   0.8689     O
O       0.1654   0.8432   0.3689     O
O       0.1736   0.4754   0.6306     O
O       0.1736   0.5246   0.1306     O
O       0.1805    0.362    0.682     O
O       0.1805    0.638    0.182     O
Sm     0.18485  0.44878  0.06372    Sm
Sm     0.18485  0.55122  0.56372    Sm
W      0.18527  0.10847   0.8199     W
W      0.18527  0.89153   0.3199     W
O       0.1872    0.188   0.6805     O
O       0.1872    0.812   0.1805     O
W      0.18777   0.2812  0.67527     W
W      0.18777   0.7188  0.17527     W
W      0.19295  0.43145  0.81975     W
W      0.19295  0.56855  0.31975     W
O       0.1939   0.2697   0.8697     O
O       0.1939   0.7303   0.3697     O
O       0.1958   0.0857   0.7494     O
O       0.1958   0.9143   0.2494     O
O       0.1973   0.4612   0.7482     O
O       0.1973   0.5388   0.2482     O
O       0.2179   0.3582   0.8127     O
O       0.2179   0.6418   0.3127     O
O       0.2208   0.2792    0.628     O
O       0.2208   0.7208    0.128     O
O       0.2239   0.1848   0.8149     O
O       0.2239   0.8152   0.3149     O
W      0.23097  0.26711  0.81807     W
W      0.23097  0.73289  0.31807     W
K      0.23489   0.2819   0.5302     K
K      0.23489   0.7181   0.0302     K
O       0.2369   0.0747   0.8666     O
O       0.2369   0.9253   0.3666     O
O       0.2429   0.2749    0.746     O
O       0.2429   0.7251    0.246     O
O       0.2571   0.2251    0.254     O
O       0.2571   0.7749    0.754     O
O       0.2631   0.4253   0.1334     O
O       0.2631   0.5747   0.6334     O
K      0.26511   0.2181   0.4698     K
K      0.26511   0.7819   0.9698     K
W      0.26903  0.23289  0.18193     W
W      0.26903  0.76711  0.68193     W
O       0.2761   0.3152   0.1851     O
O       0.2761   0.6848   0.6851     O
O       0.2792   0.2208    0.372     O
O       0.2792   0.7792    0.872     O
O       0.2821   0.1418   0.1873     O
O       0.2821   0.8582   0.6873     O
O       0.3027   0.0388   0.2518     O
O       0.3027   0.9612   0.7518     O
O       0.3042   0.4143   0.2506     O
O       0.3042   0.5857   0.7506     O
O       0.3061   0.2303   0.1303     O
O       0.3061   0.7697   0.6303     O
W      0.30705  0.06855  0.18025     W
W      0.30705  0.93145  0.68025     W
W      0.31223   0.2188  0.32473     W
W      0.31223   0.7812  0.82473     W
O       0.3128    0.312   0.3195     O
O       0.3128    0.688   0.8195     O
W      0.31473  0.39153   0.1801     W
W      0.31473  0.60847   0.6801     W
Sm     0.31515  0.05122  0.93628    Sm
Sm     0.31515  0.94878  0.43628    Sm
O       0.3195    0.138    0.318     O
O       0.3195    0.862    0.818     O
O       0.3264   0.0246   0.3694     O
O       0.3264   0.9754   0.8694     O
O       0.3346   0.3432   0.1311     O
O       0.3346   0.6568   0.6311     O
O       0.3391   0.0969   0.1291     O
O       0.3391   0.9031   0.6291     O
O       0.3433   0.2336   0.2529     O
O       0.3433   0.7664   0.7529     O
W      0.34562  0.38252  0.32288     W
W      0.34562  0.61748  0.82288     W
O       0.3514   0.0072   0.6836     O
O       0.3514   0.9928   0.1836     O
W      0.35334  0.05558  0.32276     W
W      0.35334  0.94442  0.82276     W
W      0.35462  0.26688  0.10476     W
W      0.35462  0.73312  0.60476     W
O       0.3604   0.4503   0.1856     O
O       0.3604   0.5497   0.6856     O
O       0.3649   0.0906   0.0328     O
O       0.3649   0.9094   0.5328     O
O       0.3691   0.3406     0.25     O
O       0.3691   0.6594     0.75     O
O       0.3758   0.2309   0.3739     O
O       0.3758   0.7691   0.8739     O
O       0.3759   0.0969   0.2525     O
O       0.3759   0.9031   0.7525     O
O       0.3823   0.1911   0.1003     O
O       0.3823   0.8089   0.6003     O
P      0.38638   0.2733   0.2513     P
P      0.38638   0.7267   0.7513     P
O       0.3933   0.0063   0.8181     O
O       0.3933   0.9937   0.3181     O
O       0.3943   0.4475   0.3168     O
O       0.3943   0.5525   0.8168     O
W      0.39517   0.1067  0.10486     W
W      0.39517   0.8933  0.60486     W
O       0.3989   0.2609   0.1975     O
O       0.3989   0.7391   0.6975     O
O       0.4032    0.345   0.3723     O
O       0.4032    0.655   0.8723     O
O       0.4083   0.0972   0.3727     O
O       0.4083   0.9028   0.8727     O
W      0.40845  0.03748  0.67974     W
W      0.40845  0.96252  0.17974     W
O       0.4123   0.3084   0.1016     O
O       0.4123   0.6916   0.6016     O
O       0.4125   0.0254   0.1295     O
O       0.4125   0.9746   0.6295     O
O       0.4201   0.4277   0.1289     O
O       0.4201   0.5723   0.6289     O
W      0.42058  0.49319  0.17961     W
W      0.42058  0.50681  0.67961     W
Sm     0.42205  0.40311  0.93446    Sm
Sm     0.42205  0.59689  0.43446    Sm
O       0.4245   0.4696   0.7508     O
O       0.4245   0.5304   0.2508     O
O       0.4259   0.0796   0.7517     O
O       0.4259   0.9204   0.2517     O
P      0.42963   0.0977   0.2505     P
P      0.42963   0.9023   0.7505     P
O       0.4311    0.127   0.1962     O
O       0.4311    0.873   0.6962     O
O       0.4312    0.263   0.3054     O
O       0.4312    0.737   0.8054     O
O       0.4353   0.4974   0.4721     O
O       0.4353   0.5026   0.9721     O
O        0.436     0.39   0.0327     O
O        0.436     0.61   0.5327     O
W      0.43827  0.27237  0.39732     W
W      0.43827  0.72763  0.89732     W
O       0.4437   0.2769    0.469     O
O       0.4437   0.7231    0.969     O
O       0.4461   0.0295   0.2508     O
O       0.4461   0.9705   0.7508     O
O       0.4489   0.4552   0.8676     O
O       0.4489   0.5448   0.3676     O
W      0.45076  0.48454  0.32197     W
W      0.45076  0.51546  0.82197     W
K       0.4555   0.2842   0.5754     K
K       0.4555   0.7158   0.0754     K
W      0.45712  0.36903  0.10501     W
W      0.45712  0.63097  0.60501     W
O       0.4579   0.1236   0.1004     O
O       0.4579   0.8764   0.6004     O
O       0.4582   0.4261   0.2503     O
O       0.4582   0.5739   0.7503     O
W      0.46084  0.03827  0.82171     W
W      0.46084  0.96173  0.32171     W
O       0.4628   0.1308   0.3043     O
O       0.4628   0.8692   0.8043     O
O       0.4643   0.3119   0.9485     O
O       0.4643   0.6881   0.4485     O
O        0.468   0.1954   0.3996     O
O        0.468   0.8046   0.8996     O
W      0.47642  0.11123  0.39647     W
W      0.47642  0.88877  0.89647     W
C        0.477   0.4752    0.497     C
C        0.477   0.5248    0.997     C
O       0.4787   0.0517   0.6845     O
O       0.4787   0.9483   0.1845     O
O       0.4805   0.0278   0.3705     O
O       0.4805   0.9722   0.8705     O
O       0.4833   0.4875   0.6821     O
O       0.4833   0.5125   0.1821     O
Na      0.4838    0.225   0.1919    Na
Na      0.4838    0.775   0.6919    Na
O       0.4844   0.3456    0.196     O
O       0.4844   0.6544    0.696     O
O        0.489   0.4274   0.3711     O
O        0.489   0.5726   0.8711     O
O       0.4925    0.427   0.5188     O
O       0.4925    0.573   0.0188     O
O       0.4969   0.3094   0.4007     O
O       0.4969   0.6906   0.9007     O
P          0.5   0.3836     0.25     P
P          0.5   0.6164     0.75     P
O       0.5031   0.3094   0.0993     O
O       0.5031   0.6906   0.5993     O
O       0.5075    0.427   0.9812     O
O       0.5075    0.573   0.4812     O
O        0.511   0.4274   0.1289     O
O        0.511   0.5726   0.6289     O
O       0.5156   0.3456    0.304     O
O       0.5156   0.6544    0.804     O
Na      0.5162    0.225   0.3081    Na
Na      0.5162    0.775   0.8081    Na
O       0.5167   0.4875   0.8179     O
O       0.5167   0.5125   0.3179     O
O       0.5195   0.0278   0.1295     O
O       0.5195   0.9722   0.6295     O
O       0.5213   0.0517   0.8155     O
O       0.5213   0.9483   0.3155     O
C        0.523   0.4752    0.003     C
C        0.523   0.5248    0.503     C
W      0.52358  0.11123  0.10353     W
W      0.52358  0.88877  0.60353     W
O        0.532   0.1954   0.1004     O
O        0.532   0.8046   0.6004     O
O       0.5357   0.3119   0.5515     O
O       0.5357   0.6881   0.0515     O
O       0.5372   0.1308   0.1957     O
O       0.5372   0.8692   0.6957     O
W      0.53916  0.03827  0.67829     W
W      0.53916  0.96173  0.17829     W
O       0.5418   0.4261   0.2497     O
O       0.5418   0.5739   0.7497     O
O       0.5421   0.1236   0.3996     O
O       0.5421   0.8764   0.8996     O
W      0.54288  0.36903  0.39499     W
W      0.54288  0.63097  0.89499     W
K       0.5445   0.2842   0.9246     K
K       0.5445   0.7158   0.4246     K
W      0.54924  0.48454  0.17803     W
W      0.54924  0.51546  0.67803     W
O       0.5511   0.4552   0.6324     O
O       0.5511   0.5448   0.1324     O
O       0.5539   0.0295   0.2492     O
O       0.5539   0.9705   0.7492     O
O       0.5563   0.2769    0.031     O
O       0.5563   0.7231    0.531     O
W      0.56173  0.27237  0.10268     W
W      0.56173  0.72763  0.60268     W
O        0.564     0.39   0.4673     O
O        0.564     0.61   0.9673     O
O       0.5647   0.4974   0.0279     O
O       0.5647   0.5026   0.5279     O
O       0.5688    0.263   0.1946     O
O       0.5688    0.737   0.6946     O
O       0.5689    0.127   0.3038     O
O       0.5689    0.873   0.8038     O
P      0.57037   0.0977   0.2495     P
P      0.57037   0.9023   0.7495     P
O       0.5741   0.0796   0.7483     O
O       0.5741   0.9204   0.2483     O
O       0.5755   0.4696   0.7492     O
O       0.5755   0.5304   0.2492     O
Sm     0.57795  0.40311  0.56554    Sm
Sm     0.57795  0.59689  0.06554    Sm
W      0.57942  0.49319  0.32039     W
W      0.57942  0.50681  0.82039     W
O       0.5799   0.4277   0.3711     O
O       0.5799   0.5723   0.8711     O
O       0.5875   0.0254   0.3705     O
O       0.5875   0.9746   0.8705     O
O       0.5877   0.3084   0.3984     O
O       0.5877   0.6916   0.8984     O
W      0.59155  0.03748  0.82026     W
W      0.59155  0.96252  0.32026     W
O       0.5917   0.0972   0.1273     O
O       0.5917   0.9028   0.6273     O
O       0.5968    0.345   0.1277     O
O       0.5968    0.655   0.6277     O
O       0.6011   0.2609   0.3025     O
O       0.6011   0.7391   0.8025     O
W      0.60483   0.1067  0.39514     W
W      0.60483   0.8933  0.89514     W
O       0.6057   0.4475   0.1832     O
O       0.6057   0.5525   0.6832     O
O       0.6067   0.0063   0.6819     O
O       0.6067   0.9937   0.1819     O
P      0.61362   0.2733   0.2487     P
P      0.61362   0.7267   0.7487     P
O       0.6177   0.1911   0.3997     O
O       0.6177   0.8089   0.8997     O
O       0.6241   0.0969   0.2475     O
O       0.6241   0.9031   0.7475     O
O       0.6242   0.2309   0.1261     O
O       0.6242   0.7691   0.6261     O
O       0.6309   0.3406     0.25     O
O       0.6309   0.6594     0.75     O
O       0.6351   0.0906   0.4672     O
O       0.6351   0.9094   0.9672     O
O       0.6396   0.4503   0.3144     O
O       0.6396   0.5497   0.8144     O
W      0.64538  0.26688  0.39524     W
W      0.64538  0.73312  0.89524     W
W      0.64666  0.05558  0.17724     W
W      0.64666  0.94442  0.67724     W
O       0.6486   0.0072   0.8164     O
O       0.6486   0.9928   0.3164     O
W      0.65438  0.38252  0.17712     W
W      0.65438  0.61748  0.67712     W
O       0.6567   0.2336   0.2471     O
O       0.6567   0.7664   0.7471     O
O       0.6609   0.0969   0.3709     O
O       0.6609   0.9031   0.8709     O
O       0.6654   0.3432   0.3689     O
O       0.6654   0.6568   0.8689     O
O       0.6736   0.0246   0.1306     O
O       0.6736   0.9754   0.6306     O
O       0.6805    0.138    0.182     O
O       0.6805    0.862    0.682     O
Sm     0.68485  0.05122  0.56372    Sm
Sm     0.68485  0.94878  0.06372    Sm
W      0.68527  0.39153   0.3199     W
W      0.68527  0.60847   0.8199     W
O       0.6872    0.312   0.1805     O
O       0.6872    0.688   0.6805     O
W      0.68777   0.2188  0.17527     W
W      0.68777   0.7812  0.67527     W
W      0.69295  0.06855  0.31975     W
W      0.69295  0.93145  0.81975     W
O       0.6939   0.2303   0.3697     O
O       0.6939   0.7697   0.8697     O
O       0.6958   0.4143   0.2494     O
O       0.6958   0.5857   0.7494     O
O       0.6973   0.0388   0.2482     O
O       0.6973   0.9612   0.7482     O
O       0.7179   0.1418   0.3127     O
O       0.7179   0.8582   0.8127     O
O       0.7208   0.2208    0.128     O
O       0.7208   0.7792    0.628     O
O       0.7239   0.3152   0.3149     O
O       0.7239   0.6848   0.8149     O
W      0.73097  0.23289  0.31807     W
W      0.73097  0.76711  0.81807     W
K      0.73489   0.2181   0.0302     K
K      0.73489   0.7819   0.5302     K
O       0.7369   0.4253   0.3666     O
O       0.7369   0.5747   0.8666     O
O       0.7429   0.2251    0.246     O
O       0.7429   0.7749    0.746     O
O       0.7571   0.2749    0.754     O
O       0.7571   0.7251    0.254     O
O       0.7631   0.0747   0.6334     O
O       0.7631   0.9253   0.1334     O
K      0.76511   0.2819   0.9698     K
K      0.76511   0.7181   0.4698     K
W      0.76903  0.26711  0.68193     W
W      0.76903  0.73289  0.18193     W
O       0.7761   0.1848   0.6851     O
O       0.7761   0.8152   0.1851     O
O       0.7792   0.2792    0.872     O
O       0.7792   0.7208    0.372     O
O       0.7821   0.3582   0.6873     O
O       0.7821   0.6418   0.1873     O
O       0.8027   0.4612   0.7518     O
O       0.8027   0.5388   0.2518     O
O       0.8042   0.0857   0.7506     O
O       0.8042   0.9143   0.2506     O
O       0.8061   0.2697   0.6303     O
O       0.8061   0.7303   0.1303     O
W      0.80705  0.43145  0.68025     W
W      0.80705  0.56855  0.18025     W
W      0.81223   0.2812  0.82473     W
W      0.81223   0.7188  0.32473     W
O       0.8128    0.188   0.8195     O
O       0.8128    0.812   0.3195     O
W      0.81473  0.10847   0.6801     W
W      0.81473  0.89153   0.1801     W
Sm     0.81515  0.44878  0.43628    Sm
Sm     0.81515  0.55122  0.93628    Sm
O       0.8195    0.362    0.818     O
O       0.8195    0.638    0.318     O
O       0.8264   0.4754   0.8694     O
O       0.8264   0.5246   0.3694     O
O       0.8346   0.1568   0.6311     O
O       0.8346   0.8432   0.1311     O
O       0.8391   0.4031   0.6291     O
O       0.8391   0.5969   0.1291     O
O       0.8433   0.2664   0.7529     O
O       0.8433   0.7336   0.2529     O
W      0.84562  0.11748  0.82288     W
W      0.84562  0.88252  0.32288     W
O       0.8514   0.4928   0.1836     O
O       0.8514   0.5072   0.6836     O
W      0.85334  0.44442  0.82276     W
W      0.85334  0.55558  0.32276     W
W      0.85462  0.23312  0.60476     W
W      0.85462  0.76688  0.10476     W
O       0.8604   0.0497   0.6856     O
O       0.8604   0.9503   0.1856     O
O       0.8649   0.4094   0.5328     O
O       0.8649   0.5906   0.0328     O
O       0.8691   0.1594     0.75     O
O       0.8691   0.8406     0.25     O
O       0.8758   0.2691   0.8739     O
O       0.8758   0.7309   0.3739     O
O       0.8759   0.4031   0.7525     O
O       0.8759   0.5969   0.2525     O
O       0.8823   0.3089   0.6003     O
O       0.8823   0.6911   0.1003     O
P      0.88638   0.2267   0.7513     P
P      0.88638   0.7733   0.2513     P
O       0.8933   0.4937   0.3181     O
O       0.8933   0.5063   0.8181     O
O       0.8943   0.0525   0.8168     O
O       0.8943   0.9475   0.3168     O
W      0.89517   0.3933  0.60486     W
W      0.89517   0.6067  0.10486     W
O       0.8989   0.2391   0.6975     O
O       0.8989   0.7609   0.1975     O
O       0.9032    0.155   0.8723     O
O       0.9032    0.845   0.3723     O
O       0.9083   0.4028   0.8727     O
O       0.9083   0.5972   0.3727     O
W      0.90845  0.46252  0.17974     W
W      0.90845  0.53748  0.67974     W
O       0.9123   0.1916   0.6016     O
O       0.9123   0.8084   0.1016     O
O       0.9125   0.4746   0.6295     O
O       0.9125   0.5254   0.1295     O
O       0.9201   0.0723   0.6289     O
O       0.9201   0.9277   0.1289     O
W      0.92058  0.00681  0.67961     W
W      0.92058  0.99319  0.17961     W
Sm     0.92205  0.09689  0.43446    Sm
Sm     0.92205  0.90311  0.93446    Sm
O       0.9245   0.0304   0.2508     O
O       0.9245   0.9696   0.7508     O
O       0.9259   0.4204   0.2517     O
O       0.9259   0.5796   0.7517     O
P      0.92963   0.4023   0.7505     P
P      0.92963   0.5977   0.2505     P
O       0.9311    0.373   0.6962     O
O       0.9311    0.627   0.1962     O
O       0.9312    0.237   0.8054     O
O       0.9312    0.763   0.3054     O
O       0.9353   0.0026   0.9721     O
O       0.9353   0.9974   0.4721     O
O        0.936     0.11   0.5327     O
O        0.936     0.89   0.0327     O
W      0.93827  0.22763  0.89732     W
W      0.93827  0.77237  0.39732     W
O       0.9437   0.2231    0.969     O
O       0.9437   0.7769    0.469     O
O       0.9461   0.4705   0.7508     O
O       0.9461   0.5295   0.2508     O
O       0.9489   0.0448   0.3676     O
O       0.9489   0.9552   0.8676     O
W      0.95076  0.01546  0.82197     W
W      0.95076  0.98454  0.32197     W
K       0.9555   0.2158   0.0754     K
K       0.9555   0.7842   0.5754     K
W      0.95712  0.13097  0.60501     W
W      0.95712  0.86903  0.10501     W
O       0.9579   0.3764   0.6004     O
O       0.9579   0.6236   0.1004     O
O       0.9582   0.0739   0.7503     O
O       0.9582   0.9261   0.2503     O
W      0.96084  0.46173  0.32171     W
W      0.96084  0.53827  0.82171     W
O       0.9628   0.3692   0.8043     O
O       0.9628   0.6308   0.3043     O
O       0.9643   0.1881   0.4485     O
O       0.9643   0.8119   0.9485     O
O        0.968   0.3046   0.8996     O
O        0.968   0.6954   0.3996     O
W      0.97642  0.38877  0.89647     W
W      0.97642  0.61123  0.39647     W
C        0.977   0.0248    0.997     C
C        0.977   0.9752    0.497     C
O       0.9787   0.4483   0.1845     O
O       0.9787   0.5517   0.6845     O
O       0.9805   0.4722   0.8705     O
O       0.9805   0.5278   0.3705     O
O       0.9833   0.0125   0.1821     O
O       0.9833   0.9875   0.6821     O
Na      0.9838    0.275   0.6919    Na
Na      0.9838    0.725   0.1919    Na
O       0.9844   0.1544    0.696     O
O       0.9844   0.8456    0.196     O
O        0.989   0.0726   0.8711     O
O        0.989   0.9274   0.3711     O
O       0.9925    0.073   0.0188     O
O       0.9925    0.927   0.5188     O
O       0.9969   0.1906   0.9007     O
O       0.9969   0.8094   0.4007     O
