data_I
_chemical_name_common  '/home/zhangsd/repos/MofS-CGCNN/ML/data/TSD/clean_cifs/RIYWED_clean'
_cell_length_a 23.11200
_cell_length_b  6.95340
_cell_length_c 22.63800
_cell_angle_alpha 90.00000
_cell_angle_beta  90.00000
_cell_angle_gamma 90.00000
_space_group_name_H-M_alt      'P 1'


loop_
_space_group_symop_operation_xyz
  'x, y, z' 

loop_
_atom_site_label
_atom_site_fract_x
_atom_site_fract_y
_atom_site_fract_z
_atom_site_type_symbol
H       0.0149   0.7295   0.7328     H
O       0.0177   0.4628   0.6466     O
O       0.0234   0.1891   0.3399     O
H       0.0237   0.1515   0.7919     H
O        0.026   0.1361   0.8287     O
Ca     0.03153   0.9357  0.00113    Ca
P      0.03443   0.9184  0.84265     P
Ca     0.04293   0.5632  0.49093    Ca
O       0.0487   0.6119   0.0148     O
O       0.0492   0.2586   0.0135     O
C       0.0559    0.736    0.736     C
C       0.0584    0.569   0.6384     C
O       0.0585   0.8839   0.4732     O
O         0.06   0.2346   0.4809     O
O       0.0659   0.9136   0.9016     O
C       0.0807    0.819   0.7858     C
O       0.0839   0.5866    0.587     O
P      0.08516   0.4375  0.02588     P
C       0.0896    0.663   0.6915     C
H         0.09   0.1203    0.376     H
P      0.09521    0.064  0.46294     P
O       0.1089   0.4429   0.0908     O
H       0.1127    0.355   0.9038     H
O       0.1168   0.0774   0.3974     O
H       0.1197   0.3322   0.1008     H
H       0.1224   0.1276   0.5818     H
O       0.1346   0.9508   0.0214     O
C       0.1406    0.825   0.7903     C
H       0.1416    0.916   0.9213     H
O       0.1451   0.5615   0.4693     O
C       0.1482   0.3921   0.9214     C
C       0.1492   0.6729   0.6946     C
O       0.1493   0.3027   0.8016     O
C       0.1503   0.4402   0.9813     C
H       0.1534   0.2615   0.7669     H
H       0.1569   0.5949   0.5694     H
H       0.1577   0.8774   0.8249     H
O       0.1579   0.2057   0.6864     O
C       0.1588   0.0981   0.5645     C
C       0.1607   0.0541   0.5047     C
H       0.1725   0.6265   0.6631     H
C       0.1755    0.756   0.7468     C
O       0.1762   0.9261   0.9323     O
C       0.1779   0.9573   0.9913     C
C       0.1896   0.5517   0.4989     C
O       0.1908   0.5817   0.5568     O
C        0.199   0.3987   0.8875     C
C       0.1995    0.338   0.8242     C
C       0.2025    0.496   0.0062     C
H       0.2031   0.8113   0.3006     H
H       0.2036   0.5326   0.0466     H
C       0.2046    0.166   0.6632     C
H       0.2054    0.046   0.0987     H
C        0.208    0.101   0.6001     C
C       0.2141   0.0075   0.4803     C
H       0.2141   0.4509   0.3906     H
H       0.2166   0.9795   0.4393     H
O       0.2301   0.6852   0.2091     O
C       0.2356   0.0008   0.0148     C
C       0.2393   0.0489   0.0749     C
O       0.2394   0.8189   0.3003     O
C       0.2404    0.748   0.7498     C
O        0.245   0.1732   0.1898     O
C       0.2462   0.4998   0.4729     C
O        0.247   0.3179   0.7968     O
C       0.2485     0.45   0.4136     C
H       0.2495    0.156   0.2262     H
H       0.2505    0.156   0.7262     H
C       0.2515     0.45   0.9136     C
O        0.253   0.3179   0.2968     O
C       0.2538   0.4998   0.9729     C
O        0.255   0.1732   0.6898     O
C       0.2596    0.748   0.2498     C
O       0.2606   0.8189   0.8003     O
C       0.2607   0.0489   0.5749     C
C       0.2644   0.0008   0.5148     C
O       0.2699   0.6852   0.7091     O
H       0.2834   0.9795   0.9393     H
C       0.2859   0.0075   0.9803     C
H       0.2859   0.4509   0.8906     H
C        0.292    0.101   0.1001     C
H       0.2946    0.046   0.5987     H
C       0.2954    0.166   0.1632     C
H       0.2964   0.5326   0.5466     H
H       0.2969   0.8113   0.8006     H
C       0.2975    0.496   0.5062     C
C       0.3005    0.338   0.3242     C
C        0.301   0.3987   0.3875     C
O       0.3092   0.5817   0.0568     O
C       0.3104   0.5517   0.9989     C
C       0.3221   0.9573   0.4913     C
O       0.3238   0.9261   0.4323     O
C       0.3245    0.756   0.2468     C
H       0.3275   0.6265   0.1631     H
C       0.3393   0.0541   0.0047     C
C       0.3412   0.0981   0.0645     C
O       0.3421   0.2057   0.1864     O
H       0.3423   0.8774   0.3249     H
H       0.3431   0.5949   0.0694     H
H       0.3466   0.2615   0.2669     H
C       0.3497   0.4402   0.4813     C
O       0.3507   0.3027   0.3016     O
C       0.3508   0.6729   0.1946     C
C       0.3518   0.3921   0.4214     C
O       0.3549   0.5615   0.9693     O
H       0.3584    0.916   0.4213     H
C       0.3594    0.825   0.2903     C
O       0.3654   0.9508   0.5214     O
H       0.3776   0.1276   0.0818     H
H       0.3803   0.3322   0.6008     H
O       0.3832   0.0774   0.8974     O
H       0.3873    0.355   0.4038     H
O       0.3911   0.4429   0.5908     O
P      0.40479    0.064  0.96294     P
H         0.41   0.1203    0.876     H
C       0.4104    0.663   0.1915     C
P      0.41484   0.4375  0.52588     P
O       0.4161   0.5866    0.087     O
C       0.4193    0.819   0.2858     C
O       0.4341   0.9136   0.4016     O
O         0.44   0.2346   0.9809     O
O       0.4415   0.8839   0.9732     O
C       0.4416    0.569   0.1384     C
C       0.4441    0.736    0.236     C
O       0.4508   0.2586   0.5135     O
O       0.4513   0.6119   0.5148     O
Ca     0.45707   0.5632  0.99093    Ca
P      0.46557   0.9184  0.34265     P
Ca     0.46847   0.9357  0.50113    Ca
O        0.474   0.1361   0.3287     O
H       0.4763   0.1515   0.2919     H
O       0.4766   0.1891   0.8399     O
O       0.4823   0.4628   0.1466     O
H       0.4851   0.7295   0.2328     H
H       0.5149   0.2705   0.7328     H
O       0.5177   0.5372   0.6466     O
O       0.5234   0.8109   0.3399     O
H       0.5237   0.8485   0.7919     H
O        0.526   0.8639   0.8287     O
Ca     0.53153   0.0643  0.00113    Ca
P      0.53443   0.0816  0.84265     P
Ca     0.54293   0.4368  0.49093    Ca
O       0.5487   0.3881   0.0148     O
O       0.5492   0.7414   0.0135     O
C       0.5559    0.264    0.736     C
C       0.5584    0.431   0.6384     C
O       0.5585   0.1161   0.4732     O
O         0.56   0.7654   0.4809     O
O       0.5659   0.0864   0.9016     O
C       0.5807    0.181   0.7858     C
O       0.5839   0.4134    0.587     O
P      0.58516   0.5625  0.02588     P
C       0.5896    0.337   0.6915     C
H         0.59   0.8797    0.376     H
P      0.59521    0.936  0.46294     P
O       0.6089   0.5571   0.0908     O
H       0.6127    0.645   0.9038     H
O       0.6168   0.9226   0.3974     O
H       0.6197   0.6678   0.1008     H
H       0.6224   0.8724   0.5818     H
O       0.6346   0.0492   0.0214     O
C       0.6406    0.175   0.7903     C
H       0.6416    0.084   0.9213     H
O       0.6451   0.4385   0.4693     O
C       0.6482   0.6079   0.9214     C
C       0.6492   0.3271   0.6946     C
O       0.6493   0.6973   0.8016     O
C       0.6503   0.5598   0.9813     C
H       0.6534   0.7385   0.7669     H
H       0.6569   0.4051   0.5694     H
H       0.6577   0.1226   0.8249     H
O       0.6579   0.7943   0.6864     O
C       0.6588   0.9019   0.5645     C
C       0.6607   0.9459   0.5047     C
H       0.6725   0.3735   0.6631     H
C       0.6755    0.244   0.7468     C
O       0.6762   0.0739   0.9323     O
C       0.6779   0.0427   0.9913     C
C       0.6896   0.4483   0.4989     C
O       0.6908   0.4183   0.5568     O
C        0.699   0.6013   0.8875     C
C       0.6995    0.662   0.8242     C
C       0.7025    0.504   0.0062     C
H       0.7031   0.1887   0.3006     H
H       0.7036   0.4674   0.0466     H
C       0.7046    0.834   0.6632     C
H       0.7054    0.954   0.0987     H
C        0.708    0.899   0.6001     C
H       0.7141   0.5491   0.3906     H
C       0.7141   0.9925   0.4803     C
H       0.7166   0.0205   0.4393     H
O       0.7301   0.3148   0.2091     O
C       0.7356   0.9992   0.0148     C
C       0.7393   0.9511   0.0749     C
O       0.7394   0.1811   0.3003     O
C       0.7404    0.252   0.7498     C
O        0.745   0.8268   0.1898     O
C       0.7462   0.5002   0.4729     C
O        0.747   0.6821   0.7968     O
C       0.7485     0.55   0.4136     C
H       0.7495    0.844   0.2262     H
H       0.7505    0.844   0.7262     H
C       0.7515     0.55   0.9136     C
O        0.753   0.6821   0.2968     O
C       0.7538   0.5002   0.9729     C
O        0.755   0.8268   0.6898     O
C       0.7596    0.252   0.2498     C
O       0.7606   0.1811   0.8003     O
C       0.7607   0.9511   0.5749     C
C       0.7644   0.9992   0.5148     C
O       0.7699   0.3148   0.7091     O
H       0.7834   0.0205   0.9393     H
H       0.7859   0.5491   0.8906     H
C       0.7859   0.9925   0.9803     C
C        0.792    0.899   0.1001     C
H       0.7946    0.954   0.5987     H
C       0.7954    0.834   0.1632     C
H       0.7964   0.4674   0.5466     H
H       0.7969   0.1887   0.8006     H
C       0.7975    0.504   0.5062     C
C       0.8005    0.662   0.3242     C
C        0.801   0.6013   0.3875     C
O       0.8092   0.4183   0.0568     O
C       0.8104   0.4483   0.9989     C
C       0.8221   0.0427   0.4913     C
O       0.8238   0.0739   0.4323     O
C       0.8245    0.244   0.2468     C
H       0.8275   0.3735   0.1631     H
C       0.8393   0.9459   0.0047     C
C       0.8412   0.9019   0.0645     C
O       0.8421   0.7943   0.1864     O
H       0.8423   0.1226   0.3249     H
H       0.8431   0.4051   0.0694     H
H       0.8466   0.7385   0.2669     H
C       0.8497   0.5598   0.4813     C
O       0.8507   0.6973   0.3016     O
C       0.8508   0.3271   0.1946     C
C       0.8518   0.6079   0.4214     C
O       0.8549   0.4385   0.9693     O
H       0.8584    0.084   0.4213     H
C       0.8594    0.175   0.2903     C
O       0.8654   0.0492   0.5214     O
H       0.8776   0.8724   0.0818     H
H       0.8803   0.6678   0.6008     H
O       0.8832   0.9226   0.8974     O
H       0.8873    0.645   0.4038     H
O       0.8911   0.5571   0.5908     O
P      0.90479    0.936  0.96294     P
H         0.91   0.8797    0.876     H
C       0.9104    0.337   0.1915     C
P      0.91484   0.5625  0.52588     P
O       0.9161   0.4134    0.087     O
C       0.9193    0.181   0.2858     C
O       0.9341   0.0864   0.4016     O
O         0.94   0.7654   0.9809     O
O       0.9415   0.1161   0.9732     O
C       0.9416    0.431   0.1384     C
C       0.9441    0.264    0.236     C
O       0.9508   0.7414   0.5135     O
O       0.9513   0.3881   0.5148     O
Ca     0.95707   0.4368  0.99093    Ca
P      0.96557   0.0816  0.34265     P
Ca     0.96847   0.0643  0.50113    Ca
O        0.974   0.8639   0.3287     O
H       0.9763   0.8485   0.2919     H
O       0.9766   0.8109   0.8399     O
O       0.9823   0.5372   0.1466     O
H       0.9851   0.2705   0.2328     H
