data_I
_chemical_name_common  '/home/zhangsd/repos/MofS-CGCNN/ML/data/TSD/clean_cifs/ROGSAI_clean'
_cell_length_a 11.07700
_cell_length_b 14.81560
_cell_length_c 13.43360
_cell_angle_alpha 99.04600
_cell_angle_beta  90.00000
_cell_angle_gamma 90.00000
_space_group_name_H-M_alt      'P 1'


loop_
_space_group_symop_operation_xyz
  'x, y, z' 

loop_
_atom_site_label
_atom_site_fract_x
_atom_site_fract_y
_atom_site_fract_z
_atom_site_type_symbol
Ni     0.00137  0.04347  0.11175    Ni
O       0.0016    0.915   0.0275     O
H       0.0027   0.8781   0.4118     H
C       0.0085    0.941   0.3981     C
H       0.0087    0.582   0.8763     H
O       0.0094   0.9895   0.7483     O
C       0.0205   0.5483   0.0118     C
C       0.0245   0.9409    0.285     C
C       0.0289   0.6037   0.9429     C
C       0.0546   0.5864   0.1061     C
H       0.0555    0.551   0.1574     H
H       0.0621   0.1143   0.9625     H
C       0.0673   0.6932   0.9691     C
H       0.0717   0.7292   0.9184     H
O       0.0741   0.8728   0.2345     O
C       0.0876    0.676   0.1264     C
N       0.0972   0.7297   0.0586     N
H       0.1025   0.9469     0.59     H
H       0.1043   0.7005   0.1931     H
C       0.1062   0.0063   0.5667     C
C       0.1218   0.9885    0.451     C
H        0.134   0.0471   0.4274     H
Ni     0.14819  0.86488  0.09248    Ni
O       0.1857   0.9589   0.8732     O
O       0.1865   0.0065    0.113     O
O        0.218   0.1388    0.641     O
C       0.2192   0.0556   0.6113     C
C       0.2356    0.929   0.4261     C
O        0.244   0.8554   0.4622     O
O        0.256   0.8554   0.9622     O
C       0.2644    0.929   0.9261     C
C       0.2808   0.0556   0.1113     C
O        0.282   0.1388    0.141     O
O       0.3135   0.0065    0.613     O
O       0.3143   0.9589   0.3732     O
Ni     0.35181  0.86488  0.59248    Ni
H        0.366   0.0471   0.9274     H
C       0.3782   0.9885    0.951     C
C       0.3938   0.0063   0.0667     C
H       0.3957   0.7005   0.6931     H
H       0.3975   0.9469     0.09     H
N       0.4028   0.7297   0.5586     N
C       0.4124    0.676   0.6264     C
O       0.4259   0.8728   0.7345     O
H       0.4283   0.7292   0.4184     H
C       0.4327   0.6932   0.4691     C
H       0.4379   0.1143   0.4625     H
H       0.4445    0.551   0.6574     H
C       0.4454   0.5864   0.6061     C
C       0.4711   0.6037   0.4429     C
C       0.4755   0.9409    0.785     C
C       0.4795   0.5483   0.5118     C
O       0.4906   0.9895   0.2483     O
H       0.4913    0.582   0.3763     H
C       0.4915    0.941   0.8981     C
H       0.4973   0.8781   0.9118     H
O       0.4984    0.915   0.5275     O
Ni     0.49863  0.04347  0.61175    Ni
Ni     0.50137  0.95653  0.38825    Ni
O       0.5016    0.085   0.4725     O
H       0.5027   0.1219   0.0882     H
C       0.5085    0.059   0.1019     C
H       0.5087    0.418   0.6237     H
O       0.5094   0.0105   0.7517     O
C       0.5205   0.4517   0.4882     C
C       0.5245   0.0591    0.215     C
C       0.5289   0.3963   0.5571     C
C       0.5546   0.4136   0.3939     C
H       0.5555    0.449   0.3426     H
H       0.5621   0.8857   0.5375     H
C       0.5673   0.3068   0.5309     C
H       0.5717   0.2708   0.5816     H
O       0.5741   0.1272   0.2655     O
C       0.5876    0.324   0.3736     C
N       0.5972   0.2703   0.4414     N
H       0.6025   0.0531     0.91     H
H       0.6043   0.2995   0.3069     H
C       0.6062   0.9937   0.9333     C
C       0.6218   0.0115    0.049     C
H        0.634   0.9529   0.0726     H
Ni     0.64819  0.13512  0.40752    Ni
O       0.6857   0.0411   0.6268     O
O       0.6865   0.9935    0.387     O
O        0.718   0.8612    0.859     O
C       0.7192   0.9444   0.8887     C
C       0.7356    0.071   0.0739     C
O        0.744   0.1446   0.0378     O
O        0.756   0.1446   0.5378     O
C       0.7644    0.071   0.5739     C
C       0.7808   0.9444   0.3887     C
O        0.782   0.8612    0.359     O
O       0.8135   0.9935    0.887     O
O       0.8143   0.0411   0.1268     O
Ni     0.85181  0.13512  0.90752    Ni
H        0.866   0.9529   0.5726     H
C       0.8782   0.0115    0.549     C
C       0.8938   0.9937   0.4333     C
H       0.8957   0.2995   0.8069     H
H       0.8975   0.0531     0.41     H
N       0.9028   0.2703   0.9414     N
C       0.9124    0.324   0.8736     C
O       0.9259   0.1272   0.7655     O
H       0.9283   0.2708   0.0816     H
C       0.9327   0.3068   0.0309     C
H       0.9379   0.8857   0.0375     H
H       0.9445    0.449   0.8426     H
C       0.9454   0.4136   0.8939     C
C       0.9711   0.3963   0.0571     C
C       0.9755   0.0591    0.715     C
C       0.9795   0.4517   0.9882     C
O       0.9906   0.0105   0.2517     O
H       0.9913    0.418   0.1237     H
C       0.9915    0.059   0.6019     C
H       0.9973   0.1219   0.5882     H
O       0.9984    0.085   0.9725     O
Ni     0.99863  0.95653  0.88825    Ni
