data_I
_chemical_name_common  '/home/zhangsd/repos/MofS-CGCNN/ML/data/TSD/clean_cifs/ROLCEC15_clean'
_cell_length_a  7.32850
_cell_length_b  7.32850
_cell_length_c 24.43100
_cell_angle_alpha 90.00000
_cell_angle_beta  90.00000
_cell_angle_gamma 120.00000
_space_group_name_H-M_alt      'P 1'


loop_
_space_group_symop_operation_xyz
  'x, y, z' 

loop_
_atom_site_label
_atom_site_fract_x
_atom_site_fract_y
_atom_site_fract_z
_atom_site_type_symbol
H          0.0   0.3961  0.83333     H
C          0.0    0.477  0.33333     C
C          0.0    0.523  0.83333     C
H          0.0   0.6039  0.33333     H
C       0.0324   0.4299   0.9986     C
C       0.0324   0.6025  0.16807     C
H       0.0331    0.476  0.16977     H
H       0.0331   0.5571   0.9969     H
O        0.078   0.3762  0.70177     O
O        0.078   0.7018   0.4649     O
O       0.1131   0.4506   0.3678     O
O       0.1131   0.6625  0.79887     O
O       0.1411   0.4173   0.0338     O
O       0.1411   0.7238  0.13287     O
O       0.2762   0.4173   0.4662     O
O       0.2762   0.8589  0.70047     O
O       0.2982   0.3762  0.79823     O
O       0.2982    0.922  0.36843     O
Cu     0.31774  0.63549     0.75    Cu
Cu     0.31774  0.68226  0.41667    Cu
O       0.3375   0.4506   0.1322     O
O       0.3375   0.8869  0.03447     O
Cu     0.36451  0.68226  0.08333    Cu
O       0.3762    0.078  0.63157     O
O       0.3762   0.2982   0.5351     O
H       0.3961      0.0      0.5     H
H       0.3961   0.3961  0.66667     H
C       0.3975   0.4299   0.5014     C
C       0.3975   0.9676  0.66527     C
O       0.4173   0.1411  0.29953     O
O       0.4173   0.2762  0.86713     O
C       0.4299   0.0324  0.33473     C
C       0.4299   0.3975  0.83193     C
H       0.4429    0.476  0.33023     H
H       0.4429   0.9669  0.83643     H
O       0.4506   0.1131  0.96553     O
O       0.4506   0.3375  0.20113     O
H        0.476   0.0331  0.16357     H
H        0.476   0.4429   0.0031     H
C        0.477      0.0      0.0     C
C        0.477    0.477  0.16667     C
C        0.523      0.0      0.5     C
C        0.523    0.523  0.66667     C
H        0.524   0.5571   0.5031     H
H        0.524   0.9669  0.66357     H
O       0.5494   0.6625  0.70113     O
O       0.5494   0.8869  0.46553     O
H       0.5571   0.0331  0.33643     H
H       0.5571    0.524  0.83023     H
C       0.5701   0.6025  0.33193     C
C       0.5701   0.9676  0.83473     C
O       0.5827   0.7238  0.36713     O
O       0.5827   0.8589  0.79953     O
C       0.6025   0.0324  0.16527     C
C       0.6025   0.5701   0.0014     C
H       0.6039      0.0      0.0     H
H       0.6039   0.6039  0.16667     H
O       0.6238   0.7018   0.0351     O
O       0.6238    0.922  0.13157     O
Cu     0.63549  0.31774  0.58333    Cu
O       0.6625   0.1131  0.53447     O
O       0.6625   0.5494   0.6322     O
Cu     0.68225  0.36451     0.25    Cu
Cu     0.68226  0.31774  0.91667    Cu
O       0.7018    0.078  0.86843     O
O       0.7018   0.6238  0.29823     O
O       0.7238   0.1411  0.20047     O
O       0.7238   0.5827   0.9662     O
O       0.8589   0.2762  0.63287     O
O       0.8589   0.5827   0.5338     O
O       0.8869   0.3375  0.29887     O
O       0.8869   0.5494   0.8678     O
O        0.922   0.2982   0.9649     O
O        0.922   0.6238  0.20177     O
H       0.9669   0.4429   0.4969     H
H       0.9669    0.524  0.66977     H
C       0.9676   0.3975  0.66807     C
C       0.9676   0.5701   0.4986     C
