data_I
_chemical_name_common  '/home/zhangsd/repos/MofS-CGCNN/ML/data/TSD/clean_cifs/ROLCEC18_clean'
_cell_length_a  7.32630
_cell_length_b  7.32630
_cell_length_c 24.36530
_cell_angle_alpha 90.00000
_cell_angle_beta  90.00000
_cell_angle_gamma 120.00000
_space_group_name_H-M_alt      'P 1'


loop_
_space_group_symop_operation_xyz
  'x, y, z' 

loop_
_atom_site_label
_atom_site_fract_x
_atom_site_fract_y
_atom_site_fract_z
_atom_site_type_symbol
H          0.0   0.3995  0.83333     H
C          0.0   0.4736  0.33333     C
C          0.0   0.5264  0.83333     C
H          0.0   0.6005  0.33333     H
C        0.033   0.4321   0.9986     C
C        0.033   0.6009  0.16807     C
H       0.0348   0.4751  0.17007     H
H       0.0348   0.5597   0.9966     H
O        0.079   0.3771  0.70197     O
O        0.079   0.7019   0.4647     O
O       0.1128   0.4511   0.3678     O
O       0.1128   0.6617  0.79887     O
O       0.1417   0.4189  0.03421     O
O       0.1417   0.7228  0.13246     O
O       0.2772   0.4189  0.46579     O
O       0.2772   0.8583  0.70088     O
O       0.2981   0.3771  0.79803     O
O       0.2981    0.921  0.36863     O
Cu     0.31771  0.63541     0.75    Cu
Cu     0.31771  0.68229  0.41667    Cu
O       0.3383   0.4511   0.1322     O
O       0.3383   0.8872  0.03447     O
Cu     0.36459  0.68229  0.08333    Cu
O       0.3771    0.079  0.63137     O
O       0.3771   0.2981   0.5353     O
C       0.3991   0.4321   0.5014     C
C       0.3991    0.967  0.66527     C
H       0.3995      0.0      0.5     H
H       0.3995   0.3995  0.66667     H
O       0.4189   0.1417  0.29912     O
O       0.4189   0.2772  0.86754     O
C       0.4321    0.033  0.33473     C
C       0.4321   0.3991  0.83193     C
H       0.4403   0.4751  0.32993     H
H       0.4403   0.9652  0.83673     H
O       0.4511   0.1128  0.96553     O
O       0.4511   0.3383  0.20113     O
C       0.4736      0.0      0.0     C
C       0.4736   0.4736  0.16667     C
H       0.4751   0.0348  0.16327     H
H       0.4751   0.4403   0.0034     H
H       0.5249   0.5597   0.5034     H
H       0.5249   0.9652  0.66327     H
C       0.5264      0.0      0.5     C
C       0.5264   0.5264  0.66667     C
O       0.5489   0.6617  0.70113     O
O       0.5489   0.8872  0.46553     O
H       0.5597   0.0348  0.33673     H
H       0.5597   0.5249  0.82993     H
C       0.5679   0.6009  0.33193     C
C       0.5679    0.967  0.83473     C
O       0.5811   0.7228  0.36754     O
O       0.5811   0.8583  0.79912     O
H       0.6005      0.0      0.0     H
H       0.6005   0.6005  0.16667     H
C       0.6009    0.033  0.16527     C
C       0.6009   0.5679   0.0014     C
O       0.6229   0.7019   0.0353     O
O       0.6229    0.921  0.13137     O
Cu     0.63541  0.31771  0.58333    Cu
O       0.6617   0.1128  0.53447     O
O       0.6617   0.5489   0.6322     O
Cu     0.68229  0.31771  0.91667    Cu
Cu     0.68229  0.36459     0.25    Cu
O       0.7019    0.079  0.86863     O
O       0.7019   0.6229  0.29803     O
O       0.7228   0.1417  0.20088     O
O       0.7228   0.5811  0.96579     O
O       0.8583   0.2772  0.63246     O
O       0.8583   0.5811  0.53421     O
O       0.8872   0.3383  0.29887     O
O       0.8872   0.5489   0.8678     O
O        0.921   0.2981   0.9647     O
O        0.921   0.6229  0.20197     O
H       0.9652   0.4403   0.4966     H
H       0.9652   0.5249  0.67007     H
C        0.967   0.3991  0.66807     C
C        0.967   0.5679   0.4986     C
