data_I
_chemical_name_common  '/home/zhangsd/repos/MofS-CGCNN/ML/data/TSD/clean_cifs/ROLCEC14_clean'
_cell_length_a  7.31790
_cell_length_b  7.31790
_cell_length_c 24.41900
_cell_angle_alpha 90.00000
_cell_angle_beta  90.00000
_cell_angle_gamma 120.00000
_space_group_name_H-M_alt      'P 1'


loop_
_space_group_symop_operation_xyz
  'x, y, z' 

loop_
_atom_site_label
_atom_site_fract_x
_atom_site_fract_y
_atom_site_fract_z
_atom_site_type_symbol
H          0.0   0.3999  0.83333     H
C          0.0    0.473  0.33333     C
C          0.0    0.527  0.83333     C
H          0.0   0.6001  0.33333     H
C       0.0328   0.4313   0.9989     C
C       0.0328   0.6015  0.16777     C
H       0.0334   0.4749  0.16957     H
H       0.0334   0.5585   0.9971     H
O        0.078   0.3755  0.70167     O
O        0.078   0.7025    0.465     O
O       0.1124   0.4508  0.36785     O
O       0.1124   0.6616  0.79882     O
O       0.1405   0.4183    0.034     O
O       0.1405   0.7222  0.13267     O
O       0.2778   0.4183    0.466     O
O       0.2778   0.8595  0.70067     O
O       0.2975   0.3755  0.79833     O
O       0.2975    0.922  0.36833     O
Cu      0.3176   0.6352     0.75    Cu
Cu      0.3176   0.6824  0.41667    Cu
O       0.3384   0.4508  0.13215     O
O       0.3384   0.8876  0.03452     O
Cu      0.3648   0.6824  0.08333    Cu
O       0.3755    0.078  0.63167     O
O       0.3755   0.2975    0.535     O
C       0.3985   0.4313   0.5011     C
C       0.3985   0.9672  0.66557     C
H       0.3999      0.0      0.5     H
H       0.3999   0.3999  0.66667     H
O       0.4183   0.1405  0.29933     O
O       0.4183   0.2778  0.86733     O
C       0.4313   0.0328  0.33443     C
C       0.4313   0.3985  0.83223     C
H       0.4415   0.4749  0.33043     H
H       0.4415   0.9666  0.83623     H
O       0.4508   0.1124  0.96548     O
O       0.4508   0.3384  0.20118     O
C        0.473      0.0      0.0     C
C        0.473    0.473  0.16667     C
H       0.4749   0.0334  0.16377     H
H       0.4749   0.4415   0.0029     H
H       0.5251   0.5585   0.5029     H
H       0.5251   0.9666  0.66377     H
C        0.527      0.0      0.5     C
C        0.527    0.527  0.66667     C
O       0.5492   0.6616  0.70118     O
O       0.5492   0.8876  0.46548     O
H       0.5585   0.0334  0.33623     H
H       0.5585   0.5251  0.83043     H
C       0.5687   0.6015  0.33223     C
C       0.5687   0.9672  0.83443     C
O       0.5817   0.7222  0.36733     O
O       0.5817   0.8595  0.79933     O
H       0.6001      0.0      0.0     H
H       0.6001   0.6001  0.16667     H
C       0.6015   0.0328  0.16557     C
C       0.6015   0.5687   0.0011     C
O       0.6245   0.7025    0.035     O
O       0.6245    0.922  0.13167     O
Cu      0.6352   0.3176  0.58333    Cu
O       0.6616   0.1124  0.53452     O
O       0.6616   0.5492  0.63215     O
Cu      0.6824   0.3176  0.91667    Cu
Cu      0.6824   0.3648     0.25    Cu
O       0.7025    0.078  0.86833     O
O       0.7025   0.6245  0.29833     O
O       0.7222   0.1405  0.20067     O
O       0.7222   0.5817    0.966     O
O       0.8595   0.2778  0.63267     O
O       0.8595   0.5817    0.534     O
O       0.8876   0.3384  0.29882     O
O       0.8876   0.5492  0.86785     O
O        0.922   0.2975    0.965     O
O        0.922   0.6245  0.20167     O
H       0.9666   0.4415   0.4971     H
H       0.9666   0.5251  0.66957     H
C       0.9672   0.3985  0.66777     C
C       0.9672   0.5687   0.4989     C
