data_I
_chemical_name_common  '/home/zhangsd/repos/MofS-CGCNN/ML/data/TSD/clean_cifs/ROLCEC19_clean'
_cell_length_a  7.32560
_cell_length_b  7.32560
_cell_length_c 24.39440
_cell_angle_alpha 90.00000
_cell_angle_beta  90.00000
_cell_angle_gamma 120.00000
_space_group_name_H-M_alt      'P 1'


loop_
_space_group_symop_operation_xyz
  'x, y, z' 

loop_
_atom_site_label
_atom_site_fract_x
_atom_site_fract_y
_atom_site_fract_z
_atom_site_type_symbol
H          0.0   0.3989  0.83333     H
C          0.0   0.4742  0.33333     C
C          0.0   0.5258  0.83333     C
H          0.0   0.6011  0.33333     H
C       0.0334   0.4313   0.9987     C
C       0.0334   0.6021  0.16797     C
H        0.035   0.4761  0.16987     H
H        0.035   0.5589   0.9968     H
O       0.0789   0.3768  0.70207     O
O       0.0789   0.7021   0.4646     O
O        0.113   0.4513  0.36767     O
O        0.113   0.6617    0.799     O
O       0.1416   0.4192  0.03432     O
O       0.1416   0.7224  0.13235     O
O       0.2776   0.4192  0.46568     O
O       0.2776   0.8584  0.70099     O
O       0.2979   0.3768  0.79793     O
O       0.2979   0.9211  0.36873     O
Cu     0.31764  0.63527     0.75    Cu
Cu     0.31764  0.68236  0.41667    Cu
O       0.3383   0.4513  0.13233     O
O       0.3383    0.887  0.03434     O
Cu     0.36473  0.68237  0.08333    Cu
O       0.3768   0.0789  0.63127     O
O       0.3768   0.2979   0.5354     O
C       0.3979   0.4313   0.5013     C
C       0.3979   0.9666  0.66537     C
H       0.3989      0.0      0.5     H
H       0.3989   0.3989  0.66667     H
O       0.4192   0.1416  0.29901     O
O       0.4192   0.2776  0.86765     O
C       0.4313   0.0334  0.33463     C
C       0.4313   0.3979  0.83203     C
H       0.4411   0.4761  0.33013     H
H       0.4411    0.965  0.83653     H
O       0.4513    0.113  0.96566     O
O       0.4513   0.3383    0.201     O
C       0.4742      0.0      0.0     C
C       0.4742   0.4742  0.16667     C
H       0.4761    0.035  0.16347     H
H       0.4761   0.4411   0.0032     H
H       0.5239   0.5589   0.5032     H
H       0.5239    0.965  0.66347     H
C       0.5258      0.0      0.5     C
C       0.5258   0.5258  0.66667     C
O       0.5487   0.6617    0.701     O
O       0.5487    0.887  0.46566     O
H       0.5589    0.035  0.33653     H
H       0.5589   0.5239  0.83013     H
C       0.5687   0.6021  0.33203     C
C       0.5687   0.9666  0.83463     C
O       0.5808   0.7224  0.36765     O
O       0.5808   0.8584  0.79901     O
H       0.6011      0.0      0.0     H
H       0.6011   0.6011  0.16667     H
C       0.6021   0.0334  0.16537     C
C       0.6021   0.5687   0.0013     C
O       0.6232   0.7021   0.0354     O
O       0.6232   0.9211  0.13127     O
Cu     0.63527  0.31764  0.58333    Cu
O       0.6617    0.113  0.53434     O
O       0.6617   0.5487  0.63233     O
Cu     0.68236  0.36473     0.25    Cu
Cu     0.68237  0.31764  0.91667    Cu
O       0.7021   0.0789  0.86873     O
O       0.7021   0.6232  0.29793     O
O       0.7224   0.1416  0.20099     O
O       0.7224   0.5808  0.96568     O
O       0.8584   0.2776  0.63235     O
O       0.8584   0.5808  0.53432     O
O        0.887   0.3383    0.299     O
O        0.887   0.5487  0.86767     O
O       0.9211   0.2979   0.9646     O
O       0.9211   0.6232  0.20207     O
H        0.965   0.4411   0.4968     H
H        0.965   0.5239  0.66987     H
C       0.9666   0.3979  0.66797     C
C       0.9666   0.5687   0.4987     C
