data_I
_chemical_name_common  '/home/zhangsd/repos/MofS-CGCNN/ML/data/TSD/clean_cifs/ROMQAN_clean'
_cell_length_a  7.80800
_cell_length_b 17.45600
_cell_length_c 18.31250
_cell_angle_alpha 90.00000
_cell_angle_beta  97.72120
_cell_angle_gamma 90.00000
_space_group_name_H-M_alt      'P 1'


loop_
_space_group_symop_operation_xyz
  'x, y, z' 

loop_
_atom_site_label
_atom_site_fract_x
_atom_site_fract_y
_atom_site_fract_z
_atom_site_type_symbol
C       0.0009   0.8539   0.4966     C
Zn     0.01067  0.79801  0.21983    Zn
C       0.0188   0.5348   0.1348     C
C        0.023   0.9652   0.7531     C
C       0.0272   0.7639   0.9938     C
C       0.0276   0.1996   0.9386     C
H       0.0394   0.4755   0.8227     H
H       0.0448   0.4649   0.9714     H
C       0.0506   0.8357   0.7136     C
H       0.0517   0.8052   0.5135     H
C       0.0551   0.2852   0.1293     C
O       0.0613   0.0988    0.757     O
H       0.0618   0.1258   0.4654     H
O       0.0751    0.794   0.1207     O
O       0.0934   0.7153     0.66     O
H       0.0936     0.96   0.4725     H
C       0.0949   0.2444   0.0684     C
H        0.097   0.4926   0.1298     H
C       0.1011   0.0373   0.7872     C
C       0.1071   0.4629   0.9291     C
C       0.1073   0.6837   0.8726     C
O        0.113   0.1566   0.5697     O
O       0.1164   0.6022   0.1481     O
C       0.1205    0.163    0.318     C
C       0.1213   0.8999   0.7515     C
H       0.1347   0.6565    0.832     H
C       0.1399   0.9088   0.4818     C
C       0.1468   0.0321   0.2822     C
Zn     0.15428  0.62004  0.61353    Zn
H       0.1561   0.3586   0.9407     H
C       0.1626   0.7683   0.7014     C
O       0.1694   0.1668   0.9457     O
H       0.1707   0.2069   0.3405     H
O       0.1728   0.7559   0.3009     O
H       0.1731     0.51   0.9295     H
O       0.1767   0.3515    0.237     O
O       0.1816   0.2706    0.769     O
C       0.1927   0.7328   0.9947     C
C       0.1935    0.299   0.1931     C
H       0.1942   0.8924   0.4398     H
H       0.2038   0.2226   0.0694     H
O       0.2083   0.0306   0.8461     O
H        0.211   0.9871   0.2825     H
H        0.214   0.9045   0.6003     H
C       0.2175   0.0969   0.3165     C
C         0.22   0.4062    0.941     C
H        0.224   0.2394   0.4645     H
C       0.2307   0.6921   0.9339     C
H        0.234   0.8986   0.7757     H
H        0.266   0.3986   0.7243     H
C       0.2693   0.1921   0.5661     C
H        0.276   0.7394   0.0355     H
C         0.28   0.9062    0.559     C
C       0.2825   0.5969   0.1835     C
H        0.286   0.4045   0.8997     H
H        0.289   0.4871   0.2175     H
O       0.2917   0.5306   0.6539     O
H       0.2962   0.7226   0.4306     H
H       0.3058   0.3924   0.0602     H
C       0.3065    0.799   0.3069     C
C       0.3073   0.2328   0.5053     C
O       0.3184   0.7706    0.731     O
O       0.3233   0.8515    0.263     O
H       0.3269     0.01   0.5705     H
O       0.3272   0.2559   0.1991     O
H       0.3293   0.7069   0.1595     H
O       0.3306   0.6668   0.5543     O
C       0.3374   0.2683   0.7986     C
H       0.3439   0.8586   0.5593     H
Zn     0.34572  0.12004  0.88647    Zn
C       0.3532   0.5321   0.2178     C
C       0.3601   0.4088   0.0182     C
H       0.3653   0.1565    0.668     H
C       0.3787   0.3999   0.7485     C
C       0.3795    0.663    0.182     C
O       0.3836   0.1022   0.3519     O
O        0.387   0.6566   0.9303     O
C       0.3927   0.1837   0.6274     C
C       0.3929   0.9629   0.5709     C
C       0.3989   0.5373   0.7128     C
H        0.403   0.9926   0.3702     H
C       0.4051   0.7444   0.4316     C
H       0.4064     0.46   0.0275     H
O       0.4066   0.2153     0.84     O
O       0.4249    0.294   0.3793     O
H       0.4382   0.6258   0.0346     H
O       0.4387   0.5988    0.743     O
C       0.4449   0.7852   0.3707     C
H       0.4483   0.3052   0.9865     H
C       0.4494   0.3357   0.7864     C
H       0.4552   0.9649   0.5286     H
H       0.4606   0.9755   0.6773     H
C       0.4724   0.6996   0.5614     C
C       0.4728   0.2639   0.5062     C
C        0.477   0.4652   0.7469     C
C       0.4812   0.0348   0.3652     C
Zn     0.48933  0.29801  0.28017    Zn
C       0.4991   0.3539   0.0034     C
C       0.5009   0.6461   0.9966     C
Zn     0.51067  0.70199  0.71983    Zn
C       0.5188   0.9652   0.6348     C
C        0.523   0.5348   0.2531     C
C       0.5272   0.7361   0.4938     C
C       0.5276   0.3004   0.4386     C
H       0.5394   0.0245   0.3227     H
H       0.5448   0.0351   0.4714     H
C       0.5506   0.6643   0.2136     C
H       0.5517   0.6948   0.0135     H
C       0.5551   0.2148   0.6293     C
O       0.5613   0.4012    0.257     O
H       0.5618   0.3742   0.9654     H
O       0.5751    0.706   0.6207     O
O       0.5934   0.7847     0.16     O
H       0.5936     0.54   0.9725     H
C       0.5949   0.2556   0.5684     C
H        0.597   0.0074   0.6298     H
C       0.6011   0.4627   0.2872     C
C       0.6071   0.0371   0.4291     C
C       0.6073   0.8163   0.3726     C
O        0.613   0.3434   0.0697     O
O       0.6164   0.8978   0.6481     O
C       0.6205    0.337    0.818     C
C       0.6213   0.6001   0.2515     C
H       0.6347   0.8435    0.332     H
C       0.6399   0.5912   0.9818     C
C       0.6468   0.4679   0.7822     C
Zn     0.65428  0.87996  0.11353    Zn
H       0.6561   0.1414   0.4407     H
C       0.6626   0.7317   0.2014     C
O       0.6694   0.3332   0.4457     O
H       0.6707   0.2931   0.8405     H
O       0.6728   0.7441   0.8009     O
H       0.6731     0.99   0.4295     H
O       0.6767   0.1485    0.737     O
O       0.6816   0.2294    0.269     O
C       0.6927   0.7672   0.4947     C
C       0.6935    0.201   0.6931     C
H       0.6942   0.6076   0.9398     H
H       0.7038   0.2774   0.5694     H
O       0.7083   0.4694   0.3461     O
H        0.711   0.5129   0.7825     H
H        0.714   0.5955   0.1003     H
C       0.7175   0.4031   0.8165     C
C         0.72   0.0938    0.441     C
H        0.724   0.2606   0.9645     H
C       0.7307   0.8079   0.4339     C
H        0.734   0.6014   0.2757     H
H        0.766   0.1014   0.2243     H
C       0.7693   0.3079   0.0661     C
H        0.776   0.7606   0.5355     H
C         0.78   0.5938    0.059     C
C       0.7825   0.9031   0.6835     C
H        0.786   0.0955   0.3997     H
H        0.789   0.0129   0.7175     H
O       0.7917   0.9694   0.1539     O
H       0.7962   0.7774   0.9306     H
H       0.8058   0.1076   0.5602     H
C       0.8065    0.701   0.8069     C
C       0.8073   0.2672   0.0053     C
O       0.8184   0.7294    0.231     O
O       0.8233   0.6485    0.763     O
H       0.8269     0.49   0.0705     H
O       0.8272   0.2441   0.6991     O
H       0.8293   0.7931   0.6595     H
O       0.8306   0.8332   0.0543     O
C       0.8374   0.2317   0.2986     C
H       0.8439   0.6414   0.0593     H
Zn     0.84572  0.37996  0.38647    Zn
C       0.8532   0.9679   0.7178     C
C       0.8601   0.0912   0.5182     C
H       0.8653   0.3435    0.168     H
C       0.8787   0.1001   0.2485     C
C       0.8795    0.837    0.682     C
O       0.8836   0.3978   0.8519     O
O        0.887   0.8434   0.4303     O
C       0.8927   0.3163   0.1274     C
C       0.8929   0.5371   0.0709     C
C       0.8989   0.9627   0.2128     C
H        0.903   0.5074   0.8702     H
C       0.9051   0.7556   0.9316     C
H       0.9064     0.04   0.5275     H
O       0.9066   0.2847     0.34     O
O       0.9249    0.206   0.8793     O
H       0.9382   0.8742   0.5346     H
O       0.9387   0.9012    0.243     O
C       0.9449   0.7148   0.8707     C
H       0.9483   0.1948   0.4865     H
C       0.9494   0.1643   0.2864     C
H       0.9552   0.5351   0.0286     H
H       0.9606   0.5245   0.1773     H
C       0.9724   0.8004   0.0614     C
C       0.9728   0.2361   0.0062     C
C        0.977   0.0348   0.2469     C
C       0.9812   0.4652   0.8652     C
Zn     0.98933  0.20199  0.78017    Zn
C       0.9991   0.1461   0.5034     C
