data_I
_chemical_name_common  '/home/zhangsd/repos/MofS-CGCNN/ML/data/TSD/clean_cifs/ROQVIE_clean'
_cell_length_a  7.22590
_cell_length_b 15.14200
_cell_length_c 18.69830
_cell_angle_alpha 90.00000
_cell_angle_beta  90.00000
_cell_angle_gamma 93.14400
_space_group_name_H-M_alt      'P 1'


loop_
_space_group_symop_operation_xyz
  'x, y, z' 

loop_
_atom_site_label
_atom_site_fract_x
_atom_site_fract_y
_atom_site_fract_z
_atom_site_type_symbol
H       0.0126   0.3646   0.2439     H
H       0.0126   0.8646   0.2561     H
N       0.0186   0.2782  0.66681     N
N       0.0186   0.7782  0.83319     N
H       0.0338   0.0909   0.9813     H
H       0.0338   0.5909   0.5187     H
C       0.0439   0.3459  0.62192     C
C       0.0439   0.8459  0.87808     C
H       0.0597   0.0305   0.8256     H
H       0.0597   0.5305   0.6744     H
C       0.1076   0.1346   0.7615     C
C       0.1076   0.6346   0.7385     C
C       0.1081   0.1103  0.08675     C
C       0.1081   0.6103  0.41325     C
C       0.1221   0.0829  0.01654     C
C       0.1221   0.5829  0.48346     C
C       0.1521   0.0719    0.811     C
C       0.1521   0.5719    0.689     C
C       0.1963    0.264  0.68622     C
C       0.1963    0.764  0.81378     C
N       0.2232  0.37211  0.61464     N
N       0.2232  0.87211  0.88536     N
C         0.24   0.1953   0.7383     C
C         0.24   0.6953   0.7617     C
C       0.2702    0.085   0.1178     C
C       0.2702    0.585   0.3822     C
N       0.2803  0.04344  0.00672     N
N       0.2803  0.54344  0.49328     N
H       0.3031    0.095   0.1653     H
H       0.3031    0.595   0.3347     H
N       0.3204   0.0675  0.83907     N
N       0.3204   0.5675  0.66093     N
N       0.3226   0.3182  0.65661     N
N       0.3226   0.8182  0.84339     N
Zn     0.36247  0.48077  0.57967    Zn
Zn     0.36247  0.98077  0.92033    Zn
N       0.3725   0.0442  0.07039     N
N       0.3725   0.5442  0.42961     N
C       0.4154     0.19    0.766     C
C       0.4154     0.69    0.734     C
H       0.4311   0.3754   0.3342     H
H       0.4311   0.8754   0.1658     H
C       0.4496   0.1265   0.8158     C
C       0.4496   0.6265   0.6842     C
H       0.4893   0.2706    0.251     H
H       0.4893   0.7706    0.249     H
H       0.5107   0.2294    0.751     H
H       0.5107   0.7294    0.749     H
C       0.5504   0.3735   0.3158     C
C       0.5504   0.8735   0.1842     C
H       0.5689   0.1246   0.8342     H
H       0.5689   0.6246   0.6658     H
C       0.5846     0.31    0.266     C
C       0.5846     0.81    0.234     C
N       0.6275   0.4558  0.57039     N
N       0.6275   0.9558  0.92961     N
Zn     0.63753  0.01923  0.07967    Zn
Zn     0.63753  0.51923  0.42033    Zn
N       0.6774   0.1818  0.15661     N
N       0.6774   0.6818  0.34339     N
N       0.6796   0.4325  0.33907     N
N       0.6796   0.9325  0.16093     N
H       0.6969    0.405   0.6653     H
H       0.6969    0.905   0.8347     H
N       0.7197  0.45656  0.50672     N
N       0.7197  0.95656  0.99328     N
C       0.7298    0.415   0.6178     C
C       0.7298    0.915   0.8822     C
C         0.76   0.3047   0.2383     C
C         0.76   0.8047   0.2617     C
N       0.7768  0.12789  0.11464     N
N       0.7768  0.62789  0.38536     N
C       0.8037    0.236  0.18622     C
C       0.8037    0.736  0.31378     C
C       0.8479   0.4281    0.311     C
C       0.8479   0.9281    0.189     C
C       0.8779   0.4171  0.51654     C
C       0.8779   0.9171  0.98346     C
C       0.8919   0.3897  0.58675     C
C       0.8919   0.8897  0.91325     C
C       0.8924   0.3654   0.2615     C
C       0.8924   0.8654   0.2385     C
H       0.9403   0.4695   0.3256     H
H       0.9403   0.9695   0.1744     H
C       0.9561   0.1541  0.12192     C
C       0.9561   0.6541  0.37808     C
H       0.9662   0.4091   0.4813     H
H       0.9662   0.9091   0.0187     H
N       0.9814   0.2218  0.16681     N
N       0.9814   0.7218  0.33319     N
H       0.9874   0.1354   0.7439     H
H       0.9874   0.6354   0.7561     H
