data_I
_chemical_name_common  '/home/zhangsd/repos/MofS-CGCNN/ML/data/TSD/clean_cifs/RORVAX_clean'
_cell_length_a  8.65470
_cell_length_b 17.37200
_cell_length_c 17.37200
_cell_angle_alpha 120.00000
_cell_angle_beta  90.00000
_cell_angle_gamma 90.00000
_space_group_name_H-M_alt      'P 1'


loop_
_space_group_symop_operation_xyz
  'x, y, z' 

loop_
_atom_site_label
_atom_site_fract_x
_atom_site_fract_y
_atom_site_fract_z
_atom_site_type_symbol
Co         0.0  0.53031     -0.0    Co
H       0.0036   0.5353   0.2343     H
C       0.0154  0.32785  0.89296     C
C       0.0256   0.3456  0.04702     C
C       0.0314  0.47526  0.19471     C
O      0.09243  0.57181    0.918     O
O       0.1026  0.40294  0.92264     O
C       0.1112   0.3013   0.0806     C
H      0.11793   0.6919   0.8804     H
C       0.1187  0.42907  0.22579     C
O       0.1381  0.55679  0.37008     O
H       0.1391   0.2411   0.0415     H
C       0.1576  0.34075  0.16796     C
H      0.16093   0.4249   0.8465     H
C      0.16223  0.52634  0.84698     C
C       0.1711  0.47366  0.32064     C
H       0.1724   0.5751   0.4216     H
C      0.17573  0.65925  0.82721     C
H      0.19423   0.7589   0.8004     H
O      0.19523  0.44321  0.81329     O
C      0.21463  0.57093  0.79672     C
H       0.2154   0.3081   0.1885     H
C      0.22213   0.6987   0.7793     C
O      0.23073  0.59706   0.5197     O
O       0.2409  0.42819  0.34619     O
C      0.30193  0.52474  0.71945     C
C      0.30773   0.6544  0.70142     C
C      0.31793  0.67215  0.56511     C
H      0.32973   0.4647    0.699     H
Co     0.33333  0.46969  0.46969    Co
H      0.33693    0.699   0.4647     H
C      0.34873  0.56511  0.67215     C
C      0.35893  0.70142   0.6544     C
C      0.36473  0.71945  0.52474     C
O      0.42577  0.34619  0.42819     O
O      0.43593   0.5197  0.59706     O
C      0.44453   0.7793   0.6987     C
H      0.45127   0.1885   0.3081     H
C      0.45203  0.79672  0.57093     C
O      0.47143  0.81329  0.44321     O
H      0.47243   0.8004   0.7589     H
C      0.49093  0.82721  0.65925     C
H      0.49427   0.4216   0.5751     H
C      0.49557  0.32064  0.47366     C
C      0.50443  0.84698  0.52634     C
H      0.50573   0.8465   0.4249     H
C      0.50907  0.16796  0.34075     C
H      0.52757   0.0415   0.2411     H
O      0.52857  0.37008  0.55679     O
C      0.54797  0.22579  0.42907     C
H      0.54873   0.8804   0.6919     H
C      0.55547   0.0806   0.3013     C
O      0.56407  0.92264  0.40294     O
O      0.57423    0.918  0.57181     O
C      0.63527  0.19471  0.47526     C
C      0.64107  0.04702   0.3456     C
C      0.65127  0.89296  0.32785     C
H      0.66307   0.2343   0.5353     H
Co     0.66667      0.0  0.53031    Co
H      0.67027   0.7657    0.301     H
C      0.68207  0.10704  0.43489     C
C      0.69227  0.95298  0.29858     C
C      0.69807  0.80529  0.28055     C
O       0.7591    0.082  0.65381     O
O      0.76927  0.07736   0.4803     O
C      0.77787   0.9194   0.2207     C
H       0.7846   0.1196   0.8115     H
C      0.78537  0.77421  0.20328     C
O      0.80477  0.62992  0.18671     O
H      0.80577   0.9585   0.1996     H
C      0.82427  0.83204  0.17279     C
H       0.8276   0.1535   0.5784     H
C       0.8289  0.15302  0.67936     C
C      0.83777  0.67936  0.15302     C
H      0.83907   0.5784   0.1535     H
C       0.8424  0.17279  0.83204     C
H       0.8609   0.1996   0.9585     H
O       0.8619  0.18671  0.62992     O
C       0.8813  0.20328  0.77421     C
H      0.88207   0.8115   0.1196     H
C       0.8888   0.2207   0.9194     C
O       0.8974   0.4803  0.07736     O
O      0.90757  0.65381    0.082     O
C       0.9686  0.28055  0.80529     C
C       0.9744  0.29858  0.95298     C
C       0.9846  0.43489  0.10704     C
H       0.9964    0.301   0.7657     H
