data_I
_chemical_name_common  '/home/zhangsd/repos/MofS-CGCNN/ML/data/TSD/clean_cifs/RUBDUP_clean'
_cell_length_a 33.26100
_cell_length_b 33.26100
_cell_length_c 33.26100
_cell_angle_alpha 90.00000
_cell_angle_beta  90.00000
_cell_angle_gamma 90.00000
_space_group_name_H-M_alt      'P 1'


loop_
_space_group_symop_operation_xyz
  'x, y, z' 

loop_
_atom_site_label
_atom_site_fract_x
_atom_site_fract_y
_atom_site_fract_z
_atom_site_type_symbol
C       0.0028  0.34127   0.6167     C
C       0.0031   0.0744   0.7189     C
C       0.0043   0.7066   0.7554     C
C       0.0054   0.5434   0.7543     C
C      0.00701   0.3184   0.6514     C
C       0.0099   0.7358   0.9697     C
H       0.0117   0.0182   0.7983     H
C       0.0117   0.1536   0.8072     C
H       0.0122   0.5774   0.8043     H
C       0.0134   0.2337   0.5574     C
C       0.0142   0.7401   0.7803     C
H       0.0158   0.1752   0.6064     H
C       0.0163   0.7634   0.8074     C
H        0.017   0.1359   0.8282     H
C       0.0174   0.0389   0.7804     C
H       0.0182   0.7983   0.0117     H
C       0.0221   0.7902   0.8385     C
C       0.0231   0.6491   0.7156     C
O       0.0263   0.3944   0.5744     O
H       0.0293   0.3221   0.6679     H
C       0.0303   0.5099   0.7642     C
C       0.0304   0.2111   0.7674     C
C       0.0305   0.8358  0.90799     C
C       0.0311   0.6756   0.7469     C
C       0.0317   0.3737   0.6022     C
H       0.0333   0.8511   0.9312     H
C       0.0344   0.1009   0.7269     C
C       0.0347   0.1946   0.6132     C
C       0.0384   0.1846   0.7987     C
C       0.0389   0.7804   0.0174     C
C       0.0402   0.2279   0.5885     C
C       0.0434   0.7457   0.9946     C
H       0.0483   0.2318   0.7617     H
C       0.0487   0.0654   0.7884     C
C       0.0496   0.1278   0.6967     C
C       0.0531   0.1548   0.6739     C
C       0.0533   0.6222   0.7004     C
H       0.0543   0.6726   0.7622     H
C       0.0554   0.7847   0.8632     C
C       0.0572   0.0964   0.7617     C
C       0.0574   0.4866   0.7663     C
C       0.0575   0.1904   0.6479     C
C       0.0596   0.8075   0.8979     C
O      0.06079  0.37364  0.62649     O
H       0.0616   0.1876    0.814     H
H       0.0624   0.8116    0.064     H
Zn     0.06308  0.43692  0.56308    Zn
H        0.064   0.0624   0.8116     H
C       0.0654   0.7884   0.0487     C
C       0.0684  0.25701   0.5986     C
H       0.0688   0.5333   0.6489     H
H       0.0721   0.2793   0.5821     H
O       0.0744   0.4737   0.6056     O
C       0.0744   0.7189   0.0031     C
H       0.0748   0.7658   0.8564     H
C       0.0761   0.5952   0.6969     C
H       0.0774   0.6957   0.9878     H
H       0.0782   0.1141    0.767     H
H       0.0821   0.4279   0.7207     H
C       0.0858   0.2195  0.65799     C
C       0.0885   0.4598   0.7721     C
C      0.09127   0.2528   0.6333     C
C      0.09201   0.5305   0.6642     C
C       0.0952   0.8031   0.9239     C
C       0.0964   0.7617   0.0572     C
C       0.0986   0.4316  0.74299     C
C       0.1009   0.7269   0.0344     C
H       0.1011   0.2167   0.6812     H
C       0.1021   0.5596   0.6925     C
C       0.1022   0.4683   0.6263     C
O       0.1056   0.4256   0.5263     O
H       0.1064   0.4842   0.8248     H
C       0.1132   0.4653   0.8054     C
H       0.1141    0.767   0.0782     H
C       0.1167   0.4972  0.65873     C
C       0.1222   0.7996   0.9467     C
O      0.12351  0.37636  0.68921     O
O      0.12364  0.31079  0.62351     O
C       0.1237   0.2817   0.6478     C
Zn       0.125    0.375    0.625    Zn
C       0.1263   0.3978   0.5317     C
O      0.12636  0.37351  0.56079     O
O      0.12649  0.43921  0.62636     O
C       0.1278   0.6967   0.0496     C
C       0.1333  0.40873   0.7472     C
H       0.1359   0.8282    0.017     H
C       0.1368   0.5554   0.7153     C
H       0.1436   0.5748   0.7342     H
O       0.1444   0.2763   0.6756     O
C       0.1478   0.3763   0.7183     C
C       0.1479   0.4425   0.8096     C
H       0.1489   0.4312   0.4667     H
C       0.1491   0.7844   0.9769     C
C       0.1514  0.49299   0.6816     C
C       0.1536   0.8072   0.0117     C
C       0.1548   0.6739   0.0531     C
C      0.15799   0.4142   0.7805     C
C      0.15873   0.3833   0.5028     C
C       0.1615   0.5221   0.7098     C
C       0.1642  0.40799   0.4695     C
H       0.1679   0.4707   0.6779     H
H       0.1718    0.517   0.3641     H
H       0.1726   0.7378   0.9457     H
C       0.1739   0.4469   0.8452     C
H       0.1752   0.6064   0.0158     H
O       0.1756   0.3556   0.7237     O
C       0.1756   0.7531   0.9689     C
H       0.1779   0.3321   0.5293     H
H       0.1812   0.3989   0.7833     H
C       0.1816   0.3486  0.50701     C
C       0.1846   0.7987   0.0384     C
H        0.186   0.5616   0.3124     H
Zn     0.18692  0.31308  0.68692    Zn
H       0.1876    0.814   0.0616     H
H       0.1884    0.564   0.4376     H
O      0.18921  0.37649  0.62364     O
C       0.1904   0.6479   0.0575     C
C       0.1925   0.3979   0.4404     C
C       0.1926   0.5163   0.7366     C
C       0.1928   0.5117   0.3464     C
C       0.1946   0.6132   0.0347     C
H       0.1957   0.5122   0.9226     H
C       0.1967   0.4504   0.8722     C
C       0.1969   0.4239   0.4048     C
C       0.2004   0.4467   0.3778     C
C       0.2013   0.5384   0.3154     C
H       0.2017   0.5117   0.4818     H
C       0.2066   0.7446   0.9957     C
C       0.2098   0.3385   0.4779     C
C       0.2111   0.7674   0.0304     C
C       0.2116   0.5487   0.4346     C
C       0.2153   0.3632   0.4446     C
C       0.2156   0.4769   0.3509     C
H       0.2167   0.6812   0.1011     H
C       0.2183   0.3522   0.6237     C
C       0.2189   0.4969   0.9256     C
C       0.2195  0.65799   0.0858     C
C       0.2196   0.5174   0.4611     C
C       0.2197   0.5142   0.7599     C
H       0.2207   0.4179   0.5721     H
O       0.2237   0.3244   0.6444     O
C       0.2269   0.4656   0.8991     C
C       0.2279   0.5885   0.0402     C
H       0.2318   0.7617   0.0483     H
C       0.2326   0.5304   0.2889     C
H        0.233   0.5782   0.3859     H
C       0.2337   0.5574   0.0134     C
H       0.2342   0.3564   0.4252     H
C       0.2358   0.5303   0.9901     C
C       0.2366   0.3074   0.4837     C
H       0.2378   0.5543   0.8274     H
H       0.2383   0.5483   0.2682     H
C       0.2383   0.5572   0.4036     C
C       0.2401   0.7197   0.9858     C
C      0.24299   0.4014   0.5684     C
C       0.2446   0.5043   0.7934     C
C       0.2457   0.5054   0.9566     C
C       0.2469   0.4689   0.3244     C
C       0.2472   0.3667  0.59127     C
C       0.2528   0.6333  0.09127     C
C       0.2531   0.5311   0.8244     C
C       0.2543   0.4946   0.4566     C
C       0.2554   0.4957   0.2934     C
C      0.25701   0.5986   0.0684     C
C       0.2599   0.2803   0.4858     C
C       0.2617   0.4428   0.9036     C
H       0.2617   0.4517   0.7682     H
H       0.2622   0.4457   0.3274     H
C       0.2634   0.6926   0.9837     C
C       0.2642   0.4697   0.4901     C
H       0.2658   0.6436   0.9252     H
C       0.2663   0.4426   0.5134     C
H        0.267   0.4218   0.8859     H
C       0.2674   0.4696   0.7889     C
H       0.2682   0.2383   0.5483     H
C       0.2721   0.4115   0.5402     C
C       0.2731   0.5344   0.3991     C
O       0.2763   0.6756   0.1444     O
H       0.2793   0.5821   0.0721     H
C       0.2803   0.4858   0.2599     C
C       0.2804   0.4826   0.9611     C
C       0.2805  0.34201   0.5858     C
C       0.2811   0.5031   0.4256     C
C       0.2817   0.6478   0.1237     C
H       0.2833   0.3188   0.6011     H
C       0.2844   0.5231   0.8509     C
C       0.2847   0.6368   0.9446     C
C       0.2884   0.4513   0.9346     C
C       0.2889   0.2326   0.5304     C
C       0.2902   0.6615   0.9779     C
C       0.2934   0.2554   0.4957     C
H       0.2983   0.4883   0.9818     H
C       0.2987   0.4616   0.8154     C
C       0.2996   0.5533   0.8778     C
C       0.3031   0.5761   0.9048     C
C       0.3033   0.5496   0.3722     C
H       0.3043   0.4878   0.4226     H
C       0.3054   0.3868   0.5347     C
C       0.3072   0.4883   0.8464     C
C       0.3074   0.4837   0.2366     C
C       0.3075   0.6021   0.9404     C
C       0.3096   0.3521   0.5575     C
O      0.31079  0.62351  0.12364     O
H       0.3116    0.436   0.9376     H
H       0.3124    0.186   0.5616     H
Zn     0.31308  0.68692  0.18692    Zn
H        0.314   0.4384   0.8124     H
C       0.3154   0.2013   0.5384     C
C       0.3184   0.6514  0.00701     C
H       0.3188   0.6011   0.2833     H
H       0.3221   0.6679   0.0293     H
C       0.3244   0.2469   0.4689     C
O       0.3244   0.6444   0.2237     O
H       0.3248   0.3936   0.5158     H
C       0.3261   0.5531   0.3452     C
H       0.3274   0.2622   0.4457     H
H       0.3282    0.483   0.8641     H
H       0.3321   0.5293   0.1779     H
C       0.3358  0.59201   0.9695     C
C       0.3385   0.4779   0.2098     C
C      0.34127   0.6167   0.0028     C
C      0.34201   0.5858   0.2805     C
C       0.3452   0.3261   0.5531     C
C       0.3464   0.1928   0.5117     C
C       0.3486  0.50701   0.1816     C
C       0.3509   0.2156   0.4769     C
H       0.3511   0.5688   0.9667     H
C       0.3521   0.5575   0.3096     C
C       0.3522   0.6237   0.2183     C
O       0.3556   0.7237   0.1756     O
H       0.3564   0.4252   0.2342     H
C       0.3632   0.4446   0.2153     C
H       0.3641   0.1718    0.517     H
C       0.3667  0.59127   0.2472     C
C       0.3722   0.3033   0.5496     C
O      0.37351  0.56079  0.12636     O
O      0.37364  0.62649  0.06079     O
C       0.3737   0.6022   0.0317     C
Zn       0.375    0.625    0.125    Zn
C       0.3763   0.7183   0.1478     C
O      0.37636  0.68921  0.12351     O
O      0.37649  0.62364  0.18921     O
C       0.3778   0.2004   0.4467     C
C       0.3833   0.5028  0.15873     C
H       0.3859    0.233   0.5782     H
C       0.3868   0.5347   0.3054     C
H       0.3936   0.5158   0.3248     H
O       0.3944   0.5744   0.0263     O
C       0.3978   0.5317   0.1263     C
C       0.3979   0.4404   0.1925     C
H       0.3989   0.7833   0.1812     H
C       0.3991   0.2731   0.5344     C
C       0.4014   0.5684  0.24299     C
C       0.4036   0.2383   0.5572     C
C       0.4048   0.1969   0.4239     C
C      0.40799   0.4695   0.1642     C
C      0.40873   0.7472   0.1333     C
C       0.4115   0.5402   0.2721     C
C       0.4142   0.7805  0.15799     C
H       0.4179   0.5721   0.2207     H
H       0.4218   0.8859    0.267     H
H       0.4226   0.3043   0.4878     H
C       0.4239   0.4048   0.1969     C
H       0.4252   0.2342   0.3564     H
C       0.4256   0.2811   0.5031     C
O       0.4256   0.5263   0.1056     O
H       0.4279   0.7207   0.0821     H
H       0.4312   0.4667   0.1489     H
C       0.4316  0.74299   0.0986     C
C       0.4346   0.2116   0.5487     C
H        0.436   0.9376   0.3116     H
Zn     0.43692  0.56308  0.06308    Zn
H       0.4376   0.1884    0.564     H
H       0.4384   0.8124    0.314     H
O      0.43921  0.62636  0.12649     O
C       0.4404   0.1925   0.3979     C
C       0.4425   0.8096   0.1479     C
C       0.4426   0.5134   0.2663     C
C       0.4428   0.9036   0.2617     C
C       0.4446   0.2153   0.3632     C
H       0.4457   0.3274   0.2622     H
C       0.4467   0.3778   0.2004     C
C       0.4469   0.8452   0.1739     C
C       0.4504   0.8722   0.1967     C
C       0.4513   0.9346   0.2884     C
H       0.4517   0.7682   0.2617     H
C       0.4566   0.2543   0.4946     C
C       0.4598   0.7721   0.0885     C
C       0.4611   0.2196   0.5174     C
C       0.4616   0.8154   0.2987     C
C       0.4653   0.8054   0.1132     C
C       0.4656   0.8991   0.2269     C
H       0.4667   0.1489   0.4312     H
C       0.4683   0.6263   0.1022     C
C       0.4689   0.3244   0.2469     C
C       0.4695   0.1642  0.40799     C
C       0.4696   0.7889   0.2674     C
C       0.4697   0.4901   0.2642     C
H       0.4707   0.6779   0.1679     H
O       0.4737   0.6056   0.0744     O
C       0.4769   0.3509   0.2156     C
C       0.4779   0.2098   0.3385     C
H       0.4818   0.2017   0.5117     H
C       0.4826   0.9611   0.2804     C
H        0.483   0.8641   0.3282     H
C       0.4837   0.2366   0.3074     C
H       0.4842   0.8248   0.1064     H
C       0.4858   0.2599   0.2803     C
C       0.4866   0.7663   0.0574     C
H       0.4878   0.4226   0.3043     H
C       0.4883   0.8464   0.3072     C
H       0.4883   0.9818   0.2983     H
C       0.4901   0.2642   0.4697     C
C      0.49299   0.6816   0.1514     C
C       0.4946   0.4566   0.2543     C
C       0.4957   0.2934   0.2554     C
C       0.4969   0.9256   0.2189     C
C       0.4972  0.65873   0.1167     C
C       0.5028  0.15873   0.3833     C
C       0.5031   0.4256   0.2811     C
C       0.5043   0.7934   0.2446     C
C       0.5054   0.9566   0.2457     C
C      0.50701   0.1816   0.3486     C
C       0.5099   0.7642   0.0303     C
C       0.5117   0.3464   0.1928     C
H       0.5117   0.4818   0.2017     H
H       0.5122   0.9226   0.1957     H
C       0.5134   0.2663   0.4426     C
C       0.5142   0.7599   0.2197     C
H       0.5158   0.3248   0.3936     H
C       0.5163   0.7366   0.1926     C
H        0.517   0.3641   0.1718     H
C       0.5174   0.4611   0.2196     C
H       0.5182   0.7017   0.9883     H
C       0.5221   0.7098   0.1615     C
C       0.5231   0.8509   0.2844     C
O       0.5263   0.1056   0.4256     O
H       0.5293   0.1779   0.3321     H
C       0.5303   0.9901   0.2358     C
C       0.5304   0.2889   0.2326     C
C       0.5305   0.6642  0.09201     C
C       0.5311   0.8244   0.2531     C
C       0.5317   0.1263   0.3978     C
H       0.5333   0.6489   0.0688     H
C       0.5344   0.3991   0.2731     C
C       0.5347   0.3054   0.3868     C
C       0.5384   0.3154   0.2013     C
C       0.5389   0.7196   0.9826     C
C       0.5402   0.2721   0.4115     C
C       0.5434   0.7543   0.0054     C
H       0.5483   0.2682   0.2383     H
C       0.5487   0.4346   0.2116     C
C       0.5496   0.3722   0.3033     C
C       0.5531   0.3452   0.3261     C
C       0.5533   0.8778   0.2996     C
H       0.5543   0.8274   0.2378     H
C       0.5554   0.7153   0.1368     C
C       0.5572   0.4036   0.2383     C
C       0.5574   0.0134   0.2337     C
C       0.5575   0.3096   0.3521     C
C       0.5596   0.6925   0.1021     C
O      0.56079  0.12636  0.37351     O
H       0.5616   0.3124    0.186     H
H       0.5624   0.6884    0.936     H
Zn     0.56308  0.06308  0.43692    Zn
H        0.564   0.4376   0.1884     H
C       0.5654   0.7116   0.9513     C
C       0.5684  0.24299   0.4014     C
H       0.5688   0.9667   0.3511     H
H       0.5721   0.2207   0.4179     H
O       0.5744   0.0263   0.3944     O
C       0.5744   0.7811   0.9969     C
H       0.5748   0.7342   0.1436     H
C       0.5761   0.9048   0.3031     C
H       0.5774   0.8043   0.0122     H
H       0.5782   0.3859    0.233     H
H       0.5821   0.0721   0.2793     H
C       0.5858   0.2805  0.34201     C
C       0.5885   0.0402   0.2279     C
C      0.59127   0.2472   0.3667     C
C      0.59201   0.9695   0.3358     C
C       0.5952   0.6969   0.0761     C
C       0.5964   0.7383   0.9428     C
C       0.5986   0.0684  0.25701     C
C       0.6009   0.7731   0.9656     C
H       0.6011   0.2833   0.3188     H
C       0.6021   0.9404   0.3075     C
C       0.6022   0.0317   0.3737     C
O       0.6056   0.0744   0.4737     O
H       0.6064   0.0158   0.1752     H
C       0.6132   0.0347   0.1946     C
H       0.6141    0.733   0.9218     H
C       0.6167   0.0028  0.34127     C
C       0.6222   0.7004   0.0533     C
O      0.62351  0.12364  0.31079     O
O      0.62364  0.18921  0.37649     O
C       0.6237   0.2183   0.3522     C
Zn       0.625    0.125    0.375    Zn
C       0.6263   0.1022   0.4683     C
O      0.62636  0.12649  0.43921     O
O      0.62649  0.06079  0.37364     O
C       0.6278   0.8033   0.9504     C
C       0.6333  0.09127   0.2528     C
H       0.6359   0.6718    0.983     H
C       0.6368   0.9446   0.2847     C
H       0.6436   0.9252   0.2658     H
O       0.6444   0.2237   0.3244     O
C       0.6478   0.1237   0.2817     C
C       0.6479   0.0575   0.1904     C
H       0.6489   0.0688   0.5333     H
C       0.6491   0.7156   0.0231     C
C       0.6514  0.00701   0.3184     C
C       0.6536   0.6928   0.9883     C
C       0.6548   0.8261   0.9469     C
C      0.65799   0.0858   0.2195     C
C      0.65873   0.1167   0.4972     C
C       0.6615   0.9779   0.2902     C
C       0.6642  0.09201   0.5305     C
H       0.6679   0.0293   0.3221     H
H       0.6718    0.983   0.6359     H
H       0.6726   0.7622   0.0543     H
C       0.6739   0.0531   0.1548     C
H       0.6752   0.8936   0.9842     H
O       0.6756   0.1444   0.2763     O
C       0.6756   0.7469   0.0311     C
H       0.6779   0.1679   0.4707     H
H       0.6812   0.1011   0.2167     H
C       0.6816   0.1514  0.49299     C
C       0.6846   0.7013   0.9616     C
H        0.686   0.9384   0.6876     H
Zn     0.68692  0.18692  0.31308    Zn
H       0.6876    0.686   0.9384     H
H       0.6884    0.936   0.5624     H
O      0.68921  0.12351  0.37636     O
C       0.6904   0.8521   0.9425     C
C       0.6925   0.1021   0.5596     C
C       0.6926   0.9837   0.2634     C
C       0.6928   0.9883   0.6536     C
C       0.6946   0.8868   0.9653     C
H       0.6957   0.9878   0.0774     H
C       0.6967   0.0496   0.1278     C
C       0.6969   0.0761   0.5952     C
C       0.7004   0.0533   0.6222     C
C       0.7013   0.9616   0.6846     C
H       0.7017   0.9883   0.5182     H
C       0.7066   0.7554   0.0043     C
C       0.7098   0.1615   0.5221     C
C       0.7111   0.7326   0.9696     C
C       0.7116   0.9513   0.5654     C
C       0.7153   0.1368   0.5554     C
C       0.7156   0.0231   0.6491     C
H       0.7167   0.8188   0.8989     H
C       0.7183   0.1478   0.3763     C
C       0.7189   0.0031   0.0744     C
C       0.7195  0.84201   0.9142     C
C       0.7196   0.9826   0.5389     C
C       0.7197   0.9858   0.2401     C
H       0.7207   0.0821   0.4279     H
O       0.7237   0.1756   0.3556     O
C       0.7269   0.0344   0.1009     C
C       0.7279   0.9115   0.9598     C
H       0.7318   0.7383   0.9517     H
C       0.7326   0.9696   0.7111     C
H        0.733   0.9218   0.6141     H
C       0.7337   0.9426   0.9866     C
H       0.7342   0.1436   0.5748     H
C       0.7358   0.9697   0.0099     C
C       0.7366   0.1926   0.5163     C
H       0.7378   0.9457   0.1726     H
C       0.7383   0.9428   0.5964     C
H       0.7383   0.9517   0.7318     H
C       0.7401   0.7803   0.0142     C
C      0.74299   0.0986   0.4316     C
C       0.7446   0.9957   0.2066     C
C       0.7457   0.9946   0.0434     C
C       0.7469   0.0311   0.6756     C
C       0.7472   0.1333  0.40873     C
C       0.7528   0.8667  0.90873     C
C       0.7531   0.9689   0.1756     C
C       0.7543   0.0054   0.5434     C
C       0.7554   0.0043   0.7066     C
C      0.75701   0.9014   0.9316     C
C       0.7599   0.2197   0.5142     C
H       0.7617   0.0483   0.2318     H
C       0.7617   0.0572   0.0964     C
H       0.7622   0.0543   0.6726     H
C       0.7634   0.8074   0.0163     C
C       0.7642   0.0303   0.5099     C
H       0.7658   0.8564   0.0748     H
C       0.7663   0.0574   0.4866     C
H        0.767   0.0782   0.1141     H
C       0.7674   0.0304   0.2111     C
H       0.7682   0.2617   0.4517     H
C       0.7721   0.0885   0.4598     C
C       0.7731   0.9656   0.6009     C
O       0.7763   0.8244   0.8556     O
H       0.7793   0.9179   0.9279     H
C       0.7803   0.0142   0.7401     C
C       0.7804   0.0174   0.0389     C
C       0.7805  0.15799   0.4142     C
C       0.7811   0.9969   0.5744     C
C       0.7817   0.8522   0.8763     C
H       0.7833   0.1812   0.3989     H
C       0.7844   0.9769   0.1491     C
C       0.7847   0.8632   0.0554     C
C       0.7884   0.0487   0.0654     C
C       0.7889   0.2674   0.4696     C
C       0.7902   0.8385   0.0221     C
C       0.7934   0.2446   0.5043     C
H       0.7983   0.0117   0.0182     H
C       0.7987   0.0384   0.1846     C
C       0.7996   0.9467   0.1222     C
C       0.8031   0.9239   0.0952     C
C       0.8033   0.9504   0.6278     C
H       0.8043   0.0122   0.5774     H
C       0.8054   0.1132   0.4653     C
C       0.8072   0.0117   0.1536     C
C       0.8074   0.0163   0.7634     C
C       0.8075   0.8979   0.0596     C
C       0.8096   0.1479   0.4425     C
O      0.81079  0.87649  0.87636     O
H       0.8116    0.064   0.0624     H
H       0.8124    0.314   0.4384     H
Zn     0.81308  0.81308  0.81308    Zn
H        0.814   0.0616   0.1876     H
C       0.8154   0.2987   0.4616     C
C       0.8184   0.8486  0.99299     C
H       0.8188   0.8989   0.7167     H
H       0.8221   0.8321   0.9707     H
C       0.8244   0.2531   0.5311     C
O       0.8244   0.8556   0.7763     O
H       0.8248   0.1064   0.4842     H
C       0.8261   0.9469   0.6548     C
H       0.8274   0.2378   0.5543     H
H       0.8282    0.017   0.1359     H
H       0.8321   0.9707   0.8221     H
C       0.8358  0.90799   0.0305     C
C       0.8385   0.0221   0.7902     C
C      0.84127   0.8833   0.9972     C
C      0.84201   0.9142   0.7195     C
C       0.8452   0.1739   0.4469     C
C       0.8464   0.3072   0.4883     C
C       0.8486  0.99299   0.8184     C
C       0.8509   0.2844   0.5231     C
H       0.8511   0.9312   0.0333     H
C       0.8521   0.9425   0.6904     C
C       0.8522   0.8763   0.7817     C
O       0.8556   0.7763   0.8244     O
H       0.8564   0.0748   0.7658     H
C       0.8632   0.0554   0.7847     C
H       0.8641   0.3282    0.483     H
C       0.8667  0.90873   0.7528     C
C       0.8722   0.1967   0.4504     C
O      0.87351  0.93921  0.87364     O
O      0.87364  0.87351  0.93921     O
C       0.8737   0.8978   0.9683     C
Zn       0.875    0.875    0.875    Zn
C       0.8763   0.7817   0.8522     C
O      0.87636  0.81079  0.87649     O
O      0.87649  0.87636  0.81079     O
C       0.8778   0.2996   0.5533     C
C       0.8833   0.9972  0.84127     C
H       0.8859    0.267   0.4218     H
C       0.8868   0.9653   0.6946     C
H       0.8936   0.9842   0.6752     H
O       0.8944   0.9256   0.9737     O
C       0.8978   0.9683   0.8737     C
C       0.8979   0.0596   0.8075     C
H       0.8989   0.7167   0.8188     H
C       0.8991   0.2269   0.4656     C
C       0.9014   0.9316  0.75701     C
C       0.9036   0.2617   0.4428     C
C       0.9048   0.3031   0.5761     C
C      0.90799   0.0305   0.8358     C
C      0.90873   0.7528   0.8667     C
C       0.9115   0.9598   0.7279     C
C       0.9142   0.7195  0.84201     C
H       0.9179   0.9279   0.7793     H
H       0.9218   0.6141    0.733     H
H       0.9226   0.1957   0.5122     H
C       0.9239   0.0952   0.8031     C
H       0.9252   0.2658   0.6436     H
C       0.9256   0.2189   0.4969     C
O       0.9256   0.9737   0.8944     O
H       0.9279   0.7793   0.9179     H
H       0.9312   0.0333   0.8511     H
C       0.9316  0.75701   0.9014     C
C       0.9346   0.2884   0.4513     C
H        0.936   0.5624   0.6884     H
Zn     0.93692  0.93692  0.93692    Zn
H       0.9376   0.3116    0.436     H
H       0.9384   0.6876    0.686     H
O      0.93921  0.87364  0.87351     O
C       0.9404   0.3075   0.6021     C
C       0.9425   0.6904   0.8521     C
C       0.9426   0.9866   0.7337     C
C       0.9428   0.5964   0.7383     C
C       0.9446   0.2847   0.6368     C
H       0.9457   0.1726   0.7378     H
C       0.9467   0.1222   0.7996     C
C       0.9469   0.6548   0.8261     C
C       0.9504   0.6278   0.8033     C
C       0.9513   0.5654   0.7116     C
H       0.9517   0.7318   0.7383     H
C       0.9566   0.2457   0.5054     C
C       0.9598   0.7279   0.9115     C
C       0.9611   0.2804   0.4826     C
C       0.9616   0.6846   0.7013     C
C       0.9653   0.6946   0.8868     C
C       0.9656   0.6009   0.7731     C
H       0.9667   0.3511   0.5688     H
C       0.9683   0.8737   0.8978     C
C       0.9689   0.1756   0.7531     C
C       0.9695   0.3358  0.59201     C
C       0.9696   0.7111   0.7326     C
C       0.9697   0.0099   0.7358     C
H       0.9707   0.8221   0.8321     H
O       0.9737   0.8944   0.9256     O
C       0.9769   0.1491   0.7844     C
C       0.9779   0.2902   0.6615     C
H       0.9818   0.2983   0.4883     H
C       0.9826   0.5389   0.7196     C
H        0.983   0.6359   0.6718     H
C       0.9837   0.2634   0.6926     C
H       0.9842   0.6752   0.8936     H
C       0.9858   0.2401   0.7197     C
C       0.9866   0.7337   0.9426     C
H       0.9878   0.0774   0.6957     H
H       0.9883   0.5182   0.7017     H
C       0.9883   0.6536   0.6928     C
C       0.9901   0.2358   0.5303     C
C      0.99299   0.8184   0.8486     C
C       0.9946   0.0434   0.7457     C
C       0.9957   0.2066   0.7446     C
C       0.9969   0.5744   0.7811     C
C       0.9972  0.84127   0.8833     C
