data_I
_chemical_name_common  '/home/zhangsd/repos/MofS-CGCNN/ML/data/TSD/clean_cifs/RUFRIV_clean'
_cell_length_a 13.65460
_cell_length_b 14.21260
_cell_length_c 14.63770
_cell_angle_alpha 76.05700
_cell_angle_beta  86.39000
_cell_angle_gamma 67.91000
_space_group_name_H-M_alt      'P 1'


loop_
_space_group_symop_operation_xyz
  'x, y, z' 

loop_
_atom_site_label
_atom_site_fract_x
_atom_site_fract_y
_atom_site_fract_z
_atom_site_type_symbol
O       0.0046   0.7119   0.9404     O
C       0.0059   0.4018   0.3314     C
H       0.0151   0.5518   0.6259     H
Zn     0.01581  0.37062  0.14125    Zn
H       0.0193   0.9441   0.3463     H
H         0.02   0.3889    0.833     H
C       0.0255   0.1717   0.9602     C
N       0.0265    0.459    0.238     N
C       0.0513   0.9374   0.1309     C
C       0.0543   0.4327   0.7945     C
C       0.0561   0.0323   0.8831     C
O       0.0603   0.6882   0.7536     O
C       0.0667   0.9621   0.3747     C
C        0.067   0.2268   0.0163     C
H       0.0704   0.3439    0.357     H
H       0.0707   0.0778   0.2655     H
H       0.0779   0.9752   0.1591     H
C       0.0794   0.6392    0.675     C
H       0.0798   0.6896   0.6171     H
H        0.081   0.4046   0.7398     H
C       0.0822    0.799   0.0555     C
H       0.0852   0.8543   0.4946     H
O       0.0936   0.8846   0.8202     O
C       0.0947   0.0878   0.9293     C
C       0.0973   0.0423   0.3263     C
O       0.1024   0.4886   0.9183     O
C       0.1051   0.9092   0.4633     C
C       0.1188   0.8496   0.1023     C
H       0.1296   0.7433   0.0332     H
C       0.1319   0.9385   0.8504     C
H       0.1325   0.5312   0.0904     H
H        0.133    0.452   0.9708     H
C       0.1363   0.4559   0.2304     C
H       0.1405   0.5141   0.2513     H
C       0.1445   0.4269   0.8492     C
H       0.1479   0.5823   0.6837     H
Zn     0.14957  0.75653   0.7759    Zn
O       0.1512   0.3853   0.0916     O
O       0.1618   0.2086   0.0183     O
C       0.1669   0.0697   0.3679     C
H       0.1671   0.0677   0.9389     H
C        0.171   0.4619   0.1286     C
C       0.1734   0.9366   0.5072     C
O       0.1827   0.1815   0.2239     O
H       0.1834   0.3917   0.2706     H
H       0.1849   0.3549   0.8803     H
O        0.189   0.8041   0.6446     O
H       0.1908   0.4542   0.8077     H
H        0.191   0.8255   0.1159     H
C       0.2033   0.0189   0.4593     C
C       0.2054   0.1526   0.3113     C
C       0.2126   0.8812   0.6076     C
O       0.2294   0.9211    0.856     O
H       0.2458   0.4497   0.1259     H
H       0.2475   0.0394    0.489     H
O       0.2576   0.1854   0.3551     O
Zn     0.26143   0.2331  0.10812    Zn
H       0.2618    0.012   0.1577     H
O       0.2638   0.9194   0.6471     O
O        0.274   0.6513   0.8473     O
H        0.287   0.1589   0.8174     H
H       0.3006   0.6043   0.1192     H
H       0.3046   0.2145   0.8922     H
Zn     0.33469  0.85763  0.77075    Zn
C       0.3373   0.9894   0.1477     C
C       0.3385   0.1584   0.8604     C
H       0.3455   0.4631   0.9239     H
H       0.3529    0.738   0.0368     H
H       0.3552   0.9397   0.1083     H
O       0.3559   0.2845   0.0075     O
O       0.3618   0.0773   0.1002     O
H        0.363    0.071    0.984     H
H       0.3641   0.1188   0.6808     H
H       0.3666   0.9783   0.2875     H
C       0.3701   0.6385   0.8375     C
C       0.3719   0.5909   0.1083     C
O       0.3763   0.0592   0.9288     O
H       0.3888   0.8689   0.2666     H
C       0.3965   0.9355   0.2426     C
C       0.4028   0.6715   0.0603     C
O       0.4069   0.7075    0.802     O
H       0.4074   0.2363   0.7542     H
C       0.4174   0.4496    0.917     C
H       0.4197   0.9726   0.6233     H
H       0.4218   0.4391   0.1702     H
C       0.4326   0.1746   0.8055     C
C         0.44   0.0825   0.6792     C
C        0.444   0.4927   0.1398     C
O       0.4474   0.9099   0.7586     O
C         0.45   0.5275   0.8734     C
C        0.454   0.2651   0.0035     C
H       0.4627    0.058   0.3446     H
C       0.4642   0.9723   0.6725     C
H       0.4659   0.1191   0.6245     H
O       0.4743   0.8209   0.9589     O
H       0.4786   0.1849   0.8468     H
Zn     0.48836  0.94701  0.87258    Zn
C       0.4911   0.3492   0.9517     C
N       0.4922   0.0812   0.7676     N
N       0.5078   0.9188   0.2324     N
C       0.5089   0.6508   0.0483     C
Zn     0.51164  0.05299  0.12742    Zn
H       0.5214   0.8151   0.1532     H
O       0.5257   0.1791   0.0411     O
H       0.5341   0.8809   0.3755     H
C       0.5358   0.0277   0.3275     C
H       0.5373    0.942   0.6554     H
C        0.546   0.7349   0.9965     C
C         0.55   0.4725   0.1266     C
O       0.5526   0.0901   0.2414     O
C        0.556   0.5073   0.8602     C
C         0.56   0.9175   0.3208     C
C       0.5674   0.8254   0.1945     C
H       0.5782   0.5609   0.8298     H
H       0.5803   0.0274   0.3767     H
C       0.5826   0.5504    0.083     C
H       0.5926   0.7637   0.2458     H
O       0.5931   0.2925    0.198     O
C       0.5972   0.3285   0.9397     C
C       0.6035   0.0645   0.7574     C
H       0.6112   0.1311   0.7334     H
O       0.6237   0.9408   0.0712     O
C       0.6281   0.4091   0.8917     C
C       0.6299   0.3615   0.1625     C
H       0.6334   0.0217   0.7125     H
H       0.6359   0.8812   0.3192     H
H        0.637    0.929    0.016     H
O       0.6382   0.9227   0.8998     O
O       0.6441   0.7155   0.9925     O
H       0.6448   0.0603   0.8917     H
H       0.6471    0.262   0.9632     H
H       0.6545   0.5369   0.0761     H
C       0.6615   0.8416   0.1396     C
C       0.6627   0.0106   0.8523     C
Zn     0.66531  0.14237  0.22925    Zn
H       0.6954   0.7855   0.1078     H
H       0.6994   0.3957   0.8808     H
H        0.713   0.8411   0.1826     H
O        0.726   0.3487   0.1527     O
O       0.7362   0.0806   0.3529     O
H       0.7382    0.988   0.8423     H
Zn     0.73857   0.7669  0.89188    Zn
O       0.7424   0.8146   0.6449     O
H       0.7525   0.9606    0.511     H
H       0.7542   0.5503   0.8741     H
O       0.7706   0.0789    0.144     O
C       0.7874   0.1188   0.3924     C
C       0.7946   0.8474   0.6887     C
C       0.7967   0.9811   0.5407     C
H        0.809   0.1745   0.8841     H
H       0.8092   0.5458   0.1923     H
O        0.811   0.1959   0.3554     O
H       0.8151   0.6451   0.1197     H
H       0.8166   0.6083   0.7294     H
O       0.8173   0.8185   0.7761     O
C       0.8266   0.0634   0.4928     C
C        0.829   0.5381   0.8714     C
H       0.8329   0.9323   0.0611     H
C       0.8331   0.9303   0.6321     C
O       0.8382   0.7914   0.9817     O
O       0.8488   0.6147   0.9084     O
Zn     0.85043  0.24347   0.2241    Zn
H       0.8521   0.4177   0.3163     H
C       0.8555   0.5731   0.1508     C
H       0.8595   0.4859   0.7487     H
C       0.8637   0.5441   0.7696     C
H        0.867    0.548   0.0292     H
H       0.8675   0.4688   0.9096     H
C       0.8681   0.0615   0.1496     C
H       0.8704   0.2567   0.9668     H
C       0.8812   0.1504   0.8977     C
C       0.8949   0.0908   0.5367     C
O       0.8976   0.5114   0.0817     O
C       0.9027   0.9577   0.6737     C
C       0.9053   0.9122   0.0707     C
O       0.9064   0.1154   0.1798     O
H       0.9148   0.1457   0.5054     H
C       0.9178    0.201   0.9445     C
H        0.919   0.5954   0.2602     H
H       0.9202   0.3104   0.3829     H
C       0.9206   0.3608    0.325     C
H       0.9221   0.0248   0.8409     H
H       0.9293   0.9222   0.7345     H
H       0.9296   0.6561    0.643     H
C        0.933   0.7732   0.9837     C
C       0.9333   0.0379   0.6253     C
O       0.9397   0.3118   0.2464     O
C       0.9439   0.9677   0.1169     C
C       0.9457   0.5673   0.2055     C
C       0.9487   0.0626   0.8691     C
N       0.9735    0.541    0.762     N
C       0.9745   0.8283   0.0398     C
H         0.98   0.6111    0.167     H
H       0.9807   0.0559   0.6537     H
Zn     0.98419  0.62938  0.85875    Zn
H       0.9849   0.4482   0.3741     H
C       0.9941   0.5982   0.6686     C
O       0.9954   0.2881   0.0596     O
