data_I
_chemical_name_common  '/home/zhangsd/repos/MofS-CGCNN/ML/data/TSD/clean_cifs/RUFTET_clean'
_cell_length_a 11.34070
_cell_length_b 11.38470
_cell_length_c 13.19080
_cell_angle_alpha 88.86800
_cell_angle_beta  69.33900
_cell_angle_gamma 85.72600
_space_group_name_H-M_alt      'P 1'


loop_
_space_group_symop_operation_xyz
  'x, y, z' 

loop_
_atom_site_label
_atom_site_fract_x
_atom_site_fract_y
_atom_site_fract_z
_atom_site_type_symbol
Co         0.0      0.0      0.0    Co
Co         0.0      0.0      0.5    Co
O       0.0013   0.1822   0.9989     O
C       0.0065   0.3854   0.4639     C
Co     0.00938  0.88342  0.74825    Co
C       0.0139   0.2594   0.4281     C
O       0.0151   0.8169   0.5005     O
C       0.0178   0.6155   0.9643     C
C       0.0333   0.7412    0.928     C
O       0.0455   0.9768    0.333     O
O        0.051   0.2413   0.3255     O
O       0.0515     0.02   0.8322     O
C       0.0658   0.4077   0.9344     C
C       0.0681   0.1935   0.7359     C
C       0.0716   0.8018   0.2366     C
C       0.0797   0.5798   0.4361     C
O       0.0846   0.7593   0.8277     O
C       0.0847    0.465   0.3985     C
C       0.0849   0.5226   0.8975     C
H        0.099    0.342   0.6473     H
H       0.1116    0.344   0.8885     H
H       0.1204   0.6485   0.1492     H
N       0.1216   0.1049   0.7758     N
N       0.1231   0.8869    0.277     N
H       0.1357   0.6341   0.3927     H
C       0.1373   0.2803   0.6773     C
H       0.1416    0.442   0.3284     H
H       0.1434   0.5372   0.8272     H
C       0.1529   0.7095   0.1774     C
O       0.1714   0.1066   0.1316     O
O       0.1835    0.993   0.9904     O
O       0.1859   0.9967   0.4849     O
O       0.1879    0.889   0.6295     O
C       0.2287   0.0422   0.0507     C
C       0.2412   0.9494   0.5459     C
C       0.2416   0.1001   0.7628     C
C       0.2478   0.8865   0.2612     C
C       0.2654   0.2772   0.6619     C
H       0.2773   0.0372   0.7936     H
H       0.2803   0.9469   0.2902     H
C       0.2817   0.7067   0.1597     C
H       0.3157   0.3376   0.6225     H
C       0.3171   0.1866    0.704     C
C        0.326   0.7937   0.2007     C
H       0.3375   0.6442   0.1191     H
C       0.3694    0.023   0.0227     C
C       0.3769   0.9727   0.5197     C
H       0.3835   0.0979    0.404     H
H       0.3839   0.1328   0.1389     H
H       0.4012   0.9051   0.8995     H
H       0.4047   0.1821   0.6934     H
H       0.4077   0.8575    0.627     H
H        0.414   0.7916   0.1879     H
C       0.4307   0.0583    0.443     C
C        0.431    0.079   0.0825     C
C       0.4413   0.9438   0.9403     C
C       0.4451   0.9156   0.5754     C
C       0.5549   0.0844   0.4246     C
C       0.5587   0.0562   0.0597     C
C        0.569    0.921   0.9175     C
C       0.5693   0.9417    0.557     C
H        0.586   0.2084   0.8121     H
H       0.5923   0.1425    0.373     H
H       0.5953   0.8179   0.3066     H
H       0.5988   0.0949   0.1005     H
H       0.6161   0.8672   0.8611     H
H       0.6165   0.9021    0.596     H
C       0.6231   0.0273   0.4803     C
C       0.6306    0.977   0.9773     C
H       0.6625   0.3558   0.8809     H
C        0.674   0.2063   0.7993     C
C       0.6829   0.8134    0.296     C
H       0.6843   0.6624   0.3775     H
C       0.7183   0.2933   0.8403     C
H       0.7197   0.0531   0.7098     H
H       0.7227   0.9628   0.2064     H
C       0.7346   0.7228   0.3381     C
C       0.7522   0.1135   0.7388     C
C       0.7584   0.8999   0.2372     C
C       0.7588   0.0506   0.4541     C
C       0.7713   0.9578   0.9493     C
O       0.8121    0.111   0.3705     O
O       0.8141   0.0033   0.5151     O
O       0.8165    0.007   0.0096     O
O       0.8286   0.8934   0.8684     O
C       0.8471   0.2905   0.8226     C
H       0.8566   0.4628   0.1728     H
H       0.8584    0.558   0.6716     H
C       0.8627   0.7197   0.3227     C
H       0.8643   0.3659   0.6073     H
N       0.8769   0.1131    0.723     N
N       0.8784   0.8951   0.2242     N
H       0.8796   0.3515   0.8508     H
H       0.8884    0.656   0.1115     H
H        0.901    0.658   0.3527     H
C       0.9151   0.4774   0.1025     C
C       0.9153    0.535   0.6015     C
O       0.9154   0.2407   0.1723     O
C       0.9203   0.4202   0.5639     C
C       0.9284   0.1982   0.7634     C
C       0.9319   0.8065   0.2641     C
C       0.9342   0.5923   0.0656     C
O       0.9485     0.98   0.1678     O
O        0.949   0.7587   0.6745     O
O       0.9545   0.0232    0.667     O
C       0.9667   0.2588    0.072     C
C       0.9822   0.3845   0.0357     C
O       0.9849   0.1831   0.4995     O
C       0.9861   0.7406   0.5719     C
Co     0.99062  0.11658  0.25175    Co
C       0.9935   0.6146   0.5361     C
O       0.9987   0.8178   0.0011     O
