data_I
_chemical_name_common  '/home/zhangsd/repos/MofS-CGCNN/ML/data/TSD/clean_cifs/RUFZID_clean'
_cell_length_a 27.31300
_cell_length_b 22.01700
_cell_length_c 15.83600
_cell_angle_alpha 90.00000
_cell_angle_beta  103.21800
_cell_angle_gamma 90.00000
_space_group_name_H-M_alt      'P 1'


loop_
_space_group_symop_operation_xyz
  'x, y, z' 

loop_
_atom_site_label
_atom_site_fract_x
_atom_site_fract_y
_atom_site_fract_z
_atom_site_type_symbol
O       0.0033   0.4388   0.6142     O
O       0.0033   0.5612   0.6142     O
H        0.024   0.3628   0.7301     H
H        0.024   0.6372   0.7301     H
Cu     0.03818      0.5  0.45797    Cu
C        0.047   0.4226   0.6031     C
C        0.047   0.5774   0.6031     C
C       0.0583   0.3575   0.7339     C
C       0.0583   0.6425   0.7339     C
O       0.0668   0.4384   0.5445     O
O       0.0668   0.5616   0.5445     O
H       0.0703   0.3839   0.3693     H
H       0.0703   0.6161   0.3693     H
H       0.0716   0.3051   0.8452     H
H       0.0716   0.6949   0.8452     H
C       0.0788   0.3829    0.672     C
C       0.0788   0.6171    0.672     C
C       0.0865   0.3232   0.8043     C
C       0.0865   0.6768   0.8043     C
N       0.0971      0.5   0.3938     N
C       0.1062   0.3885    0.382     C
C       0.1062   0.6115    0.382     C
C        0.119   0.4517   0.3628     C
C        0.119   0.5483   0.3628     C
H       0.1198   0.3798   0.4422     H
H       0.1198   0.6202   0.4422     H
H       0.1201   0.3608    0.347     H
H       0.1201   0.6392    0.347     H
C       0.1268   0.3734    0.672     C
C       0.1268   0.6266    0.672     C
C       0.1384   0.3182   0.8087     C
C       0.1384   0.6818   0.8087     C
H       0.1404   0.3874   0.6268     H
H       0.1404   0.6126   0.6268     H
O       0.1519   0.2564   0.9366     O
O       0.1519   0.7436   0.9366     O
N       0.1523   0.4685   0.3177     N
N       0.1523   0.5315   0.3177     N
C       0.1575   0.3406   0.7445     C
C       0.1575   0.6594   0.7445     C
H       0.1643   0.2882    0.185     H
H       0.1643   0.7118    0.185     H
H       0.1667      0.5    0.137     H
C        0.169   0.2869   0.8874     C
C        0.169   0.7131   0.8874     C
H        0.173     0.13   0.9783     H
H        0.173     0.87   0.9783     H
H       0.1775   0.2491   0.1106     H
H       0.1775   0.7509   0.1106     H
H       0.1836   0.2591   0.3814     H
H       0.1836   0.7409   0.3814     H
Cu     0.18935  0.42414  0.24714    Cu
Cu     0.18935  0.57586  0.24714    Cu
C       0.1911   0.2734   0.1608     C
C       0.1911   0.7266   0.1608     C
H       0.1915   0.3349   0.7465     H
H       0.1915   0.6651   0.7465     H
H       0.1925   0.1757   0.4754     H
H       0.1925   0.8243   0.4754     H
O       0.1937      0.5   0.1817     O
H       0.1959   0.0644    0.987     H
H       0.1959   0.9356    0.987     H
O       0.2024   0.3559   0.3268     O
O       0.2024   0.6441   0.3268     O
C       0.2036    0.107   0.9921     C
C       0.2036    0.893   0.9921     C
C       0.2108   0.2566   0.4288     C
C       0.2108   0.7434   0.4288     C
H       0.2136   0.2492   0.2031     H
H       0.2136   0.7508   0.2031     H
O       0.2154    0.295   0.8957     O
O       0.2154    0.705   0.8957     O
C       0.2167   0.2062   0.4865     C
C       0.2167   0.7938   0.4865     C
C       0.2193   0.3261   0.1351     C
C       0.2193   0.6739   0.1351     C
H       0.2214   0.1158   0.0504     H
H       0.2214   0.8842   0.0504     H
N       0.2226   0.3819   0.1671     N
N       0.2226   0.6181   0.1671     N
O       0.2257   0.1052   0.5996     O
O       0.2257   0.8948   0.5996     O
C       0.2352   0.1232   0.9317     C
C       0.2352   0.8768   0.9317     C
Cu     0.23927      0.0  0.84891    Cu
C       0.2421   0.3561   0.3874     C
C       0.2421   0.6439   0.3874     C
N       0.2447   0.3219    0.071     N
N       0.2447   0.6781    0.071     N
C       0.2454   0.2999   0.4451     C
C       0.2454   0.7001   0.4451     C
N        0.248   0.0861   0.8751     N
N        0.248   0.9139   0.8751     N
Cu        0.25     0.25      0.0    Cu
Cu        0.25     0.75      0.0    Cu
N        0.252   0.4139   0.1249     N
N        0.252   0.5861   0.1249     N
C       0.2546   0.2001   0.5549     C
C       0.2546   0.7999   0.5549     C
N       0.2553   0.1781    0.929     N
N       0.2553   0.8219    0.929     N
C       0.2579   0.1439   0.6126     C
C       0.2579   0.8561   0.6126     C
Cu     0.26073      0.5  0.15109    Cu
C       0.2648   0.3768   0.0683     C
C       0.2648   0.6232   0.0683     C
O       0.2743   0.3948   0.4004     O
O       0.2743   0.6052   0.4004     O
N       0.2774   0.1181   0.8329     N
N       0.2774   0.8819   0.8329     N
H       0.2786   0.3842   0.9496     H
H       0.2786   0.6158   0.9496     H
C       0.2807   0.1739   0.8649     C
C       0.2807   0.8261   0.8649     C
C       0.2833   0.2938   0.5135     C
C       0.2833   0.7062   0.5135     C
O       0.2846    0.205   0.1043     O
O       0.2846    0.795   0.1043     O
H       0.2864   0.2508   0.7969     H
H       0.2864   0.7492   0.7969     H
C       0.2892   0.2434   0.5712     C
C       0.2892   0.7566   0.5712     C
C       0.2964    0.393   0.0079     C
C       0.2964    0.607   0.0079     C
O       0.2976   0.1441   0.6732     O
O       0.2976   0.8559   0.6732     O
H       0.3041   0.4356    0.013     H
H       0.3041   0.5644    0.013     H
O       0.3063      0.0   0.8183     O
H       0.3075   0.3243   0.5246     H
H       0.3075   0.6757   0.5246     H
H       0.3085   0.1651   0.2535     H
H       0.3085   0.8349   0.2535     H
C       0.3089   0.2266   0.8392     C
C       0.3089   0.7734   0.8392     C
Cu     0.31065  0.07586  0.75286    Cu
Cu     0.31065  0.92414  0.75286    Cu
H       0.3164   0.2409   0.6186     H
H       0.3164   0.7591   0.6186     H
H       0.3225   0.2509   0.8894     H
H       0.3225   0.7491   0.8894     H
H        0.327     0.37   0.0217     H
H        0.327     0.63   0.0217     H
C        0.331   0.2131   0.1126     C
C        0.331   0.7869   0.1126     C
H       0.3333      0.0    0.863     H
H       0.3357   0.2118    0.815     H
H       0.3357   0.7882    0.815     H
C       0.3425   0.1594   0.2555     C
C       0.3425   0.8406   0.2555     C
N       0.3477   0.0315   0.6823     N
N       0.3477   0.9685   0.6823     N
O       0.3481   0.2436   0.0634     O
O       0.3481   0.7564   0.0634     O
H       0.3596   0.1126   0.3732     H
H       0.3596   0.8874   0.3732     H
C       0.3616   0.1818   0.1913     C
C       0.3616   0.8182   0.1913     C
C       0.3732   0.1266    0.328     C
C       0.3732   0.8734    0.328     C
H       0.3799   0.1392    0.653     H
H       0.3799   0.8608    0.653     H
H       0.3802   0.1202   0.5578     H
H       0.3802   0.8798   0.5578     H
C        0.381   0.0483   0.6372     C
C        0.381   0.9517   0.6372     C
C       0.3938   0.1115    0.618     C
C       0.3938   0.8885    0.618     C
N       0.4029      0.0   0.6062     N
C       0.4135   0.1768   0.1957     C
C       0.4135   0.8232   0.1957     C
C       0.4212   0.1171    0.328     C
C       0.4212   0.8829    0.328     C
H       0.4284   0.1949   0.1548     H
H       0.4284   0.8051   0.1548     H
H       0.4297   0.1161   0.6307     H
H       0.4297   0.8839   0.6307     H
O       0.4332   0.0616   0.4555     O
O       0.4332   0.9384   0.4555     O
C       0.4417   0.1425   0.2661     C
C       0.4417   0.8575   0.2661     C
C        0.453   0.0774   0.3969     C
C        0.453   0.9226   0.3969     C
Cu     0.46182      0.0  0.54203    Cu
H        0.476   0.1372   0.2699     H
H        0.476   0.8628   0.2699     H
O       0.4967   0.0612   0.3858     O
O       0.4967   0.9388   0.3858     O
O       0.5033   0.0612   0.6142     O
O       0.5033   0.9388   0.6142     O
H        0.524   0.1372   0.7301     H
H        0.524   0.8628   0.7301     H
Cu     0.53818      0.0  0.45797    Cu
C        0.547   0.0774   0.6031     C
C        0.547   0.9226   0.6031     C
C       0.5583   0.1425   0.7339     C
C       0.5583   0.8575   0.7339     C
O       0.5668   0.0616   0.5445     O
O       0.5668   0.9384   0.5445     O
H       0.5703   0.1161   0.3693     H
H       0.5703   0.8839   0.3693     H
H       0.5716   0.1949   0.8452     H
H       0.5716   0.8051   0.8452     H
C       0.5788   0.1171    0.672     C
C       0.5788   0.8829    0.672     C
C       0.5865   0.1768   0.8043     C
C       0.5865   0.8232   0.8043     C
N       0.5971      0.0   0.3938     N
C       0.6062   0.1115    0.382     C
C       0.6062   0.8885    0.382     C
C        0.619   0.0483   0.3628     C
C        0.619   0.9517   0.3628     C
H       0.6198   0.1202   0.4422     H
H       0.6198   0.8798   0.4422     H
H       0.6201   0.1392    0.347     H
H       0.6201   0.8608    0.347     H
C       0.6268   0.1266    0.672     C
C       0.6268   0.8734    0.672     C
C       0.6384   0.1818   0.8087     C
C       0.6384   0.8182   0.8087     C
H       0.6404   0.1126   0.6268     H
H       0.6404   0.8874   0.6268     H
O       0.6519   0.2436   0.9366     O
O       0.6519   0.7564   0.9366     O
N       0.6523   0.0315   0.3177     N
N       0.6523   0.9685   0.3177     N
C       0.6575   0.1594   0.7445     C
C       0.6575   0.8406   0.7445     C
H       0.6643   0.2118    0.185     H
H       0.6643   0.7882    0.185     H
H       0.6667      0.0    0.137     H
C        0.669   0.2131   0.8874     C
C        0.669   0.7869   0.8874     C
H        0.673     0.37   0.9783     H
H        0.673     0.63   0.9783     H
H       0.6775   0.2509   0.1106     H
H       0.6775   0.7491   0.1106     H
H       0.6836   0.2409   0.3814     H
H       0.6836   0.7591   0.3814     H
Cu     0.68935  0.07586  0.24714    Cu
Cu     0.68935  0.92414  0.24714    Cu
C       0.6911   0.2266   0.1608     C
C       0.6911   0.7734   0.1608     C
H       0.6915   0.1651   0.7465     H
H       0.6915   0.8349   0.7465     H
H       0.6925   0.3243   0.4754     H
H       0.6925   0.6757   0.4754     H
O       0.6937      0.0   0.1817     O
H       0.6959   0.4356    0.987     H
H       0.6959   0.5644    0.987     H
O       0.7024   0.1441   0.3268     O
O       0.7024   0.8559   0.3268     O
C       0.7036    0.393   0.9921     C
C       0.7036    0.607   0.9921     C
C       0.7108   0.2434   0.4288     C
C       0.7108   0.7566   0.4288     C
H       0.7136   0.2508   0.2031     H
H       0.7136   0.7492   0.2031     H
O       0.7154    0.205   0.8957     O
O       0.7154    0.795   0.8957     O
C       0.7167   0.2938   0.4865     C
C       0.7167   0.7062   0.4865     C
C       0.7193   0.1739   0.1351     C
C       0.7193   0.8261   0.1351     C
H       0.7214   0.3842   0.0504     H
H       0.7214   0.6158   0.0504     H
N       0.7226   0.1181   0.1671     N
N       0.7226   0.8819   0.1671     N
O       0.7257   0.3948   0.5996     O
O       0.7257   0.6052   0.5996     O
C       0.7352   0.3768   0.9317     C
C       0.7352   0.6232   0.9317     C
Cu     0.73927      0.5  0.84891    Cu
C       0.7421   0.1439   0.3874     C
C       0.7421   0.8561   0.3874     C
N       0.7447   0.1781    0.071     N
N       0.7447   0.8219    0.071     N
C       0.7454   0.2001   0.4451     C
C       0.7454   0.7999   0.4451     C
N        0.748   0.4139   0.8751     N
N        0.748   0.5861   0.8751     N
Cu        0.75     0.25      0.0    Cu
Cu        0.75     0.75      0.0    Cu
N        0.752   0.0861   0.1249     N
N        0.752   0.9139   0.1249     N
C       0.7546   0.2999   0.5549     C
C       0.7546   0.7001   0.5549     C
N       0.7553   0.3219    0.929     N
N       0.7553   0.6781    0.929     N
C       0.7579   0.3561   0.6126     C
C       0.7579   0.6439   0.6126     C
Cu     0.76073      0.0  0.15109    Cu
C       0.7648   0.1232   0.0683     C
C       0.7648   0.8768   0.0683     C
O       0.7743   0.1052   0.4004     O
O       0.7743   0.8948   0.4004     O
N       0.7774   0.3819   0.8329     N
N       0.7774   0.6181   0.8329     N
H       0.7786   0.1158   0.9496     H
H       0.7786   0.8842   0.9496     H
C       0.7807   0.3261   0.8649     C
C       0.7807   0.6739   0.8649     C
C       0.7833   0.2062   0.5135     C
C       0.7833   0.7938   0.5135     C
O       0.7846    0.295   0.1043     O
O       0.7846    0.705   0.1043     O
H       0.7864   0.2492   0.7969     H
H       0.7864   0.7508   0.7969     H
C       0.7892   0.2566   0.5712     C
C       0.7892   0.7434   0.5712     C
C       0.7964    0.107   0.0079     C
C       0.7964    0.893   0.0079     C
O       0.7976   0.3559   0.6732     O
O       0.7976   0.6441   0.6732     O
H       0.8041   0.0644    0.013     H
H       0.8041   0.9356    0.013     H
O       0.8063      0.5   0.8183     O
H       0.8075   0.1757   0.5246     H
H       0.8075   0.8243   0.5246     H
H       0.8085   0.3349   0.2535     H
H       0.8085   0.6651   0.2535     H
C       0.8089   0.2734   0.8392     C
C       0.8089   0.7266   0.8392     C
Cu     0.81065  0.42414  0.75286    Cu
Cu     0.81065  0.57586  0.75286    Cu
H       0.8164   0.2591   0.6186     H
H       0.8164   0.7409   0.6186     H
H       0.8225   0.2491   0.8894     H
H       0.8225   0.7509   0.8894     H
H        0.827     0.13   0.0217     H
H        0.827     0.87   0.0217     H
C        0.831   0.2869   0.1126     C
C        0.831   0.7131   0.1126     C
H       0.8333      0.5    0.863     H
H       0.8357   0.2882    0.815     H
H       0.8357   0.7118    0.815     H
C       0.8425   0.3406   0.2555     C
C       0.8425   0.6594   0.2555     C
N       0.8477   0.4685   0.6823     N
N       0.8477   0.5315   0.6823     N
O       0.8481   0.2564   0.0634     O
O       0.8481   0.7436   0.0634     O
H       0.8596   0.3874   0.3732     H
H       0.8596   0.6126   0.3732     H
C       0.8616   0.3182   0.1913     C
C       0.8616   0.6818   0.1913     C
C       0.8732   0.3734    0.328     C
C       0.8732   0.6266    0.328     C
H       0.8799   0.3608    0.653     H
H       0.8799   0.6392    0.653     H
H       0.8802   0.3798   0.5578     H
H       0.8802   0.6202   0.5578     H
C        0.881   0.4517   0.6372     C
C        0.881   0.5483   0.6372     C
C       0.8938   0.3885    0.618     C
C       0.8938   0.6115    0.618     C
N       0.9029      0.5   0.6062     N
C       0.9135   0.3232   0.1957     C
C       0.9135   0.6768   0.1957     C
C       0.9212   0.3829    0.328     C
C       0.9212   0.6171    0.328     C
H       0.9284   0.3051   0.1548     H
H       0.9284   0.6949   0.1548     H
H       0.9297   0.3839   0.6307     H
H       0.9297   0.6161   0.6307     H
O       0.9332   0.4384   0.4555     O
O       0.9332   0.5616   0.4555     O
C       0.9417   0.3575   0.2661     C
C       0.9417   0.6425   0.2661     C
C        0.953   0.4226   0.3969     C
C        0.953   0.5774   0.3969     C
Cu     0.96182      0.5  0.54203    Cu
H        0.976   0.3628   0.2699     H
H        0.976   0.6372   0.2699     H
O       0.9967   0.4388   0.3858     O
O       0.9967   0.5612   0.3858     O
