data_I
_chemical_name_common  '/home/zhangsd/repos/MofS-CGCNN/ML/data/TSD/clean_cifs/RUGGOR_clean'
_cell_length_a 11.41640
_cell_length_b  7.19850
_cell_length_c  6.64050
_cell_angle_alpha 90.00000
_cell_angle_beta  109.82900
_cell_angle_gamma 90.00000
_space_group_name_H-M_alt      'P 1'


loop_
_space_group_symop_operation_xyz
  'x, y, z' 

loop_
_atom_site_label
_atom_site_fract_x
_atom_site_fract_y
_atom_site_fract_z
_atom_site_type_symbol
C          0.0   0.6083      0.5     C
Eu         0.0   0.6766      0.0    Eu
H          0.0   0.7375      0.5     H
O       0.0086   0.5295   0.3383     O
O       0.1543   0.8385   0.8824     O
O       0.1736   0.4763    0.118     O
H        0.196   0.3375   0.8974     H
C       0.2365   0.3809   0.0356     C
C       0.2635   0.8809   0.9644     C
H        0.304   0.8375   0.1026     H
O       0.3264   0.9763    0.882     O
O       0.3457   0.3385   0.1176     O
O       0.4914   0.0295   0.6617     O
C          0.5   0.1083      0.5     C
Eu         0.5   0.1766      0.0    Eu
H          0.5   0.2375      0.5     H
O       0.5086   0.0295   0.3383     O
O       0.6543   0.3385   0.8824     O
O       0.6736   0.9763    0.118     O
H        0.696   0.8375   0.8974     H
C       0.7365   0.8809   0.0356     C
C       0.7635   0.3809   0.9644     C
H        0.804   0.3375   0.1026     H
O       0.8264   0.4763    0.882     O
O       0.8457   0.8385   0.1176     O
O       0.9914   0.5295   0.6617     O
