data_I
_chemical_name_common  '/home/zhangsd/repos/MofS-CGCNN/ML/data/TSD/clean_cifs/RUGHEI_clean'
_cell_length_a 11.33790
_cell_length_b  7.16770
_cell_length_c  6.60800
_cell_angle_alpha 90.00000
_cell_angle_beta  109.69000
_cell_angle_gamma 90.00000
_space_group_name_H-M_alt      'P 1'


loop_
_space_group_symop_operation_xyz
  'x, y, z' 

loop_
_atom_site_label
_atom_site_fract_x
_atom_site_fract_y
_atom_site_fract_z
_atom_site_type_symbol
H          0.0   0.4237      0.5     H
Tb         0.0   0.4874      0.0    Tb
C          0.0    0.553      0.5     C
O       0.0076   0.6331   0.3375     O
O       0.1535   0.3275   0.8812     O
O       0.1721   0.6837   0.1162     O
H       0.1949   0.8349   0.8988     H
C       0.2361   0.7864   0.0349     C
C       0.2639   0.2864   0.9651     C
H       0.3051   0.3349   0.1012     H
O       0.3279   0.1837   0.8838     O
O       0.3465   0.8275   0.1188     O
O       0.4924   0.1331   0.6625     O
C          0.5    0.053      0.5     C
H          0.5   0.9237      0.5     H
Tb         0.5   0.9874      0.0    Tb
O       0.5076   0.1331   0.3375     O
O       0.6535   0.8275   0.8812     O
O       0.6721   0.1837   0.1162     O
H       0.6949   0.3349   0.8988     H
C       0.7361   0.2864   0.0349     C
C       0.7639   0.7864   0.9651     C
H       0.8051   0.8349   0.1012     H
O       0.8279   0.6837   0.8838     O
O       0.8465   0.3275   0.1188     O
O       0.9924   0.6331   0.6625     O
