data_I
_chemical_name_common  '/home/zhangsd/repos/MofS-CGCNN/ML/data/TSD/clean_cifs/RUGHOS_clean'
_cell_length_a 11.24870
_cell_length_b  7.12960
_cell_length_c  6.57310
_cell_angle_alpha 90.00000
_cell_angle_beta  109.51000
_cell_angle_gamma 90.00000
_space_group_name_H-M_alt      'P 1'


loop_
_space_group_symop_operation_xyz
  'x, y, z' 

loop_
_atom_site_label
_atom_site_fract_x
_atom_site_fract_y
_atom_site_fract_z
_atom_site_type_symbol
C          0.0   0.8379      0.5     C
Ho         0.0   0.9047      0.0    Ho
H          0.0   0.9684      0.5     H
O       0.0075   0.7593   0.3353     O
O       0.1537   0.0642   0.8822     O
O       0.1706    0.707   0.1145     O
H       0.1955   0.5652   0.8958     H
C       0.2358   0.6093   0.0351     C
C       0.2642   0.1093   0.9649     C
H       0.3045   0.0652   0.1042     H
O       0.3294    0.207   0.8855     O
O       0.3463   0.5642   0.1178     O
O       0.4925   0.2593   0.6647     O
C          0.5   0.3379      0.5     C
Ho         0.5   0.4047      0.0    Ho
H          0.5   0.4684      0.5     H
O       0.5075   0.2593   0.3353     O
O       0.6537   0.5642   0.8822     O
O       0.6706    0.207   0.1145     O
H       0.6955   0.0652   0.8958     H
C       0.7358   0.1093   0.0351     C
C       0.7642   0.6093   0.9649     C
H       0.8045   0.5652   0.1042     H
O       0.8294    0.707   0.8855     O
O       0.8463   0.0642   0.1178     O
O       0.9925   0.7593   0.6647     O
