data_I
_chemical_name_common  '/home/zhangsd/repos/MofS-CGCNN/ML/data/TSD/clean_cifs/RUGJEK_clean'
_cell_length_a 11.08100
_cell_length_b  7.02260
_cell_length_c  6.48500
_cell_angle_alpha 90.00000
_cell_angle_beta  109.12900
_cell_angle_gamma 90.00000
_space_group_name_H-M_alt      'P 1'


loop_
_space_group_symop_operation_xyz
  'x, y, z' 

loop_
_atom_site_label
_atom_site_fract_x
_atom_site_fract_y
_atom_site_fract_z
_atom_site_type_symbol
H          0.0   0.1139      0.5     H
Lu         0.0   0.1813      0.0    Lu
C          0.0   0.2464      0.5     C
O       0.0062   0.3291   0.3329     O
O       0.1522   0.0201    0.878     O
O       0.1707   0.3745   0.1152     O
H       0.1954   0.5223   0.8942     H
C       0.2357   0.4758   0.0343     C
C       0.2643   0.9758   0.9657     C
H       0.3046   0.0223   0.1058     H
O       0.3293   0.8745   0.8848     O
O       0.3478   0.5201    0.122     O
O       0.4938   0.8291   0.6671     O
H          0.5   0.6139      0.5     H
Lu         0.5   0.6813      0.0    Lu
C          0.5   0.7464      0.5     C
O       0.5062   0.8291   0.3329     O
O       0.6522   0.5201    0.878     O
O       0.6707   0.8745   0.1152     O
H       0.6954   0.0223   0.8942     H
C       0.7357   0.9758   0.0343     C
C       0.7643   0.4758   0.9657     C
H       0.8046   0.5223   0.1058     H
O       0.8293   0.3745   0.8848     O
O       0.8478   0.0201    0.122     O
O       0.9938   0.3291   0.6671     O
