data_I
_chemical_name_common  '/home/zhangsd/repos/MofS-CGCNN/ML/data/TSD/clean_cifs/RUGPEQ_clean'
_cell_length_a 11.78650
_cell_length_b 16.71600
_cell_length_c 52.89200
_cell_angle_alpha 90.00000
_cell_angle_beta  90.00000
_cell_angle_gamma 90.00000
_space_group_name_H-M_alt      'P 1'


loop_
_space_group_symop_operation_xyz
  'x, y, z' 

loop_
_atom_site_label
_atom_site_fract_x
_atom_site_fract_y
_atom_site_fract_z
_atom_site_type_symbol
C          0.0   0.1398  0.11961     C
C          0.0   0.1398  0.38039     C
C          0.0   0.8602  0.61961     C
C          0.0   0.8602  0.88039     C
C       0.0136   0.0763   0.3131     C
C       0.0136   0.9237   0.8131     C
O       0.0152  0.40376  0.92158     O
O       0.0152  0.59624  0.42158     O
O       0.0174  0.24122  0.84882     O
O       0.0174  0.75878  0.34882     O
N       0.0234   0.1164  0.14448     N
N       0.0234   0.8836  0.64448     N
Cd      0.0249  0.32415  0.88513    Cd
Cd      0.0249  0.67585  0.38513    Cd
C       0.0271   0.1865  0.43103     C
C       0.0271   0.8135  0.93103     C
O       0.0352   0.2302  0.80783     O
C       0.0352    0.247  0.00224     C
C       0.0352    0.753  0.50224     C
O       0.0352   0.7698  0.30783     O
C       0.0405   0.2139  0.45737     C
C       0.0405   0.7861  0.95737     C
C       0.0456   0.1224  0.33392     C
C       0.0456   0.8776  0.83392     C
H       0.0493   0.0486   0.2772     H
H       0.0493   0.9514   0.7772     H
H       0.0494    0.043   0.1857     H
H       0.0494    0.957   0.6857     H
C        0.051   0.2184  0.02638     C
C        0.051   0.7816  0.52638     C
O       0.0596  0.42676   0.8261     O
O       0.0596  0.57324   0.3261     O
C       0.0597   0.2075  0.82965     C
C       0.0597   0.7925  0.32965     C
N       0.0631   0.2674   0.5078     N
N       0.0631   0.7326   0.0078     N
Cd     0.06716  0.30678  0.54942    Cd
Cd     0.06716  0.69322  0.04942    Cd
O       0.0698   0.4033  0.96091     O
O       0.0698   0.5967  0.46091     O
H       0.0703   0.4557   0.4039     H
H       0.0703   0.5443   0.9039     H
C       0.0736   0.0793  0.29083     C
C       0.0736   0.9207  0.79083     C
C       0.0739   0.4327  0.93931     C
C       0.0739   0.5673  0.43931     C
H       0.0773   0.2733   0.7337     H
H       0.0773   0.7267   0.2337     H
O       0.0779    0.224  0.94215     O
O       0.0779    0.776  0.44215     O
C       0.0808   0.1794     0.08     C
C       0.0808   0.8206     0.58     C
Cd     0.08465  0.33579  0.67779    Cd
Cd     0.08465  0.66421  0.17779    Cd
C       0.0935   0.1577  0.10447     C
C       0.0935   0.8423  0.60447     C
H       0.0993   0.2525   0.9921     H
H       0.0993   0.7475   0.4921     H
H       0.0995   0.1147   0.8692     H
H       0.0995   0.8853   0.3692     H
C       0.1066    0.146  0.39072     C
C       0.1066    0.854  0.89072     C
H       0.1092   0.1592   0.6284     H
H       0.1092   0.8408   0.1284     H
C       0.1188    0.168  0.41532     C
C       0.1188    0.832  0.91532     C
O       0.1221  0.26141  0.59307     O
O       0.1221  0.73859  0.09307     O
H       0.1226   0.2021   0.0317     H
H       0.1226   0.7979   0.5317     H
O       0.1246   0.3826  0.63392     O
O       0.1246   0.6174  0.13392     O
C       0.1272   0.4414  0.84315     C
C       0.1272   0.5586  0.34315     C
C       0.1295   0.4458  0.41509     C
C       0.1295   0.5542  0.91509     C
C       0.1306   0.3135  0.73629     C
C       0.1306   0.6865  0.23629     C
O       0.1338  0.40806  0.86437     O
O       0.1338  0.59194  0.36437     O
H       0.1352   0.4762   0.5956     H
H       0.1352   0.5238   0.0956     H
H       0.1367   0.0954   0.9585     H
H       0.1367   0.9046   0.4585     H
C       0.1385   0.2066  0.92366     C
C       0.1385   0.7934  0.42366     C
C       0.1394     0.23  0.46807     C
C       0.1394     0.77  0.96807     C
C       0.1398   0.1385   0.8332     C
C       0.1398   0.8615   0.3332     C
C        0.141   0.1697  0.33153     C
C        0.141   0.8303  0.83153     C
O       0.1424  0.24051  0.90306     O
O       0.1424  0.75949  0.40306     O
C       0.1436   0.2597  0.49264     C
C       0.1436   0.7403  0.99264     C
H       0.1448   0.1898   0.0703     H
H       0.1448   0.8102   0.5703     H
C       0.1454   0.0989  0.85579     C
C       0.1454   0.9011  0.35579     C
C       0.1473   0.4968  0.43473     C
C       0.1473   0.5032  0.93473     C
N       0.1483   0.3622  0.71779     N
N       0.1483   0.6378  0.21779     N
C       0.1622   0.1233  0.62199     C
C       0.1622   0.8767  0.12199     C
H       0.1639   0.2796   0.7725     H
H       0.1639   0.7204   0.2725     H
H        0.164   0.0342   0.2474     H
H        0.164   0.9658   0.7474     H
H       0.1656   0.2005   0.3451     H
H       0.1656   0.7995   0.8451     H
H        0.166   0.1546   0.1113     H
H        0.166   0.8454   0.6113     H
C       0.1677   0.1261  0.28815     C
C       0.1677   0.8739  0.78815     C
H       0.1692   0.0533   0.6526     H
H       0.1692   0.9467   0.1526     H
H       0.1703   0.1353   0.3809     H
H       0.1703   0.8647   0.8809     H
C       0.1707   0.2043   0.5825     C
C       0.1707   0.7957   0.0825     C
H       0.1741   0.4679    0.303     H
H       0.1741   0.5321    0.803     H
H        0.183   0.3462    0.398     H
H        0.183   0.6538    0.898     H
C       0.1843   0.3157  0.75988     C
C       0.1843   0.6843  0.25988     C
C       0.1852   0.4865  0.10235     C
C       0.1852   0.5135  0.60235     C
C       0.1877   0.4367  0.64278     C
C       0.1877   0.5633  0.14278     C
H        0.189    0.413   0.0722     H
H        0.189    0.587   0.5722     H
O       0.1906  0.20462   0.5593     O
O       0.1906  0.79538   0.0593     O
H       0.1916   0.1708    0.422     H
H       0.1916   0.8292    0.922     H
C       0.1966   0.0853  0.94748     C
C       0.1966   0.9147  0.44748     C
C       0.1967   0.0594  0.63624     C
C       0.1967   0.9406  0.13624     C
C       0.1973   0.3804  0.41151     C
C       0.1973   0.6196  0.91151     C
H       0.1996   0.1351   0.7972     H
H       0.1996   0.8649   0.2972     H
C       0.1998   0.1714  0.30897     C
C       0.1998   0.8286  0.80897     C
C       0.2061   0.1111  0.81303     C
C       0.2061   0.8889  0.31303     C
H       0.2063   0.2214   0.4592     H
H       0.2063   0.7786   0.9592     H
C       0.2069   0.1342  0.59792     C
C       0.2069   0.8658  0.09792     C
C       0.2104   0.4894  0.33957     C
C       0.2104   0.5106  0.83957     C
H       0.2145   0.2758   0.4984     H
H       0.2145   0.7242   0.9984     H
C       0.2151   0.1353  0.92735     C
C       0.2151   0.8647  0.42735     C
C       0.2159   0.0757  0.24533     C
C       0.2159   0.9243  0.74533     C
C       0.2183   0.4204  0.08838     C
C       0.2183   0.5796  0.58838     C
C       0.2191   0.0354  0.85875     C
C       0.2191   0.9646  0.35875     C
C       0.2192   0.4512  0.31639     C
C       0.2192   0.5488  0.81639     C
O       0.2195   0.4337  0.66524     O
O       0.2195   0.5663  0.16524     O
H       0.2211   0.0086   0.8742     H
H       0.2211   0.9914   0.3742     H
C       0.2242   0.4165  0.72303     C
C       0.2242   0.5835  0.22303     C
C        0.228   0.4961  0.12655     C
C        0.228   0.5039  0.62655     C
C       0.2336   0.1292   0.2643     C
C       0.2336   0.8708   0.7643     C
C       0.2339   0.4802  0.45158     C
C       0.2339   0.5198  0.95158     C
H       0.2366   0.2959   0.8077     H
H       0.2366   0.7041   0.3077     H
H       0.2396   0.4538   0.7104     H
H       0.2396   0.5462   0.2104     H
H       0.2454   0.4871   0.9656     H
H       0.2454   0.5129   0.4656     H
H       0.2546   0.0129   0.4656     H
H       0.2546   0.9871   0.9656     H
H       0.2604   0.0462   0.2104     H
H       0.2604   0.9538   0.7104     H
H       0.2634   0.2041   0.3077     H
H       0.2634   0.7959   0.8077     H
C       0.2661   0.0198  0.95158     C
C       0.2661   0.9802  0.45158     C
C       0.2664   0.3708   0.7643     C
C       0.2664   0.6292   0.2643     C
C        0.272   0.0039  0.62655     C
C        0.272   0.9961  0.12655     C
C       0.2758   0.0835  0.22303     C
C       0.2758   0.9165  0.72303     C
H       0.2789   0.4914   0.3742     H
H       0.2789   0.5086   0.8742     H
O       0.2805   0.0663  0.16524     O
O       0.2805   0.9337  0.66524     O
C       0.2808   0.0488  0.81639     C
C       0.2808   0.9512  0.31639     C
C       0.2809   0.4646  0.35875     C
C       0.2809   0.5354  0.85875     C
C       0.2817   0.0796  0.58838     C
C       0.2817   0.9204  0.08838     C
C       0.2841   0.4243  0.74533     C
C       0.2841   0.5757  0.24533     C
C       0.2849   0.3647  0.42735     C
C       0.2849   0.6353  0.92735     C
H       0.2855   0.2242   0.9984     H
H       0.2855   0.7758   0.4984     H
C       0.2896   0.0106  0.83957     C
C       0.2896   0.9894  0.33957     C
C       0.2931   0.3658  0.09792     C
C       0.2931   0.6342  0.59792     C
H       0.2937   0.2786   0.9592     H
H       0.2937   0.7214   0.4592     H
C       0.2939   0.3889  0.31303     C
C       0.2939   0.6111  0.81303     C
C       0.3002   0.3286  0.80897     C
C       0.3002   0.6714  0.30897     C
H       0.3004   0.3649   0.2972     H
H       0.3004   0.6351   0.7972     H
C       0.3027   0.1196  0.91151     C
C       0.3027   0.8804  0.41151     C
C       0.3033   0.4406  0.13624     C
C       0.3033   0.5594  0.63624     C
C       0.3034   0.4147  0.44748     C
C       0.3034   0.5853  0.94748     C
H       0.3084   0.3292    0.922     H
H       0.3084   0.6708    0.422     H
O       0.3094  0.29538   0.0593     O
O       0.3094  0.70462   0.5593     O
H        0.311    0.087   0.5722     H
H        0.311    0.913   0.0722     H
C       0.3123   0.0633  0.14278     C
C       0.3123   0.9367  0.64278     C
C       0.3148   0.0135  0.60235     C
C       0.3148   0.9865  0.10235     C
C       0.3157   0.1843  0.25988     C
C       0.3157   0.8157  0.75988     C
H        0.317   0.1538    0.898     H
H        0.317   0.8462    0.398     H
H       0.3259   0.0321    0.803     H
H       0.3259   0.9679    0.303     H
C       0.3293   0.2957   0.0825     C
C       0.3293   0.7043   0.5825     C
H       0.3297   0.3647   0.8809     H
H       0.3297   0.6353   0.3809     H
H       0.3308   0.4467   0.1526     H
H       0.3308   0.5533   0.6526     H
C       0.3323   0.3739  0.78815     C
C       0.3323   0.6261  0.28815     C
H        0.334   0.3454   0.6113     H
H        0.334   0.6546   0.1113     H
H       0.3344   0.2995   0.8451     H
H       0.3344   0.7005   0.3451     H
H        0.336   0.4658   0.7474     H
H        0.336   0.5342   0.2474     H
H       0.3361   0.2204   0.2725     H
H       0.3361   0.7796   0.7725     H
C       0.3378   0.3767  0.12199     C
C       0.3378   0.6233  0.62199     C
N       0.3517   0.1378  0.21779     N
N       0.3517   0.8622  0.71779     N
C       0.3527   0.0032  0.93473     C
C       0.3527   0.9968  0.43473     C
C       0.3546   0.4011  0.35579     C
C       0.3546   0.5989  0.85579     C
H       0.3552   0.3102   0.5703     H
H       0.3552   0.6898   0.0703     H
C       0.3564   0.2403  0.99264     C
C       0.3564   0.7597  0.49264     C
O       0.3576  0.25949  0.40306     O
O       0.3576  0.74051  0.90306     O
C        0.359   0.3303  0.83153     C
C        0.359   0.6697  0.33153     C
C       0.3602   0.3615   0.3332     C
C       0.3602   0.6385   0.8332     C
C       0.3606     0.27  0.96807     C
C       0.3606     0.73  0.46807     C
C       0.3615   0.2934  0.42366     C
C       0.3615   0.7066  0.92366     C
H       0.3633   0.4046   0.4585     H
H       0.3633   0.5954   0.9585     H
H       0.3648   0.0238   0.0956     H
H       0.3648   0.9762   0.5956     H
O       0.3662  0.09194  0.36437     O
O       0.3662  0.90806  0.86437     O
C       0.3694   0.1865  0.23629     C
C       0.3694   0.8135  0.73629     C
C       0.3705   0.0542  0.91509     C
C       0.3705   0.9458  0.41509     C
C       0.3728   0.0586  0.34315     C
C       0.3728   0.9414  0.84315     C
O       0.3754   0.1174  0.13392     O
O       0.3754   0.8826  0.63392     O
H       0.3774   0.2979   0.5317     H
H       0.3774   0.7021   0.0317     H
O       0.3779  0.23859  0.09307     O
O       0.3779  0.76141  0.59307     O
C       0.3812    0.332  0.91532     C
C       0.3812    0.668  0.41532     C
H       0.3908   0.3408   0.1284     H
H       0.3908   0.6592   0.6284     H
C       0.3934    0.354  0.89072     C
C       0.3934    0.646  0.39072     C
H       0.4005   0.3853   0.3692     H
H       0.4005   0.6147   0.8692     H
H       0.4007   0.2475   0.4921     H
H       0.4007   0.7525   0.9921     H
C       0.4065   0.3423  0.60447     C
C       0.4065   0.6577  0.10447     C
Cd     0.41535  0.16421  0.17779    Cd
Cd     0.41535  0.83579  0.67779    Cd
C       0.4192   0.3206     0.58     C
C       0.4192   0.6794     0.08     C
O       0.4221    0.276  0.44215     O
O       0.4221    0.724  0.94215     O
H       0.4227   0.2267   0.2337     H
H       0.4227   0.7733   0.7337     H
C       0.4261   0.0673  0.43931     C
C       0.4261   0.9327  0.93931     C
C       0.4264   0.4207  0.79083     C
C       0.4264   0.5793  0.29083     C
H       0.4297   0.0443   0.9039     H
H       0.4297   0.9557   0.4039     H
O       0.4302   0.0967  0.46091     O
O       0.4302   0.9033  0.96091     O
Cd     0.43284  0.19322  0.04942    Cd
Cd     0.43284  0.80678  0.54942    Cd
N       0.4369   0.2326   0.0078     N
N       0.4369   0.7674   0.5078     N
C       0.4403   0.2925  0.32965     C
C       0.4403   0.7075  0.82965     C
O       0.4404  0.07324   0.3261     O
O       0.4404  0.92676   0.8261     O
C        0.449   0.2816  0.52638     C
C        0.449   0.7184  0.02638     C
H       0.4506    0.457   0.6857     H
H       0.4506    0.543   0.1857     H
H       0.4507   0.4514   0.7772     H
H       0.4507   0.5486   0.2772     H
C       0.4544   0.3776  0.83392     C
C       0.4544   0.6224  0.33392     C
C       0.4595   0.2861  0.95737     C
C       0.4595   0.7139  0.45737     C
C       0.4648    0.253  0.50224     C
O       0.4648   0.2698  0.30783     O
O       0.4648   0.7302  0.80783     O
C       0.4648    0.747  0.00224     C
C       0.4729   0.3135  0.93103     C
C       0.4729   0.6865  0.43103     C
Cd      0.4751  0.17585  0.38513    Cd
Cd      0.4751  0.82415  0.88513    Cd
N       0.4766   0.3836  0.64448     N
N       0.4766   0.6164  0.14448     N
O       0.4826  0.25878  0.34882     O
O       0.4826  0.74122  0.84882     O
O       0.4848  0.09624  0.42158     O
O       0.4848  0.90376  0.92158     O
C       0.4864   0.4237   0.8131     C
C       0.4864   0.5763   0.3131     C
C          0.5   0.3602  0.61961     C
C          0.5   0.3602  0.88039     C
C          0.5   0.6398  0.11961     C
C          0.5   0.6398  0.38039     C
C       0.5136   0.4237   0.6869     C
C       0.5136   0.5763   0.1869     C
O       0.5152  0.09624  0.07842     O
O       0.5152  0.90376  0.57842     O
O       0.5174  0.25878  0.15118     O
O       0.5174  0.74122  0.65118     O
N       0.5234   0.3836  0.85552     N
N       0.5234   0.6164  0.35552     N
Cd      0.5249  0.17585  0.11487    Cd
Cd      0.5249  0.82415  0.61487    Cd
C       0.5271   0.3135  0.56897     C
C       0.5271   0.6865  0.06897     C
C       0.5352    0.253  0.99776     C
O       0.5352   0.2698  0.19217     O
O       0.5352   0.7302  0.69217     O
C       0.5352    0.747  0.49776     C
C       0.5405   0.2861  0.54263     C
C       0.5405   0.7139  0.04263     C
C       0.5456   0.3776  0.66608     C
C       0.5456   0.6224  0.16608     C
H       0.5493   0.4514   0.7228     H
H       0.5493   0.5486   0.2228     H
H       0.5494    0.457   0.8143     H
H       0.5494    0.543   0.3143     H
C        0.551   0.2816  0.97362     C
C        0.551   0.7184  0.47362     C
O       0.5596  0.07324   0.1739     O
O       0.5596  0.92676   0.6739     O
C       0.5597   0.2925  0.17035     C
C       0.5597   0.7075  0.67035     C
N       0.5631   0.2326   0.4922     N
N       0.5631   0.7674   0.9922     N
Cd     0.56716  0.19322  0.45058    Cd
Cd     0.56716  0.80678  0.95058    Cd
O       0.5698   0.0967  0.03909     O
O       0.5698   0.9033  0.53909     O
H       0.5703   0.0443   0.5961     H
H       0.5703   0.9557   0.0961     H
C       0.5736   0.4207  0.70917     C
C       0.5736   0.5793  0.20917     C
C       0.5739   0.0673  0.06069     C
C       0.5739   0.9327  0.56069     C
H       0.5773   0.2267   0.2663     H
H       0.5773   0.7733   0.7663     H
O       0.5779    0.276  0.05785     O
O       0.5779    0.724  0.55785     O
C       0.5808   0.3206     0.92     C
C       0.5808   0.6794     0.42     C
Cd     0.58465  0.16421  0.32221    Cd
Cd     0.58465  0.83579  0.82221    Cd
C       0.5935   0.3423  0.89553     C
C       0.5935   0.6577  0.39553     C
H       0.5993   0.2475   0.0079     H
H       0.5993   0.7525   0.5079     H
H       0.5995   0.3853   0.1308     H
H       0.5995   0.6147   0.6308     H
C       0.6066    0.354  0.60928     C
C       0.6066    0.646  0.10928     C
H       0.6092   0.3408   0.3716     H
H       0.6092   0.6592   0.8716     H
C       0.6188    0.332  0.58468     C
C       0.6188    0.668  0.08468     C
O       0.6221  0.23859  0.40693     O
O       0.6221  0.76141  0.90693     O
H       0.6226   0.2979   0.9683     H
H       0.6226   0.7021   0.4683     H
O       0.6246   0.1174  0.36608     O
O       0.6246   0.8826  0.86608     O
C       0.6272   0.0586  0.15685     C
C       0.6272   0.9414  0.65685     C
C       0.6295   0.0542  0.58491     C
C       0.6295   0.9458  0.08491     C
C       0.6306   0.1865  0.26371     C
C       0.6306   0.8135  0.76371     C
O       0.6338  0.09194  0.13563     O
O       0.6338  0.90806  0.63563     O
H       0.6352   0.0238   0.4044     H
H       0.6352   0.9762   0.9044     H
H       0.6367   0.4046   0.0415     H
H       0.6367   0.5954   0.5415     H
C       0.6385   0.2934  0.07634     C
C       0.6385   0.7066  0.57634     C
C       0.6394     0.27  0.53193     C
C       0.6394     0.73  0.03193     C
C       0.6398   0.3615   0.1668     C
C       0.6398   0.6385   0.6668     C
C        0.641   0.3303  0.66847     C
C        0.641   0.6697  0.16847     C
O       0.6424  0.25949  0.09694     O
O       0.6424  0.74051  0.59694     O
C       0.6436   0.2403  0.50736     C
C       0.6436   0.7597  0.00736     C
H       0.6448   0.3102   0.9297     H
H       0.6448   0.6898   0.4297     H
C       0.6454   0.4011  0.14421     C
C       0.6454   0.5989  0.64421     C
C       0.6473   0.0032  0.56527     C
C       0.6473   0.9968  0.06527     C
N       0.6483   0.1378  0.28221     N
N       0.6483   0.8622  0.78221     N
C       0.6622   0.3767  0.37801     C
C       0.6622   0.6233  0.87801     C
H       0.6639   0.2204   0.2275     H
H       0.6639   0.7796   0.7275     H
H        0.664   0.4658   0.7526     H
H        0.664   0.5342   0.2526     H
H       0.6656   0.2995   0.6549     H
H       0.6656   0.7005   0.1549     H
H        0.666   0.3454   0.8887     H
H        0.666   0.6546   0.3887     H
C       0.6677   0.3739  0.71185     C
C       0.6677   0.6261  0.21185     C
H       0.6692   0.4467   0.3474     H
H       0.6692   0.5533   0.8474     H
H       0.6703   0.3647   0.6191     H
H       0.6703   0.6353   0.1191     H
C       0.6707   0.2957   0.4175     C
C       0.6707   0.7043   0.9175     C
H       0.6741   0.0321    0.697     H
H       0.6741   0.9679    0.197     H
H        0.683   0.1538    0.602     H
H        0.683   0.8462    0.102     H
C       0.6843   0.1843  0.24012     C
C       0.6843   0.8157  0.74012     C
C       0.6852   0.0135  0.89765     C
C       0.6852   0.9865  0.39765     C
C       0.6877   0.0633  0.35722     C
C       0.6877   0.9367  0.85722     C
H        0.689    0.087   0.9278     H
H        0.689    0.913   0.4278     H
O       0.6906  0.29538   0.4407     O
O       0.6906  0.70462   0.9407     O
H       0.6916   0.3292    0.578     H
H       0.6916   0.6708    0.078     H
C       0.6966   0.4147  0.05252     C
C       0.6966   0.5853  0.55252     C
C       0.6967   0.4406  0.36376     C
C       0.6967   0.5594  0.86376     C
C       0.6973   0.1196  0.58849     C
C       0.6973   0.8804  0.08849     C
H       0.6996   0.3649   0.2028     H
H       0.6996   0.6351   0.7028     H
C       0.6998   0.3286  0.69103     C
C       0.6998   0.6714  0.19103     C
C       0.7061   0.3889  0.18697     C
C       0.7061   0.6111  0.68697     C
H       0.7063   0.2786   0.5408     H
H       0.7063   0.7214   0.0408     H
C       0.7069   0.3658  0.40208     C
C       0.7069   0.6342  0.90208     C
C       0.7104   0.0106  0.66043     C
C       0.7104   0.9894  0.16043     C
H       0.7145   0.2242   0.5016     H
H       0.7145   0.7758   0.0016     H
C       0.7151   0.3647  0.07265     C
C       0.7151   0.6353  0.57265     C
C       0.7159   0.4243  0.75467     C
C       0.7159   0.5757  0.25467     C
C       0.7183   0.0796  0.91162     C
C       0.7183   0.9204  0.41162     C
C       0.7191   0.4646  0.14125     C
C       0.7191   0.5354  0.64125     C
C       0.7192   0.0488  0.68361     C
C       0.7192   0.9512  0.18361     C
O       0.7195   0.0663  0.33476     O
O       0.7195   0.9337  0.83476     O
H       0.7211   0.4914   0.1258     H
H       0.7211   0.5086   0.6258     H
C       0.7242   0.0835  0.27697     C
C       0.7242   0.9165  0.77697     C
C        0.728   0.0039  0.87345     C
C        0.728   0.9961  0.37345     C
C       0.7336   0.3708   0.7357     C
C       0.7336   0.6292   0.2357     C
C       0.7339   0.0198  0.54842     C
C       0.7339   0.9802  0.04842     C
H       0.7366   0.2041   0.1923     H
H       0.7366   0.7959   0.6923     H
H       0.7396   0.0462   0.2896     H
H       0.7396   0.9538   0.7896     H
H       0.7454   0.0129   0.0344     H
H       0.7454   0.9871   0.5344     H
H       0.7546   0.4871   0.5344     H
H       0.7546   0.5129   0.0344     H
H       0.7604   0.4538   0.7896     H
H       0.7604   0.5462   0.2896     H
H       0.7634   0.2959   0.6923     H
H       0.7634   0.7041   0.1923     H
C       0.7661   0.4802  0.04842     C
C       0.7661   0.5198  0.54842     C
C       0.7664   0.1292   0.2357     C
C       0.7664   0.8708   0.7357     C
C        0.772   0.4961  0.37345     C
C        0.772   0.5039  0.87345     C
C       0.7758   0.4165  0.77697     C
C       0.7758   0.5835  0.27697     C
H       0.7789   0.0086   0.6258     H
H       0.7789   0.9914   0.1258     H
O       0.7805   0.4337  0.83476     O
O       0.7805   0.5663  0.33476     O
C       0.7808   0.4512  0.18361     C
C       0.7808   0.5488  0.68361     C
C       0.7809   0.0354  0.64125     C
C       0.7809   0.9646  0.14125     C
C       0.7817   0.4204  0.41162     C
C       0.7817   0.5796  0.91162     C
C       0.7841   0.0757  0.25467     C
C       0.7841   0.9243  0.75467     C
C       0.7849   0.1353  0.57265     C
C       0.7849   0.8647  0.07265     C
H       0.7855   0.2758   0.0016     H
H       0.7855   0.7242   0.5016     H
C       0.7896   0.4894  0.16043     C
C       0.7896   0.5106  0.66043     C
C       0.7931   0.1342  0.90208     C
C       0.7931   0.8658  0.40208     C
H       0.7937   0.2214   0.0408     H
H       0.7937   0.7786   0.5408     H
C       0.7939   0.1111  0.68697     C
C       0.7939   0.8889  0.18697     C
C       0.8002   0.1714  0.19103     C
C       0.8002   0.8286  0.69103     C
H       0.8004   0.1351   0.7028     H
H       0.8004   0.8649   0.2028     H
C       0.8027   0.3804  0.08849     C
C       0.8027   0.6196  0.58849     C
C       0.8033   0.0594  0.86376     C
C       0.8033   0.9406  0.36376     C
C       0.8034   0.0853  0.55252     C
C       0.8034   0.9147  0.05252     C
H       0.8084   0.1708    0.078     H
H       0.8084   0.8292    0.578     H
O       0.8094  0.20462   0.9407     O
O       0.8094  0.79538   0.4407     O
H        0.811    0.413   0.4278     H
H        0.811    0.587   0.9278     H
C       0.8123   0.4367  0.85722     C
C       0.8123   0.5633  0.35722     C
C       0.8148   0.4865  0.39765     C
C       0.8148   0.5135  0.89765     C
C       0.8157   0.3157  0.74012     C
C       0.8157   0.6843  0.24012     C
H        0.817   0.3462    0.102     H
H        0.817   0.6538    0.602     H
H       0.8259   0.4679    0.197     H
H       0.8259   0.5321    0.697     H
C       0.8293   0.2043   0.9175     C
C       0.8293   0.7957   0.4175     C
H       0.8297   0.1353   0.1191     H
H       0.8297   0.8647   0.6191     H
H       0.8308   0.0533   0.8474     H
H       0.8308   0.9467   0.3474     H
C       0.8323   0.1261  0.21185     C
C       0.8323   0.8739  0.71185     C
H        0.834   0.1546   0.3887     H
H        0.834   0.8454   0.8887     H
H       0.8344   0.2005   0.1549     H
H       0.8344   0.7995   0.6549     H
H        0.836   0.0342   0.2526     H
H        0.836   0.9658   0.7526     H
H       0.8361   0.2796   0.7275     H
H       0.8361   0.7204   0.2275     H
C       0.8378   0.1233  0.87801     C
C       0.8378   0.8767  0.37801     C
N       0.8517   0.3622  0.78221     N
N       0.8517   0.6378  0.28221     N
C       0.8527   0.4968  0.06527     C
C       0.8527   0.5032  0.56527     C
C       0.8546   0.0989  0.64421     C
C       0.8546   0.9011  0.14421     C
H       0.8552   0.1898   0.4297     H
H       0.8552   0.8102   0.9297     H
C       0.8564   0.2597  0.00736     C
C       0.8564   0.7403  0.50736     C
O       0.8576  0.24051  0.59694     O
O       0.8576  0.75949  0.09694     O
C        0.859   0.1697  0.16847     C
C        0.859   0.8303  0.66847     C
C       0.8602   0.1385   0.6668     C
C       0.8602   0.8615   0.1668     C
C       0.8606     0.23  0.03193     C
C       0.8606     0.77  0.53193     C
C       0.8615   0.2066  0.57634     C
C       0.8615   0.7934  0.07634     C
H       0.8633   0.0954   0.5415     H
H       0.8633   0.9046   0.0415     H
H       0.8648   0.4762   0.9044     H
H       0.8648   0.5238   0.4044     H
O       0.8662  0.40806  0.63563     O
O       0.8662  0.59194  0.13563     O
C       0.8694   0.3135  0.76371     C
C       0.8694   0.6865  0.26371     C
C       0.8705   0.4458  0.08491     C
C       0.8705   0.5542  0.58491     C
C       0.8728   0.4414  0.65685     C
C       0.8728   0.5586  0.15685     C
O       0.8754   0.3826  0.86608     O
O       0.8754   0.6174  0.36608     O
H       0.8774   0.2021   0.4683     H
H       0.8774   0.7979   0.9683     H
O       0.8779  0.26141  0.90693     O
O       0.8779  0.73859  0.40693     O
C       0.8812    0.168  0.08468     C
C       0.8812    0.832  0.58468     C
H       0.8908   0.1592   0.8716     H
H       0.8908   0.8408   0.3716     H
C       0.8934    0.146  0.10928     C
C       0.8934    0.854  0.60928     C
H       0.9005   0.1147   0.6308     H
H       0.9005   0.8853   0.1308     H
H       0.9007   0.2525   0.5079     H
H       0.9007   0.7475   0.0079     H
C       0.9065   0.1577  0.39553     C
C       0.9065   0.8423  0.89553     C
Cd     0.91535  0.33579  0.82221    Cd
Cd     0.91535  0.66421  0.32221    Cd
C       0.9192   0.1794     0.42     C
C       0.9192   0.8206     0.92     C
O       0.9221    0.224  0.55785     O
O       0.9221    0.776  0.05785     O
H       0.9227   0.2733   0.7663     H
H       0.9227   0.7267   0.2663     H
C       0.9261   0.4327  0.56069     C
C       0.9261   0.5673  0.06069     C
C       0.9264   0.0793  0.20917     C
C       0.9264   0.9207  0.70917     C
H       0.9297   0.4557   0.0961     H
H       0.9297   0.5443   0.5961     H
O       0.9302   0.4033  0.53909     O
O       0.9302   0.5967  0.03909     O
Cd     0.93284  0.30678  0.95058    Cd
Cd     0.93284  0.69322  0.45058    Cd
N       0.9369   0.2674   0.9922     N
N       0.9369   0.7326   0.4922     N
C       0.9403   0.2075  0.67035     C
C       0.9403   0.7925  0.17035     C
O       0.9404  0.42676   0.6739     O
O       0.9404  0.57324   0.1739     O
C        0.949   0.2184  0.47362     C
C        0.949   0.7816  0.97362     C
H       0.9506    0.043   0.3143     H
H       0.9506    0.957   0.8143     H
H       0.9507   0.0486   0.2228     H
H       0.9507   0.9514   0.7228     H
C       0.9544   0.1224  0.16608     C
C       0.9544   0.8776  0.66608     C
C       0.9595   0.2139  0.04263     C
C       0.9595   0.7861  0.54263     C
O       0.9648   0.2302  0.69217     O
C       0.9648    0.247  0.49776     C
C       0.9648    0.753  0.99776     C
O       0.9648   0.7698  0.19217     O
C       0.9729   0.1865  0.06897     C
C       0.9729   0.8135  0.56897     C
Cd      0.9751  0.32415  0.61487    Cd
Cd      0.9751  0.67585  0.11487    Cd
N       0.9766   0.1164  0.35552     N
N       0.9766   0.8836  0.85552     N
O       0.9826  0.24122  0.65118     O
O       0.9826  0.75878  0.15118     O
O       0.9848  0.40376  0.57842     O
O       0.9848  0.59624  0.07842     O
C       0.9864   0.0763   0.1869     C
C       0.9864   0.9237   0.6869     C
