data_I
_chemical_name_common  '/home/zhangsd/repos/MofS-CGCNN/ML/data/TSD/clean_cifs/RUGYOJ_clean'
_cell_length_a 14.61630
_cell_length_b 23.16390
_cell_length_c 15.71130
_cell_angle_alpha 90.00000
_cell_angle_beta  108.06100
_cell_angle_gamma 90.00000
_space_group_name_H-M_alt      'P 1'


loop_
_space_group_symop_operation_xyz
  'x, y, z' 

loop_
_atom_site_label
_atom_site_fract_x
_atom_site_fract_y
_atom_site_fract_z
_atom_site_type_symbol
C       0.0025   0.6536   0.8683     C
C       0.0025   0.8464   0.3683     C
C       0.0042   0.2114    0.616     C
C       0.0042   0.2886    0.116     C
H       0.0514   0.7334   0.9059     H
H       0.0514   0.7666   0.4059     H
H       0.0789   0.0816    0.672     H
H       0.0789   0.4184    0.172     H
C       0.0824   0.1211    0.663     C
C       0.0824   0.3789    0.163     C
C       0.0934   0.2372   0.6327     C
C       0.0934   0.2628   0.1327     C
H        0.097   0.2236   0.1213     H
H        0.097   0.2764   0.6213     H
C        0.099   0.6271   0.8844     C
C        0.099   0.8729   0.3844     C
O        0.102  0.57225   0.8809     O
O        0.102  0.92775   0.3809     O
O       0.1699  0.65487   0.9006     O
O       0.1699  0.84513   0.4006     O
C       0.1718   0.1475   0.6806     C
C       0.1718   0.3525   0.1806     C
C       0.1775   0.2057   0.6662     C
C       0.1775   0.2943   0.1662     C
O       0.1846   0.6028   0.7167     O
O       0.1846   0.8972   0.2167     O
H       0.1871   0.2242   0.2982     H
H       0.1871   0.2758   0.7982     H
H       0.2012   0.1315   0.3568     H
H       0.2012   0.3685   0.8568     H
H       0.2094   0.5273   0.1875     H
H       0.2094   0.9727   0.6875     H
H       0.2099   0.0032   0.8278     H
H       0.2099   0.4968   0.3278     H
H       0.2163   0.5047   0.6628     H
H       0.2163   0.9953   0.1628     H
H       0.2277   0.1257   0.7022     H
H       0.2277   0.3743   0.2022     H
C       0.2296    0.198    0.286     C
C       0.2296    0.302    0.786     C
C       0.2322   0.6194   0.6669     C
C       0.2322   0.8806   0.1669     C
Cd     0.23594  0.69733  0.79788    Cd
Cd     0.23594  0.80267  0.29788    Cd
O       0.2399  0.02669   0.3634     O
O       0.2399  0.47331   0.8634     O
C       0.2401   0.1428   0.3228     C
C       0.2401   0.3572   0.8228     C
C       0.2463    0.516   0.6212     C
C       0.2463    0.984   0.1212     C
C       0.2609   0.5732   0.6103     C
C       0.2609   0.9268   0.1103     C
C       0.2621   0.5072   0.2238     C
C       0.2621   0.9928   0.7238     C
O       0.2627   0.6704   0.6645     O
O       0.2627   0.8296   0.1645     O
C       0.2632   0.0098   0.8088     C
C       0.2632   0.4902   0.3088     C
H       0.2638   0.1863   0.5358     H
H       0.2638   0.3137   0.0358     H
Cd     0.26482  0.56102  0.91487    Cd
Cd     0.26482  0.93898  0.41487    Cd
H        0.268   0.0657   0.0808     H
H        0.268   0.4343   0.5808     H
N       0.2683  0.23311   0.6861     N
N       0.2683  0.26689   0.1861     N
C       0.2757   0.0267   0.0708     C
C       0.2757   0.4733   0.5708     C
O       0.2774  0.54871    0.058     O
O       0.2774  0.95129    0.558     O
C        0.284    0.213   0.2304     C
C        0.284    0.287   0.7304     C
C       0.3016   0.5898   0.5463     C
C       0.3016   0.9102   0.0463     C
C       0.3065   0.1049   0.3102     C
C       0.3065   0.3951   0.8102     C
H       0.3101   0.6289   0.5374     H
H       0.3101   0.8711   0.0374     H
C       0.3155    0.046   0.3505     C
C       0.3155    0.454   0.8505     C
C       0.3167   0.0091   0.0058     C
C       0.3167   0.4909   0.5058     C
C       0.3251   0.1832   0.5768     C
C       0.3251   0.3168   0.0768     C
C         0.33   0.5497   0.4952     C
C         0.33   0.9503   0.9952     C
O       0.3303  0.72225   0.2969     O
O       0.3303  0.77775   0.7969     O
C       0.3362  0.51127   0.0989     C
C       0.3362  0.98873   0.5989     C
C       0.3385  0.00543   0.6919     C
C       0.3385  0.49457   0.1919     C
C       0.3434   0.2054   0.6613     C
C       0.3434   0.2946   0.1613     C
C       0.3447   0.0369   0.8656     C
C       0.3447   0.4631   0.3656     C
O       0.3457  0.74323   0.9304     O
O       0.3457  0.75677   0.4304     O
N       0.3476  0.05159   0.9544     N
N       0.3476  0.44841   0.4544     N
O       0.3497  0.62169   0.8584     O
O       0.3497  0.87831   0.3584     O
C       0.3539   0.1745    0.219     C
C       0.3539   0.3255    0.719     C
H       0.3584   0.5619    0.453     H
H       0.3584   0.9381    0.953     H
C       0.3664   0.1216   0.2613     C
C       0.3664   0.3784   0.7613     C
H       0.3703   0.1559    0.901     H
H       0.3703   0.3441    0.401     H
C       0.3704   0.7222   0.3796     C
C       0.3704   0.7778   0.8796     C
H       0.3854   0.1413   0.4946     H
H       0.3854   0.3587   0.9946     H
O       0.3913  0.01854   0.3674     O
O       0.3913  0.48146   0.8674     O
H       0.3914   0.1847   0.1831     H
H       0.3914   0.3153   0.6831     H
O       0.3935   0.0149    0.567     O
O       0.3935   0.4851    0.067     O
C        0.398   0.1559   0.5523     C
C        0.398   0.3441   0.0523     C
C       0.4119   0.0959   0.0003     C
C       0.4119   0.4041   0.5003     C
C       0.4149   0.1484   0.9566     C
C       0.4149   0.3516   0.4566     C
H       0.4152   0.0971   0.2571     H
H       0.4152   0.4029   0.7571     H
H       0.4165   0.6237   0.3178     H
H       0.4165   0.8763   0.8178     H
C       0.4172  0.03388   0.7472     C
C       0.4172  0.46612   0.2472     C
C       0.4215   0.0484   0.8329     C
C       0.4215   0.4516   0.3329     C
H       0.4331     0.67   0.7592     H
H       0.4331     0.83   0.2592     H
C       0.4337  0.20034   0.7223     C
C       0.4337  0.29966   0.2223     C
C       0.4343  0.61906   0.9118     C
C       0.4343  0.88094   0.4118     C
H       0.4459   0.2153   0.7797     H
H       0.4459   0.2847   0.2797     H
C       0.4506     0.68   0.4196     C
C       0.4506     0.82   0.9196     C
O       0.4536   0.5923   0.9828     O
O       0.4536   0.9077   0.4828     O
C       0.4581   0.6297   0.3753     C
C       0.4581   0.8703   0.8753     C
H       0.4681   0.0434   0.7261     H
H       0.4681   0.4566   0.2261     H
H         0.47   0.0547   0.1172     H
H         0.47   0.4453   0.6172     H
C       0.4739   0.0881   0.0857     C
C       0.4739   0.4119   0.5857     C
H       0.4765   0.0663   0.8699     H
H       0.4765   0.4337   0.3699     H
C       0.4848    0.189   0.9968     C
C       0.4848    0.311   0.4968     C
H        0.488   0.2231   0.9665     H
H        0.488   0.2769   0.4665     H
C       0.4895  0.15046   0.6133     C
C       0.4895  0.34954   0.1133     C
C       0.4939   0.6732   0.8011     C
C       0.4939   0.8268   0.3011     C
Cd         0.5      0.0      0.5    Cd
Cd         0.5      0.5      0.0    Cd
C       0.5061   0.1732   0.6989     C
C       0.5061   0.3268   0.1989     C
C       0.5105  0.65046   0.8867     C
C       0.5105  0.84954   0.3867     C
H        0.512   0.7231   0.5335     H
H        0.512   0.7769   0.0335     H
C       0.5152    0.689   0.5032     C
C       0.5152    0.811   0.0032     C
H       0.5235   0.5663   0.6301     H
H       0.5235   0.9337   0.1301     H
C       0.5261   0.5881   0.4143     C
C       0.5261   0.9119   0.9143     C
H         0.53   0.5547   0.3828     H
H         0.53   0.9453   0.8828     H
H       0.5319   0.5434   0.7739     H
H       0.5319   0.9566   0.2739     H
C       0.5419   0.1297   0.1247     C
C       0.5419   0.3703   0.6247     C
O       0.5464   0.0923   0.5172     O
O       0.5464   0.4077   0.0172     O
C       0.5494     0.18   0.0804     C
C       0.5494     0.32   0.5804     C
H       0.5541   0.7153   0.7203     H
H       0.5541   0.7847   0.2203     H
C       0.5657  0.11906   0.5882     C
C       0.5657  0.38094   0.0882     C
C       0.5663  0.70034   0.7777     C
C       0.5663  0.79966   0.2777     C
H       0.5669     0.17   0.7408     H
H       0.5669     0.33   0.2408     H
C       0.5785   0.5484   0.6671     C
C       0.5785   0.9516   0.1671     C
C       0.5828  0.53388   0.7528     C
C       0.5828  0.96612   0.2528     C
H       0.5835   0.1237   0.1822     H
H       0.5835   0.3763   0.6822     H
H       0.5848   0.5971   0.2429     H
H       0.5848   0.9029   0.7429     H
C       0.5851   0.6484   0.5434     C
C       0.5851   0.8516   0.0434     C
C       0.5881   0.5959   0.4997     C
C       0.5881   0.9041   0.9997     C
C        0.602   0.6559   0.9477     C
C        0.602   0.8441   0.4477     C
O       0.6065   0.5149    0.933     O
O       0.6065   0.9851    0.433     O
H       0.6086   0.6847   0.3169     H
H       0.6086   0.8153   0.8169     H
O       0.6087  0.51854   0.1326     O
O       0.6087  0.98146   0.6326     O
H       0.6146   0.6413   0.0054     H
H       0.6146   0.8587   0.5054     H
C       0.6296   0.2222   0.1204     C
C       0.6296   0.2778   0.6204     C
H       0.6297   0.6559    0.599     H
H       0.6297   0.8441    0.099     H
C       0.6336   0.6216   0.2387     C
C       0.6336   0.8784   0.7387     C
H       0.6416   0.0619    0.047     H
H       0.6416   0.4381    0.547     H
C       0.6461   0.6745    0.281     C
C       0.6461   0.8255    0.781     C
O       0.6503  0.12169   0.6416     O
O       0.6503  0.37831   0.1416     O
N       0.6524  0.55159   0.5456     N
N       0.6524  0.94841   0.0456     N
O       0.6543  0.24323   0.5696     O
O       0.6543  0.25677   0.0696     O
C       0.6553   0.5369   0.6344     C
C       0.6553   0.9631   0.1344     C
C       0.6566   0.7054   0.8387     C
C       0.6566   0.7946   0.3387     C
C       0.6615  0.50543   0.8081     C
C       0.6615  0.99457   0.3081     C
C       0.6638  0.01127   0.4011     C
C       0.6638  0.48873   0.9011     C
O       0.6697  0.22225   0.2031     O
O       0.6697  0.27775   0.7031     O
C         0.67   0.0497   0.0048     C
C         0.67   0.4503   0.5048     C
C       0.6749   0.6832   0.9232     C
C       0.6749   0.8168   0.4232     C
C       0.6833   0.5091   0.4942     C
C       0.6833   0.9909   0.9942     C
C       0.6845    0.546   0.1495     C
C       0.6845    0.954   0.6495     C
H       0.6899   0.1289   0.9626     H
H       0.6899   0.3711   0.4626     H
C       0.6935   0.6049   0.1898     C
C       0.6935   0.8951   0.6898     C
C       0.6984   0.0898   0.9537     C
C       0.6984   0.4102   0.4537     C
C        0.716    0.713   0.2696     C
C        0.716    0.787   0.7696     C
O       0.7226  0.04871    0.442     O
O       0.7226  0.45129    0.942     O
C       0.7243   0.5267   0.4292     C
C       0.7243   0.9733   0.9292     C
N       0.7317  0.73311   0.8139     N
N       0.7317  0.76689   0.3139     N
H        0.732   0.5657   0.4192     H
H        0.732   0.9343   0.9192     H
Cd     0.73518  0.06102  0.58513    Cd
Cd     0.73518  0.43898  0.08513    Cd
H       0.7362   0.6863   0.9642     H
H       0.7362   0.8137   0.4642     H
C       0.7368   0.5098   0.6912     C
C       0.7368   0.9902   0.1912     C
O       0.7373   0.1704   0.8355     O
O       0.7373   0.3296   0.3355     O
C       0.7379   0.0072   0.2762     C
C       0.7379   0.4928   0.7762     C
C       0.7391   0.0732   0.8897     C
C       0.7391   0.4268   0.3897     C
C       0.7537    0.016   0.8788     C
C       0.7537    0.484   0.3788     C
C       0.7599   0.6428   0.1772     C
C       0.7599   0.8572   0.6772     C
O       0.7601  0.52669   0.1366     O
O       0.7601  0.97331   0.6366     O
Cd     0.76406  0.19733  0.70212    Cd
Cd     0.76406  0.30267  0.20212    Cd
C       0.7678   0.1194   0.8331     C
C       0.7678   0.3806   0.3331     C
C       0.7704    0.698    0.214     C
C       0.7704    0.802    0.714     C
H       0.7723   0.6257   0.7978     H
H       0.7723   0.8743   0.2978     H
H       0.7837   0.0047   0.8372     H
H       0.7837   0.4953   0.3372     H
H       0.7901   0.5032   0.6722     H
H       0.7901   0.9968   0.1722     H
H       0.7906   0.0273   0.3125     H
H       0.7906   0.4727   0.8125     H
H       0.7988   0.6315   0.1432     H
H       0.7988   0.8685   0.6432     H
H       0.8129   0.7242   0.2018     H
H       0.8129   0.7758   0.7018     H
O       0.8154   0.1028   0.7833     O
O       0.8154   0.3972   0.2833     O
C       0.8225   0.7057   0.8338     C
C       0.8225   0.7943   0.3338     C
C       0.8282   0.6475   0.8194     C
C       0.8282   0.8525   0.3194     C
O       0.8301  0.15487   0.5994     O
O       0.8301  0.34513   0.0994     O
O        0.898  0.07225   0.6191     O
O        0.898  0.42775   0.1191     O
C        0.901   0.1271   0.6156     C
C        0.901   0.3729   0.1156     C
H        0.903   0.7236   0.3787     H
H        0.903   0.7764   0.8787     H
C       0.9066   0.7372   0.8673     C
C       0.9066   0.7628   0.3673     C
C       0.9176   0.6211    0.837     C
C       0.9176   0.8789    0.337     C
H       0.9211   0.5816    0.828     H
H       0.9211   0.9184    0.328     H
H       0.9486   0.2334   0.5941     H
H       0.9486   0.2666   0.0941     H
C       0.9958   0.7114    0.884     C
C       0.9958   0.7886    0.384     C
C       0.9975   0.1536   0.6317     C
C       0.9975   0.3464   0.1317     C
