data_I
_chemical_name_common  '/home/zhangsd/repos/MofS-CGCNN/ML/data/TSD/clean_cifs/RUGZAW_clean'
_cell_length_a 14.79790
_cell_length_b 18.64130
_cell_length_c 22.28790
_cell_angle_alpha 86.67200
_cell_angle_beta  79.48500
_cell_angle_gamma 75.82500
_space_group_name_H-M_alt      'P 1'


loop_
_space_group_symop_operation_xyz
  'x, y, z' 

loop_
_atom_site_label
_atom_site_fract_x
_atom_site_fract_y
_atom_site_fract_z
_atom_site_type_symbol
C       0.0017  0.94457  0.58709     C
C       0.0079  0.73508  0.93277     C
H        0.012   0.8436   0.9238     H
C       0.0136  0.38393  0.22607     C
C       0.0155  0.39255  0.05911     C
H       0.0179   0.4096   0.7713     H
N       0.0179  0.54518  0.75757     N
H       0.0226   0.7068   0.7968     H
H       0.0227   0.0315   0.3759     H
H       0.0252    0.847    0.287     H
C       0.0263  0.18838  0.06058     C
H       0.0266   0.1157   0.6125     H
N       0.0267  0.11059  0.50025     N
H       0.0358   0.6524   0.0631     H
C        0.036   0.8591  0.37478     C
C       0.0405  0.50808  0.08534     C
C       0.0472  0.65786  0.78504     C
C        0.051  0.31207  0.04563     C
C       0.0563  0.46346  0.90969     C
C       0.0584  0.07541  0.44647     C
C       0.0672  0.87385   0.4789     C
C       0.0674   0.8373  0.31433     C
H       0.0699    0.283   0.7645     H
H         0.07   0.7157   0.9139     H
C        0.077  0.43455  0.06896     C
N       0.0781  0.58068  0.93423     N
C       0.0815   0.3886  0.75691     C
H       0.0827   0.4139   0.9004     H
C       0.0865  0.62979  0.08238     C
H       0.0955   0.9509   0.6838     H
C        0.098  0.92868  0.56528     C
C       0.0982  0.84333  0.41619     C
C       0.1031  0.55359  0.09836     C
C       0.1124  0.51426  0.75157     C
C       0.1125   0.3126  0.75253     C
C        0.114  0.50952  0.91873     C
C       0.1175  0.35348  0.21754     C
C       0.1177   0.1609  0.03048     C
H        0.128   0.2829   0.1497     H
O       0.1294  0.03402  0.06348     O
C       0.1307  0.89229  0.51007     C
H       0.1318   0.7747   0.7829     H
H        0.135   0.7196   0.0857     H
C       0.1414   0.2831  0.01522     C
O      0.14149  0.79778  0.19063     O
H       0.1417   0.4137   0.0646     H
C       0.1427   0.4336  0.74039     C
C       0.1439   0.6283  0.77902     C
H       0.1453   0.4131   0.2814     H
C       0.1455   0.9662  0.65926     C
C       0.1466  0.66948  0.09585     C
C       0.1547   0.0791   0.0241     C
C       0.1613  0.80134  0.29457     C
C       0.1619  0.95713  0.59672     C
C       0.1632  0.05769   0.4256     C
C       0.1636  0.30062   0.1731     C
C       0.1735  0.37723  0.25198     C
C       0.1739   0.2076  0.00697     C
C       0.1752  0.55461  0.76087     C
H       0.1752   0.9671   0.3775     H
C       0.1793  0.52369  0.12681     C
H       0.1808   0.3144   0.0002     H
O      0.18534  0.15774  0.74954     O
H       0.1864    0.142   0.4682     H
C       0.1866   0.7474  0.79572     C
C       0.1915   0.8057  0.39622     C
H       0.1927   0.4738   0.1377     H
H       0.1928    0.004   0.7273     H
H       0.1951   0.8804   0.4942     H
C       0.1952  0.77978  0.22886     C
C       0.2047   0.9983  0.68521     C
C       0.2062  0.28036  0.73044     C
C        0.208  0.66994  0.79505     C
H       0.2098   0.9242   0.0902     H
C       0.2098   0.9968  0.39051     C
O       0.2156  0.05878  0.97539     O
C       0.2164   0.1011  0.44396     C
C       0.2176  0.48315  0.91198     C
H       0.2186    0.862   0.1293     H
N       0.2215  0.63967  0.12296     N
C       0.2221   0.7843  0.33606     C
H       0.2316   0.8345   0.8146     H
H       0.2337   0.7949   0.4235     H
H       0.2343   0.1885   0.9853     H
H       0.2343   0.4001   0.8546     H
C       0.2361  0.56864  0.13909     C
H        0.237    0.559   0.9668     H
C       0.2381   0.4006   0.7163     C
H       0.2396   0.5323   0.7549     H
C       0.2406  0.19645  0.72761     C
C       0.2406  0.97971  0.56272     C
C       0.2465  0.78301  0.81537     C
N       0.2489  0.88628  0.10224     N
H       0.2557   0.9733   0.5207     H
H       0.2584   0.1182   0.8237     H
C       0.2597   0.2744  0.16319     C
H       0.2599   0.0972   0.8852     H
C       0.2672   0.4247  0.87483     C
C       0.2684   0.3246    0.712     C
C       0.2688  0.51866  0.94225     C
C       0.2701   0.3488  0.24364     C
Zn     0.27045  0.95898  0.95561    Zn
N       0.2774  0.02136  0.65273     N
H       0.2805   0.4301   0.7033     H
O       0.2815  0.74301  0.21496     O
H       0.2843   0.7581   0.3235     H
H       0.2862   0.5481   0.1594     H
H       0.2884   0.2408   0.1321     H
C       0.2922  0.84219  0.05338     C
C       0.2933   0.6338  0.81357     C
N       0.2935  0.09505   0.8491     N
C       0.2944  0.01092  0.59172     C
H       0.3056   0.3644   0.2684     H
C       0.3064   0.9792  0.37457     C
Zn     0.31222  0.70247  0.13319    Zn
H       0.3123   0.5824   0.8124     H
C       0.3139  0.08449  0.42676     C
C        0.315  0.29706  0.19863     C
N       0.3156  0.86634  0.99787     N
N       0.3195   0.7666  0.05856     N
O      0.32493  0.17115  0.70336     O
N       0.3254  0.74719  0.83561     N
C       0.3274  0.02327  0.83301     C
H       0.3315   0.3032   0.6965     H
H       0.3366   0.9371   0.3518     H
N       0.3374  0.96717  0.87122     N
H       0.3456   0.0259   0.5684     H
H       0.3485   0.1148   0.4388     H
C        0.349   0.6727  0.83327     C
H       0.3518   0.6558   0.9783     H
C       0.3597   0.0235  0.39195     C
N        0.361  0.00201  0.77339     N
Zn     0.36145  0.06322  0.69566    Zn
N       0.3619  0.80223  0.96281     N
C       0.3623  0.74654  0.00089     C
C       0.3649    0.402  0.86698     C
C        0.366  0.49467  0.93627     C
N        0.379  0.90307  0.83542     N
C       0.3908  0.92753   0.7782     C
H       0.3968   0.3634   0.8407     H
N        0.397   0.6745  0.98475     N
H       0.3987   0.5177    0.958     H
H        0.401   0.9008   0.6995     H
Zn     0.40363  0.80348  0.87209    Zn
H       0.4051    0.647   0.8455     H
H        0.414   0.8393   0.7393     H
C       0.4153  0.43609  0.89785     C
C       0.4204  0.26571  0.19028     C
N       0.4268  0.88164  0.73021     N
O      0.43757  0.56097  0.07512     O
H       0.4378   0.6726   0.9514     H
O      0.44089  0.64721  0.13907     O
O      0.46028  0.24133  0.13739     O
O      0.46222  0.26368  0.23364     O
C       0.4656    0.008  0.37262     C
C       0.4806  0.59115  0.10616     C
O      0.49199  0.94638  0.61586     O
O      0.49512  0.05081  0.65765     O
O      0.50488  0.94919  0.34235     O
O      0.50801  0.05362  0.38414     O
C       0.5194  0.40885  0.89384     C
C       0.5344    0.992  0.62738     C
O      0.53778  0.73632  0.76636     O
O      0.53972  0.75867  0.86261     O
O      0.55911  0.35279  0.86093     O
H       0.5622   0.3274   0.0486     H
O      0.56243  0.43903  0.92488     O
N       0.5732  0.11836  0.26979     N
C       0.5796  0.73429  0.80972     C
C       0.5847  0.56391  0.10215     C
H        0.586   0.1607   0.2607     H
H       0.5949    0.353   0.1545     H
Zn     0.59637  0.19652  0.12791    Zn
H        0.599   0.0992   0.3005     H
H       0.6013   0.4823    0.042     H
N        0.603   0.3255  0.01525     N
H       0.6032   0.6366   0.1593     H
C       0.6092  0.07247   0.2218     C
N        0.621  0.09693  0.16458     N
C        0.634  0.50533  0.06373     C
C       0.6351    0.598  0.13302     C
C       0.6377  0.25346  0.99911     C
N       0.6381  0.19777  0.03719     N
Zn     0.63855  0.93678  0.30434    Zn
N        0.639  0.99799  0.22661     N
C       0.6403   0.9765  0.60805     C
H       0.6482   0.3442   0.0217     H
C        0.651   0.3273  0.16673     C
H       0.6515   0.8852   0.5612     H
H       0.6544   0.9741   0.4316     H
N       0.6626  0.03283  0.12878     N
H       0.6634   0.0629   0.6482     H
H       0.6685   0.6968   0.3035     H
C       0.6726  0.97673  0.16699     C
N       0.6746  0.25281  0.16439     N
O      0.67507  0.82885  0.29664     O
N       0.6805   0.2334  0.94144     N
N       0.6844  0.13366  0.00213     N
C        0.685  0.70294  0.80137     C
C       0.6861  0.91551  0.57324     C
H       0.6877   0.4176   0.1876     H
Zn     0.68778  0.29753  0.86681    Zn
C       0.6936   0.0208  0.62543     C
H       0.6944   0.6356   0.7316     H
C       0.7056  0.98908  0.40828     C
N       0.7065  0.90495   0.1509     N
C       0.7067   0.3662  0.18643     C
C       0.7078  0.15781  0.94662     C
H       0.7116   0.7592   0.8679     H
H       0.7138   0.4519   0.8406     H
H       0.7157   0.2419   0.6765     H
O       0.7185  0.25699  0.78504     O
H       0.7195   0.5699   0.2967     H
N       0.7226  0.97864  0.34727     N
Zn     0.72955  0.04102  0.04439    Zn
C       0.7299   0.6512  0.75636     C
C       0.7312  0.48134  0.05775     C
C       0.7316   0.6754    0.288     C
C       0.7328   0.5753  0.12517     C
H       0.7401   0.9028   0.1148     H
C       0.7403   0.7256  0.83681     C
H       0.7416   0.8818   0.1763     H
H       0.7443   0.0267   0.4793     H
N       0.7511  0.11372  0.89776     N
C       0.7535  0.21699  0.18463     C
C       0.7594  0.02029  0.43728     C
C       0.7594  0.80355  0.27239     C
H       0.7604   0.4677   0.2451     H
C       0.7619   0.5994   0.2837     C
H        0.763    0.441   0.0332     H
C       0.7639  0.43136  0.86091     C
H       0.7657   0.5999   0.1454     H
H       0.7657   0.8115   0.0147     H
H       0.7663   0.2051   0.5765     H
H       0.7684   0.1655   0.1854     H
C       0.7779   0.2157  0.66394     C
N       0.7785  0.36033  0.87704     N
H       0.7814    0.138   0.8707     H
C       0.7824  0.51685  0.08802     C
C       0.7836   0.8989  0.55604     C
O       0.7844  0.94122  0.02461     O
C       0.7902   0.0032  0.60949     C
H       0.7902   0.0758   0.9098     H
C        0.792  0.33006  0.20495     C
C       0.7938  0.71964  0.26956     C
C       0.7953   0.0017  0.31479     C
C       0.8048  0.22022  0.77114     C
H       0.8049   0.1196   0.5058     H
H       0.8072    0.996   0.2727     H
H       0.8073   0.5262   0.8623     H
C       0.8085   0.1943  0.60378     C
C       0.8134   0.2526  0.20428     C
H       0.8136    0.858   0.5318     H
O      0.81466  0.84226  0.25046     O
H       0.8192   0.6856   0.9998     H
C       0.8207  0.47631  0.87319     C
H       0.8248   0.0329   0.6225     H
C       0.8248  0.44539  0.23913     C
C       0.8261   0.7924  0.99303     C
C       0.8265  0.62277  0.74802     C
C       0.8364  0.69938   0.8269     C
C       0.8368  0.94231   0.5744     C
C       0.8381  0.04287  0.40328     C
C       0.8387  0.19866  0.70543     C
C       0.8453   0.9209   0.9759     C
C       0.8534  0.33052  0.90415     C
C       0.8545   0.0338  0.34074     C
H       0.8547   0.5869   0.7186     H
C       0.8561   0.3717  0.22098     C
C       0.8573   0.5664  0.25961     C
H       0.8583   0.5863   0.9354     H
O      0.85851  0.20222  0.80937     O
C       0.8586   0.7169  0.98478     C
H        0.865   0.2804   0.9143     H
H       0.8682   0.2253   0.2171     H
C       0.8693  0.10771  0.48993     C
O       0.8706  0.96598  0.93652     O
H        0.872   0.7171   0.8503     H
C       0.8823   0.8391  0.96952     C
C       0.8825  0.64652  0.78246     C
C        0.886  0.49048  0.08127     C
C       0.8875   0.6874  0.24747     C
C       0.8876  0.48574  0.24843     C
C       0.8969  0.44641  0.90164     C
C       0.9018  0.15667  0.58381     C
C        0.902  0.07132  0.43472     C
H       0.9045   0.0491   0.3162     H
C       0.9135  0.37021  0.91762     C
H       0.9173   0.5861   0.0996     H
C       0.9185   0.6114  0.24309     C
N       0.9219  0.41932  0.06577     N
C        0.923  0.56545  0.93104     C
H         0.93   0.2843   0.0861     H
H       0.9301    0.717   0.2355     H
C       0.9326   0.1627  0.68567     C
C       0.9328  0.12615   0.5211     C
C       0.9416  0.92459  0.55353     C
C       0.9437  0.53654  0.09031     C
C        0.949  0.68793  0.95437     C
C       0.9528  0.34214  0.21496     C
C       0.9595  0.49192  0.91466     C
C        0.964   0.1409  0.62522     C
H       0.9642   0.3476   0.9369     H
N       0.9733  0.88941  0.49975     N
H       0.9734   0.8843   0.3875     H
C       0.9737  0.81162  0.93942     C
H       0.9748    0.153    0.713     H
H       0.9773   0.9685   0.6241     H
H       0.9774   0.2932   0.2032     H
N       0.9821  0.45482  0.24243     N
H       0.9821   0.5904   0.2287     H
C       0.9845  0.60745  0.94089     C
C       0.9864  0.61607  0.77393     C
H        0.988   0.1564   0.0762     H
C       0.9921  0.26492  0.06723     C
C       0.9983  0.05543  0.41291     C
