data_I
_chemical_name_common  '/home/zhangsd/repos/MofS-CGCNN/ML/data/TSD/clean_cifs/RUHFIL_clean'
_cell_length_a 17.61800
_cell_length_b 17.61800
_cell_length_c 17.61800
_cell_angle_alpha 90.00000
_cell_angle_beta  90.00000
_cell_angle_gamma 90.00000
_space_group_name_H-M_alt      'P 1'


loop_
_space_group_symop_operation_xyz
  'x, y, z' 

loop_
_atom_site_label
_atom_site_fract_x
_atom_site_fract_y
_atom_site_fract_z
_atom_site_type_symbol
Cu       2e-05  0.90796  0.84945    Cu
C       0.0031    0.513   0.7592     C
O      0.00782   0.2007   0.6288     O
O       0.0094   0.0494    0.681     O
C       0.0096   0.7659   0.9132     C
C        0.013   0.7408   0.9969     C
O       0.0183   0.2815   0.4543     O
O      0.04404  0.32295  0.59644     O
O       0.0457   0.9817   0.7815     O
O       0.0494    0.681   0.0094     O
C       0.0868   0.5096   0.7341     C
C       0.0891   0.7916   0.8864     C
Cu     0.09204  0.34945  0.49998    Cu
O      0.09644  0.45596  0.67705     O
O      0.09681   0.8585   0.8672     O
Ce     0.10274  0.60274  0.89726    Ce
O       0.1126  0.63944  0.75713     O
C       0.1136   0.5891   0.7084     C
O       0.1288  0.49218   0.7993     O
O       0.1328  0.59681   0.6415     O
O      0.13944  0.74287   0.8874     O
O       0.1415   0.3672  0.40319     O
Cu     0.15055  0.50002  0.59204    Cu
O      0.17705  0.40356  0.54404     O
O        0.181   0.4906   0.9506     O
O       0.2007   0.6288  0.00782     O
C       0.2084   0.3864   0.4109     C
O       0.2185   0.5457   0.5183     O
C       0.2341   0.4132   0.4904     C
C       0.2408   0.5031    0.987     C
O      0.24287   0.6126  0.86056     O
O      0.25713   0.3874  0.36056     O
C       0.2592   0.4969    0.487     C
C       0.2659   0.5868   0.9904     C
O       0.2815   0.4543   0.0183     O
C       0.2916   0.6136   0.9109     C
O       0.2993   0.3712  0.50782     O
O        0.319   0.5094   0.4506     O
O      0.32295  0.59644  0.04404     O
Cu     0.34945  0.49998  0.09204    Cu
O       0.3585   0.6328  0.90319     O
O      0.36056  0.25713   0.3874     O
O       0.3672  0.40319   0.1415     O
O       0.3712  0.50782   0.2993     O
C       0.3864   0.4109   0.2084     C
O       0.3874  0.36056  0.25713     O
Ce     0.39726  0.39726  0.39726    Ce
O      0.40319   0.1415   0.3672     O
O      0.40356  0.54404  0.17705     O
Cu     0.40796  0.65055  0.99998    Cu
C       0.4109   0.2084   0.3864     C
C       0.4132   0.4904   0.2341     C
O       0.4506    0.319   0.5094     O
O       0.4543   0.0183   0.2815     O
O      0.45596  0.67705  0.09644     O
O       0.4817   0.7185   0.9543     O
C        0.487   0.2592   0.4969     C
C       0.4904   0.2341   0.4132     C
O       0.4906   0.9506    0.181     O
O      0.49218   0.7993   0.1288     O
C       0.4969    0.487   0.2592     C
Cu     0.49998  0.09204  0.34945    Cu
Cu     0.50002  0.59204  0.15055    Cu
C       0.5031    0.987   0.2408     C
O      0.50782   0.2993   0.3712     O
O       0.5094   0.4506    0.319     O
C       0.5096   0.7341   0.0868     C
C        0.513   0.7592   0.0031     C
O       0.5183   0.2185   0.5457     O
O      0.54404  0.17705  0.40356     O
O       0.5457   0.5183   0.2185     O
O       0.5494    0.819   0.9906     O
C       0.5868   0.9904   0.2659     C
C       0.5891   0.7084   0.1136     C
Cu     0.59204  0.15055  0.50002    Cu
O      0.59644  0.04404  0.32295     O
O      0.59681   0.6415   0.1328     O
Ce     0.60274  0.89726  0.10274    Ce
O       0.6126  0.86056  0.24287     O
C       0.6136   0.9109   0.2916     C
O       0.6288  0.00782   0.2007     O
O       0.6328  0.90319   0.3585     O
O      0.63944  0.75713   0.1126     O
O       0.6415   0.1328  0.59681     O
Cu     0.65055  0.99998  0.40796    Cu
O      0.67705  0.09644  0.45596     O
O        0.681   0.0094   0.0494     O
O       0.7007   0.8712  0.99218     O
C       0.7084   0.1136   0.5891     C
O       0.7185   0.9543   0.4817     O
C       0.7341   0.0868   0.5096     C
C       0.7408   0.9969    0.013     C
O      0.74287   0.8874  0.13944     O
O      0.75713   0.1126  0.63944     O
C       0.7592   0.0031    0.513     C
C       0.7659   0.9132   0.0096     C
O       0.7815   0.0457   0.9817     O
C       0.7916   0.8864   0.0891     C
O       0.7993   0.1288  0.49218     O
O        0.819   0.9906   0.5494     O
O      0.82295  0.90356  0.95596     O
Cu     0.84945    2e-05  0.90796    Cu
O       0.8585   0.8672  0.09681     O
O      0.86056  0.24287   0.6126     O
O       0.8672  0.09681   0.8585     O
O       0.8712  0.99218   0.7007     O
C       0.8864   0.0891   0.7916     C
O       0.8874  0.13944  0.74287     O
Ce     0.89726  0.10274  0.60274    Ce
O      0.90319   0.3585   0.6328     O
O      0.90356  0.95596  0.82295     O
Cu     0.90796  0.84945    2e-05    Cu
C       0.9109   0.2916   0.6136     C
C       0.9132   0.0096   0.7659     C
O       0.9506    0.181   0.4906     O
O       0.9543   0.4817   0.7185     O
O      0.95596  0.82295  0.90356     O
O       0.9817   0.7815   0.0457     O
C        0.987   0.2408   0.5031     C
C       0.9904   0.2659   0.5868     C
O       0.9906   0.5494    0.819     O
O      0.99218   0.7007   0.8712     O
C       0.9969    0.013   0.7408     C
Cu     0.99998  0.40796  0.65055    Cu
