data_I
_chemical_name_common  '/home/zhangsd/repos/MofS-CGCNN/ML/data/TSD/clean_cifs/RUHFEH_clean'
_cell_length_a 17.52350
_cell_length_b 17.52350
_cell_length_c 17.52350
_cell_angle_alpha 90.00000
_cell_angle_beta  90.00000
_cell_angle_gamma 90.00000
_space_group_name_H-M_alt      'P 1'


loop_
_space_group_symop_operation_xyz
  'x, y, z' 

loop_
_atom_site_label
_atom_site_fract_x
_atom_site_fract_y
_atom_site_fract_z
_atom_site_type_symbol
C       0.0003   0.0206   0.2454     C
O       0.0033   0.7057   0.3715     O
Cu     0.00476  0.41463  0.14612    Cu
O       0.0108   0.7851   0.5495     O
O       0.0116    0.556   0.3154     O
C       0.0135   0.2701   0.0839     C
C       0.0206   0.2454   0.0003     C
O       0.0387   0.8282   0.4084     O
O       0.0495   0.4892   0.2149     O
O        0.056   0.1846   0.9884     O
C       0.0839   0.0135   0.2701     C
Cu     0.08537  0.85388  0.50476    Cu
O       0.0916   0.9613   0.3282     O
C       0.0935   0.2949   0.1114     C
O       0.1023   0.3652   0.1295     O
La     0.10547  0.10547  0.10547    La
C       0.1114   0.0935   0.2949     C
O       0.1139   0.1445   0.2458     O
O       0.1285   0.9967   0.2057     O
O       0.1295   0.1023   0.3652     O
O       0.1348   0.8705   0.6023     O
O       0.1445   0.2458   0.1139     O
Cu     0.14612  0.00476  0.41463    Cu
O       0.1718   0.9084   0.4613     O
O       0.1846   0.9884    0.056     O
C       0.2051   0.8886   0.5935     C
O       0.2057   0.1285   0.9967     O
O       0.2149   0.0495   0.4892     O
C       0.2299   0.9161   0.5135     C
C       0.2454   0.0003   0.0206     C
O       0.2458   0.1139   0.1445     O
O       0.2542   0.8861   0.6445     O
C       0.2546   0.9997   0.5206     C
C       0.2701   0.0839   0.0135     C
O       0.2851   0.9505   0.9892     O
O       0.2943   0.8715   0.4967     O
C       0.2949   0.1114   0.0935     C
O       0.3154   0.0116    0.556     O
O       0.3282   0.0916   0.9613     O
Cu     0.35388  0.99524  0.91463    Cu
O       0.3555   0.7542   0.6139     O
O       0.3652   0.1295   0.1023     O
O       0.3705   0.8977   0.8652     O
O       0.3715   0.0033   0.7057     O
O       0.3861   0.8555   0.7458     O
C       0.3886   0.9065   0.7949     C
La     0.39453  0.89453  0.60547    La
O       0.3977   0.6348   0.6295     O
C       0.4065   0.7051   0.6114     C
O       0.4084   0.0387   0.8282     O
Cu     0.41463  0.14612  0.00476    Cu
C       0.4161   0.9865   0.7701     C
O        0.444   0.8154   0.4884     O
O       0.4505   0.5108   0.7149     O
O       0.4613   0.1718   0.9084     O
C       0.4794   0.7546   0.5003     C
C       0.4865   0.7299   0.5839     C
O       0.4884    0.444   0.8154     O
O       0.4892   0.2149   0.0495     O
Cu     0.49524  0.58537  0.64612    Cu
O       0.4967   0.2943   0.8715     O
C       0.4997   0.9794   0.7454     C
C       0.5003   0.4794   0.7546     C
O       0.5033   0.7943   0.6285     O
Cu     0.50476  0.08537  0.85388    Cu
O       0.5108   0.7149   0.4505     O
O       0.5116    0.944   0.6846     O
C       0.5135   0.2299   0.9161     C
C       0.5206   0.2546   0.9997     C
O       0.5387   0.6718   0.5916     O
O       0.5495   0.0108   0.7851     O
O        0.556   0.3154   0.0116     O
C       0.5839   0.4865   0.7299     C
Cu     0.58537  0.64612  0.49524    Cu
O       0.5916   0.5387   0.6718     O
C       0.5935   0.2051   0.8886     C
O       0.6023   0.1348   0.8705     O
La     0.60547  0.39453  0.89453    La
C       0.6114   0.4065   0.7051     C
O       0.6139   0.3555   0.7542     O
O       0.6285   0.5033   0.7943     O
O       0.6295   0.3977   0.6348     O
O       0.6348   0.6295   0.3977     O
O       0.6445   0.2542   0.8861     O
Cu     0.64612  0.49524  0.58537    Cu
O       0.6718   0.5916   0.5387     O
O       0.6846   0.5116    0.944     O
C       0.7051   0.6114   0.4065     C
O       0.7057   0.3715   0.0033     O
O       0.7149   0.4505   0.5108     O
C       0.7299   0.5839   0.4865     C
C       0.7454   0.4997   0.9794     C
O       0.7458   0.3861   0.8555     O
O       0.7542   0.6139   0.3555     O
C       0.7546   0.5003   0.4794     C
C       0.7701   0.4161   0.9865     C
O       0.7851   0.5495   0.0108     O
O       0.7943   0.6285   0.5033     O
C       0.7949   0.3886   0.9065     C
O       0.8154   0.4884    0.444     O
O       0.8282   0.4084   0.0387     O
Cu     0.85388  0.50476  0.08537    Cu
O       0.8555   0.7458   0.3861     O
O       0.8652   0.3705   0.8977     O
O       0.8705   0.6023   0.1348     O
O       0.8715   0.4967   0.2943     O
O       0.8861   0.6445   0.2542     O
C       0.8886   0.5935   0.2051     C
La     0.89453  0.60547  0.39453    La
O       0.8977   0.8652   0.3705     O
C       0.9065   0.7949   0.3886     C
O       0.9084   0.4613   0.1718     O
Cu     0.91463  0.35388  0.99524    Cu
C       0.9161   0.5135   0.2299     C
O        0.944   0.6846   0.5116     O
O       0.9505   0.9892   0.2851     O
O       0.9613   0.3282   0.0916     O
C       0.9794   0.7454   0.4997     C
C       0.9865   0.7701   0.4161     C
O       0.9884    0.056   0.1846     O
O       0.9892   0.2851   0.9505     O
Cu     0.99524  0.91463  0.35388    Cu
O       0.9967   0.2057   0.1285     O
C       0.9997   0.5206   0.2546     C
