data_I
_chemical_name_common  '/home/zhangsd/repos/MofS-CGCNN/ML/data/TSD/clean_cifs/RUHFOR_clean'
_cell_length_a 17.58000
_cell_length_b 17.58000
_cell_length_c 17.58000
_cell_angle_alpha 90.00000
_cell_angle_beta  90.00000
_cell_angle_gamma 90.00000
_space_group_name_H-M_alt      'P 1'


loop_
_space_group_symop_operation_xyz
  'x, y, z' 

loop_
_atom_site_label
_atom_site_fract_x
_atom_site_fract_y
_atom_site_fract_z
_atom_site_type_symbol
C       0.0004   0.4871   0.2423     C
Cu     0.00127  0.09444  0.15196    Cu
C       0.0077   0.7363    0.409     C
O        0.009   0.3013   0.1269     O
O       0.0121   0.4531   0.1765     O
C       0.0129   0.7577   0.5004     C
O       0.0191   0.2189   0.9537     O
O       0.0461   0.1778   0.0979     O
O       0.0463   0.5191   0.2811     O
O       0.0469   0.8235   0.5121     O
C       0.0864   0.7102   0.3853     C
C        0.091   0.9923   0.2363     C
Cu     0.09444  0.15196  0.00127    Cu
O       0.0979   0.0461   0.1778     O
O       0.0981    0.644   0.3676     O
Pr     0.10136  0.89864  0.39864    Pr
O        0.111   0.8608   0.2598     O
C       0.1147   0.9136   0.2102     C
O       0.1269    0.009   0.3013     O
O       0.1324   0.9019    0.144     O
O       0.1392   0.7598    0.389     O
O        0.144   0.1324   0.9019     O
Cu     0.15196  0.00127  0.09444    Cu
O       0.1765   0.0121   0.4531     O
O       0.1778   0.0979   0.0461     O
O       0.1987   0.8731    0.509     O
C       0.2102   0.1147   0.9136     C
O       0.2189   0.9537   0.0191     O
C       0.2363    0.091   0.9923     C
O       0.2402    0.889   0.3608     O
C       0.2423   0.0004   0.4871     C
C       0.2577   0.9996   0.9871     C
O       0.2598    0.111   0.8608     O
C       0.2637    0.909   0.4923     C
O       0.2811   0.0463   0.5191     O
C       0.2898   0.8853   0.4136     C
O       0.3013   0.1269    0.009     O
O       0.3222   0.9021   0.5461     O
O       0.3235   0.9879   0.9531     O
Cu     0.34804  0.99873  0.59444    Cu
O        0.356   0.8676   0.4019     O
O       0.3608   0.2402    0.889     O
O       0.3676   0.0981    0.644     O
O       0.3731    0.991   0.8013     O
C       0.3853   0.0864   0.7102     C
O        0.389   0.1392   0.7598     O
Pr     0.39864  0.10136  0.89864    Pr
O       0.4019    0.356   0.8676     O
O       0.4021   0.9539   0.6778     O
Cu     0.40556  0.84804  0.50127    Cu
C        0.409   0.0077   0.7363     C
C       0.4136   0.2898   0.8853     C
O       0.4531   0.1765   0.0121     O
O       0.4537   0.4809   0.7811     O
O       0.4539   0.8222   0.5979     O
O       0.4809   0.7811   0.4537     O
C       0.4871   0.2423   0.0004     C
O       0.4879   0.5469   0.6765     O
O        0.491   0.6987   0.6269     O
C       0.4923   0.2637    0.909     C
Cu     0.49873  0.90556  0.65196    Cu
C       0.4996   0.5129   0.7423     C
C       0.5004   0.0129   0.7577     C
Cu     0.50127  0.40556  0.84804    Cu
C       0.5077   0.7637    0.591     C
O        0.509   0.1987   0.8731     O
O       0.5121   0.0469   0.8235     O
C       0.5129   0.7423   0.4996     C
O       0.5191   0.2811   0.0463     O
O       0.5461   0.3222   0.9021     O
O       0.5463   0.9809   0.7189     O
O       0.5469   0.6765   0.4879     O
C       0.5864   0.7898   0.6147     C
C        0.591   0.5077   0.7637     C
Cu     0.59444  0.34804  0.99873    Cu
O       0.5979   0.4539   0.8222     O
O       0.5981    0.856   0.6324     O
Pr     0.60136  0.60136  0.60136    Pr
O        0.611   0.6392   0.7402     O
C       0.6147   0.5864   0.7898     C
O       0.6269    0.491   0.6987     O
O       0.6324   0.5981    0.856     O
O       0.6392   0.7402    0.611     O
O        0.644   0.3676   0.0981     O
Cu     0.65196  0.49873  0.90556    Cu
O       0.6765   0.4879   0.5469     O
O       0.6778   0.4021   0.9539     O
O       0.6987   0.6269    0.491     O
C       0.7102   0.3853   0.0864     C
O       0.7189   0.5463   0.9809     O
C       0.7363    0.409   0.0077     C
O       0.7402    0.611   0.6392     O
C       0.7423   0.4996   0.5129     C
C       0.7577   0.5004   0.0129     C
O       0.7598    0.389   0.1392     O
C       0.7637    0.591   0.5077     C
O       0.7811   0.4537   0.4809     O
C       0.7898   0.6147   0.5864     C
O       0.8013   0.3731    0.991     O
O       0.8222   0.5979   0.4539     O
O       0.8235   0.5121   0.0469     O
Cu     0.84804  0.50127  0.40556    Cu
O        0.856   0.6324   0.5981     O
O       0.8608   0.2598    0.111     O
O       0.8676   0.4019    0.356     O
O       0.8731    0.509   0.1987     O
C       0.8853   0.4136   0.2898     C
O        0.889   0.3608   0.2402     O
Pr     0.89864  0.39864  0.10136    Pr
O       0.9019    0.144   0.1324     O
O       0.9021   0.5461   0.3222     O
Cu     0.90556  0.65196  0.49873    Cu
C        0.909   0.4923   0.2637     C
C       0.9136   0.2102   0.1147     C
O       0.9531   0.3235   0.9879     O
O       0.9537   0.0191   0.2189     O
O       0.9539   0.6778   0.4021     O
O       0.9809   0.7189   0.5463     O
C       0.9871   0.2577   0.9996     C
O       0.9879   0.9531   0.3235     O
O        0.991   0.8013   0.3731     O
C       0.9923   0.2363    0.091     C
Cu     0.99873  0.59444  0.34804    Cu
C       0.9996   0.9871   0.2577     C
