data_I
_chemical_name_common  '/home/zhangsd/repos/MofS-CGCNN/ML/data/TSD/clean_cifs/RUHFUX_clean'
_cell_length_a 17.51540
_cell_length_b 17.51540
_cell_length_c 17.51540
_cell_angle_alpha 90.00000
_cell_angle_beta  90.00000
_cell_angle_gamma 90.00000
_space_group_name_H-M_alt      'P 1'


loop_
_space_group_symop_operation_xyz
  'x, y, z' 

loop_
_atom_site_label
_atom_site_fract_x
_atom_site_fract_y
_atom_site_fract_z
_atom_site_type_symbol
Cu       6e-05  0.90772  0.84875    Cu
C       0.0029   0.5145   0.7582     C
O       0.0076   0.1993   0.6293     O
O       0.0083   0.0496   0.6802     O
C       0.0089   0.7653   0.9128     C
C       0.0145   0.7418   0.9971     C
O       0.0182   0.2801   0.4537     O
O       0.0448   0.3218   0.5971     O
O       0.0463   0.9818   0.7801     O
O       0.0496   0.6802   0.0083     O
C       0.0872   0.5089   0.7347     C
C       0.0903   0.7909   0.8859     C
Cu     0.09228  0.34875  0.49994    Cu
O       0.0971   0.4552   0.6782     O
O       0.0979   0.8593   0.8672     O
Nd     0.10324  0.60324  0.89676    Nd
O       0.1131   0.6403    0.759     O
C       0.1141   0.5903   0.7091     C
O       0.1293   0.4924   0.8007     O
O       0.1328   0.5979   0.6407     O
O       0.1403    0.741   0.8869     O
O       0.1407   0.3672   0.4021     O
Cu     0.15125  0.50006  0.59228    Cu
O       0.1782   0.4029   0.5448     O
O       0.1802   0.4917   0.9504     O
O       0.1993   0.6293   0.0076     O
C       0.2091   0.3859   0.4097     C
O       0.2199   0.5463   0.5182     O
C       0.2347   0.4128   0.4911     C
O        0.241   0.6131   0.8597     O
C       0.2418   0.5029   0.9855     C
C       0.2582   0.4971   0.4855     C
O        0.259   0.3869   0.3597     O
C       0.2653   0.5872   0.9911     C
O       0.2801   0.4537   0.0182     O
C       0.2909   0.6141   0.9097     C
O       0.3007   0.3707   0.5076     O
O       0.3198   0.5083   0.4504     O
O       0.3218   0.5971   0.0448     O
Cu     0.34875  0.49994  0.09228    Cu
O       0.3593   0.6328   0.9021     O
O       0.3597    0.259   0.3869     O
O       0.3672   0.4021   0.1407     O
O       0.3707   0.5076   0.3007     O
C       0.3859   0.4097   0.2091     C
O       0.3869   0.3597    0.259     O
Nd     0.39676  0.39676  0.39676    Nd
O       0.4021   0.1407   0.3672     O
O       0.4029   0.5448   0.1782     O
Cu     0.40772  0.65125  0.99994    Cu
C       0.4097   0.2091   0.3859     C
C       0.4128   0.4911   0.2347     C
O       0.4504   0.3198   0.5083     O
O       0.4537   0.0182   0.2801     O
O       0.4552   0.6782   0.0971     O
O       0.4818   0.7199   0.9537     O
C       0.4855   0.2582   0.4971     C
C       0.4911   0.2347   0.4128     C
O       0.4917   0.9504   0.1802     O
O       0.4924   0.8007   0.1293     O
C       0.4971   0.4855   0.2582     C
Cu     0.49994  0.09228  0.34875    Cu
Cu     0.50006  0.59228  0.15125    Cu
C       0.5029   0.9855   0.2418     C
O       0.5076   0.3007   0.3707     O
O       0.5083   0.4504   0.3198     O
C       0.5089   0.7347   0.0872     C
C       0.5145   0.7582   0.0029     C
O       0.5182   0.2199   0.5463     O
O       0.5448   0.1782   0.4029     O
O       0.5463   0.5182   0.2199     O
O       0.5496   0.8198   0.9917     O
C       0.5872   0.9911   0.2653     C
C       0.5903   0.7091   0.1141     C
Cu     0.59228  0.15125  0.50006    Cu
O       0.5971   0.0448   0.3218     O
O       0.5979   0.6407   0.1328     O
Nd     0.60324  0.89676  0.10324    Nd
O       0.6131   0.8597    0.241     O
C       0.6141   0.9097   0.2909     C
O       0.6293   0.0076   0.1993     O
O       0.6328   0.9021   0.3593     O
O       0.6403    0.759   0.1131     O
O       0.6407   0.1328   0.5979     O
Cu     0.65125  0.99994  0.40772    Cu
O       0.6782   0.0971   0.4552     O
O       0.6802   0.0083   0.0496     O
O       0.6993   0.8707   0.9924     O
C       0.7091   0.1141   0.5903     C
O       0.7199   0.9537   0.4818     O
C       0.7347   0.0872   0.5089     C
O        0.741   0.8869   0.1403     O
C       0.7418   0.9971   0.0145     C
C       0.7582   0.0029   0.5145     C
O        0.759   0.1131   0.6403     O
C       0.7653   0.9128   0.0089     C
O       0.7801   0.0463   0.9818     O
C       0.7909   0.8859   0.0903     C
O       0.8007   0.1293   0.4924     O
O       0.8198   0.9917   0.5496     O
O       0.8218   0.9029   0.9552     O
Cu     0.84875    6e-05  0.90772    Cu
O       0.8593   0.8672   0.0979     O
O       0.8597    0.241   0.6131     O
O       0.8672   0.0979   0.8593     O
O       0.8707   0.9924   0.6993     O
C       0.8859   0.0903   0.7909     C
O       0.8869   0.1403    0.741     O
Nd     0.89676  0.10324  0.60324    Nd
O       0.9021   0.3593   0.6328     O
O       0.9029   0.9552   0.8218     O
Cu     0.90772  0.84875    6e-05    Cu
C       0.9097   0.2909   0.6141     C
C       0.9128   0.0089   0.7653     C
O       0.9504   0.1802   0.4917     O
O       0.9537   0.4818   0.7199     O
O       0.9552   0.8218   0.9029     O
O       0.9818   0.7801   0.0463     O
C       0.9855   0.2418   0.5029     C
C       0.9911   0.2653   0.5872     C
O       0.9917   0.5496   0.8198     O
O       0.9924   0.6993   0.8707     O
C       0.9971   0.0145   0.7418     C
Cu     0.99994  0.40772  0.65125    Cu
