data_I
_chemical_name_common  '/home/zhangsd/repos/MofS-CGCNN/ML/data/TSD/clean_cifs/RUPTED_clean'
_cell_length_a  7.66810
_cell_length_b 31.90900
_cell_length_c 15.42680
_cell_angle_alpha 90.00000
_cell_angle_beta  90.00000
_cell_angle_gamma 90.00000
_space_group_name_H-M_alt      'P 1'


loop_
_space_group_symop_operation_xyz
  'x, y, z' 

loop_
_atom_site_label
_atom_site_fract_x
_atom_site_fract_y
_atom_site_fract_z
_atom_site_type_symbol
C       0.0091   0.1524   0.1419     C
C       0.0091   0.8476   0.6419     C
C       0.0121   0.1142   0.5608     C
C       0.0121   0.8858   0.0608     C
C       0.0125    0.155   0.9102     C
C       0.0125    0.845   0.4102     C
C       0.0133   0.2943   0.8609     C
C       0.0133   0.7057   0.3609     C
C       0.0139  0.19504   0.3679     C
C       0.0139  0.80496   0.8679     C
O       0.0166    0.254   0.8659     O
C       0.0166   0.3305   0.4296     C
C       0.0166   0.6695   0.9296     C
O       0.0166    0.746   0.3659     O
O       0.0211  0.29285   0.3993     O
O       0.0211  0.70715   0.8993     O
Cu      0.0783  0.03422  0.02995    Cu
Cu      0.0783  0.96578  0.52995    Cu
H       0.0827   0.2124   0.1256     H
H       0.0827   0.7876   0.6256     H
H        0.083   0.1706   0.6084     H
H        0.083   0.8294   0.1084     H
Cu     0.08571  0.06192  0.32611    Cu
Cu     0.08571  0.93808  0.82611    Cu
O       0.1122  0.34885   0.0454     O
O       0.1122  0.65115   0.5454     O
H       0.1175   0.3756   0.8454     H
H       0.1175   0.6244   0.3454     H
O       0.1189   0.3151   0.6445     O
O       0.1189   0.6849   0.1445     O
N       0.1209  0.09112   0.9677     N
N       0.1209  0.90888   0.4677     N
H       0.1219   0.1416   0.1416     H
H       0.1219   0.8584   0.6416     H
H       0.1237   0.1028   0.5612     H
H       0.1237   0.8972   0.0612     H
H       0.1242   0.4076    0.483     H
H       0.1242   0.5924    0.983     H
N       0.1261  0.12576   0.3481     N
N       0.1261  0.87424   0.8481     N
N       0.1712  0.17226   0.9088     N
N       0.1712  0.82774   0.4088     N
N       0.1743  0.21159   0.3681     N
N       0.1743  0.78841   0.8681     N
C       0.1893   0.3149   0.8599     C
C       0.1893   0.6851   0.3599     C
C       0.1945   0.3514   0.4355     C
C       0.1945   0.6486   0.9355     C
C       0.2138    0.358   0.8503     C
C       0.2138    0.642   0.3503     C
C       0.2197   0.3919   0.4649     C
C       0.2197   0.6081   0.9649     C
I      0.23793  0.47623  0.95058     I
I      0.23793  0.52377  0.45058     I
I      0.24455  0.45213  0.67888     I
I      0.24455  0.54787  0.17888     I
Cu     0.24911  0.22911  0.87333    Cu
Cu     0.24911  0.77089  0.37333    Cu
Cu     0.25089  0.27089  0.37333    Cu
Cu     0.25089  0.72911  0.87333    Cu
I      0.25545  0.04787  0.17888     I
I      0.25545  0.95213  0.67888     I
I      0.26207  0.02377  0.45058     I
I      0.26207  0.97623  0.95058     I
C       0.2803   0.1081   0.9649     C
C       0.2803   0.8919   0.4649     C
C       0.2862    0.142   0.3503     C
C       0.2862    0.858   0.8503     C
C       0.3055   0.1486   0.9355     C
C       0.3055   0.8514   0.4355     C
C       0.3107   0.1851   0.3599     C
C       0.3107   0.8149   0.8599     C
N       0.3257  0.28841   0.8681     N
N       0.3257  0.71159   0.3681     N
N       0.3288  0.32774   0.4088     N
N       0.3288  0.67226   0.9088     N
N       0.3739  0.37424   0.8481     N
N       0.3739  0.62576   0.3481     N
H       0.3758   0.0924    0.983     H
H       0.3758   0.9076    0.483     H
H       0.3763   0.3972   0.0612     H
H       0.3763   0.6028   0.5612     H
H       0.3781   0.3584   0.6416     H
H       0.3781   0.6416   0.1416     H
N       0.3791  0.40888   0.4677     N
N       0.3791  0.59112   0.9677     N
O       0.3811   0.1849   0.1445     O
O       0.3811   0.8151   0.6445     O
H       0.3825   0.1244   0.3454     H
H       0.3825   0.8756   0.8454     H
O       0.3878  0.15115   0.5454     O
O       0.3878  0.84885   0.0454     O
Cu     0.41429  0.43808  0.82611    Cu
Cu     0.41429  0.56192  0.32611    Cu
H        0.417   0.3294   0.1084     H
H        0.417   0.6706   0.6084     H
H       0.4173   0.2876   0.6256     H
H       0.4173   0.7124   0.1256     H
Cu      0.4217  0.46578  0.52995    Cu
Cu      0.4217  0.53422  0.02995    Cu
O       0.4789  0.20715   0.8993     O
O       0.4789  0.79285   0.3993     O
C       0.4834   0.1695   0.9296     C
O       0.4834    0.246   0.3659     O
O       0.4834    0.754   0.8659     O
C       0.4834   0.8305   0.4296     C
C       0.4861  0.30496   0.8679     C
C       0.4861  0.69504   0.3679     C
C       0.4867   0.2057   0.3609     C
C       0.4867   0.7943   0.8609     C
C       0.4875    0.345   0.4102     C
C       0.4875    0.655   0.9102     C
C       0.4879   0.3858   0.0608     C
C       0.4879   0.6142   0.5608     C
C       0.4909   0.3476   0.6419     C
C       0.4909   0.6524   0.1419     C
C       0.5091   0.3476   0.8581     C
C       0.5091   0.6524   0.3581     C
C       0.5121   0.3858   0.4392     C
C       0.5121   0.6142   0.9392     C
C       0.5125    0.345   0.0898     C
C       0.5125    0.655   0.5898     C
C       0.5133   0.2057   0.1391     C
C       0.5133   0.7943   0.6391     C
C       0.5139  0.30496   0.6321     C
C       0.5139  0.69504   0.1321     C
C       0.5166   0.1695   0.5704     C
O       0.5166    0.246   0.1341     O
O       0.5166    0.754   0.6341     O
C       0.5166   0.8305   0.0704     C
O       0.5211  0.20715   0.6007     O
O       0.5211  0.79285   0.1007     O
Cu      0.5783  0.46578  0.97005    Cu
Cu      0.5783  0.53422  0.47005    Cu
H       0.5827   0.2876   0.8744     H
H       0.5827   0.7124   0.3744     H
H        0.583   0.3294   0.3916     H
H        0.583   0.6706   0.8916     H
Cu     0.58571  0.43808  0.67389    Cu
Cu     0.58571  0.56192  0.17389    Cu
O       0.6122  0.15115   0.9546     O
O       0.6122  0.84885   0.4546     O
H       0.6175   0.1244   0.1546     H
H       0.6175   0.8756   0.6546     H
O       0.6189   0.1849   0.3555     O
O       0.6189   0.8151   0.8555     O
N       0.6209  0.40888   0.0323     N
N       0.6209  0.59112   0.5323     N
H       0.6219   0.3584   0.8584     H
H       0.6219   0.6416   0.3584     H
H       0.6237   0.3972   0.4388     H
H       0.6237   0.6028   0.9388     H
H       0.6242   0.0924    0.517     H
H       0.6242   0.9076    0.017     H
N       0.6261  0.37424   0.6519     N
N       0.6261  0.62576   0.1519     N
N       0.6712  0.32774   0.0912     N
N       0.6712  0.67226   0.5912     N
N       0.6743  0.28841   0.6319     N
N       0.6743  0.71159   0.1319     N
C       0.6893   0.1851   0.1401     C
C       0.6893   0.8149   0.6401     C
C       0.6945   0.1486   0.5645     C
C       0.6945   0.8514   0.0645     C
C       0.7138    0.142   0.1497     C
C       0.7138    0.858   0.6497     C
C       0.7197   0.1081   0.5351     C
C       0.7197   0.8919   0.0351     C
I      0.73793  0.02377  0.04942     I
I      0.73793  0.97623  0.54942     I
I      0.74455  0.04787  0.32112     I
I      0.74455  0.95213  0.82112     I
Cu     0.74911  0.27089  0.12667    Cu
Cu     0.74911  0.72911  0.62667    Cu
Cu     0.75089  0.22911  0.62667    Cu
Cu     0.75089  0.77089  0.12667    Cu
I      0.75545  0.45213  0.82112     I
I      0.75545  0.54787  0.32112     I
I      0.76207  0.47623  0.54942     I
I      0.76207  0.52377  0.04942     I
C       0.7803   0.3919   0.0351     C
C       0.7803   0.6081   0.5351     C
C       0.7862    0.358   0.6497     C
C       0.7862    0.642   0.1497     C
C       0.8055   0.3514   0.0645     C
C       0.8055   0.6486   0.5645     C
C       0.8107   0.3149   0.6401     C
C       0.8107   0.6851   0.1401     C
N       0.8257  0.21159   0.1319     N
N       0.8257  0.78841   0.6319     N
N       0.8288  0.17226   0.5912     N
N       0.8288  0.82774   0.0912     N
N       0.8739  0.12576   0.1519     N
N       0.8739  0.87424   0.6519     N
H       0.8758   0.4076    0.017     H
H       0.8758   0.5924    0.517     H
H       0.8763   0.1028   0.9388     H
H       0.8763   0.8972   0.4388     H
H       0.8781   0.1416   0.3584     H
H       0.8781   0.8584   0.8584     H
N       0.8791  0.09112   0.5323     N
N       0.8791  0.90888   0.0323     N
O       0.8811   0.3151   0.8555     O
O       0.8811   0.6849   0.3555     O
H       0.8825   0.3756   0.6546     H
H       0.8825   0.6244   0.1546     H
O       0.8878  0.34885   0.4546     O
O       0.8878  0.65115   0.9546     O
Cu     0.91429  0.06192  0.17389    Cu
Cu     0.91429  0.93808  0.67389    Cu
H        0.917   0.1706   0.8916     H
H        0.917   0.8294   0.3916     H
H       0.9173   0.2124   0.3744     H
H       0.9173   0.7876   0.8744     H
Cu      0.9217  0.03422  0.47005    Cu
Cu      0.9217  0.96578  0.97005    Cu
O       0.9789  0.29285   0.1007     O
O       0.9789  0.70715   0.6007     O
O       0.9834    0.254   0.6341     O
C       0.9834   0.3305   0.0704     C
C       0.9834   0.6695   0.5704     C
O       0.9834    0.746   0.1341     O
C       0.9861  0.19504   0.1321     C
C       0.9861  0.80496   0.6321     C
C       0.9867   0.2943   0.6391     C
C       0.9867   0.7057   0.1391     C
C       0.9875    0.155   0.5898     C
C       0.9875    0.845   0.0898     C
C       0.9879   0.1142   0.9392     C
C       0.9879   0.8858   0.4392     C
C       0.9909   0.1524   0.3581     C
C       0.9909   0.8476   0.8581     C
