data_I
_chemical_name_common  '/home/zhangsd/repos/MofS-CGCNN/ML/data/TSD/clean_cifs/RUWWUC_clean'
_cell_length_a  9.48000
_cell_length_b  9.96800
_cell_length_c 11.25500
_cell_angle_alpha 92.32900
_cell_angle_beta  98.80400
_cell_angle_gamma 110.79600
_space_group_name_H-M_alt      'P 1'


loop_
_space_group_symop_operation_xyz
  'x, y, z' 

loop_
_atom_site_label
_atom_site_fract_x
_atom_site_fract_y
_atom_site_fract_z
_atom_site_type_symbol
C       0.0006   0.6723   0.3826     C
C        0.012   0.4363    0.152     C
C       0.0155   0.1647   0.4617     C
C       0.0483   0.5747   0.2047     C
O       0.0519   0.8349   0.9729     O
O       0.0567   0.3975   0.7336     O
H       0.0612   0.1038   0.4342     H
C       0.0692   0.2373   0.5772     C
C        0.076   0.2563   0.0295     C
H       0.0798   0.6363    0.841     H
H        0.094    0.013    0.204     H
C       0.1052   0.8175   0.6124     C
O       0.1132   0.9932    0.768     O
C       0.1148   0.4065    0.088     C
C       0.1191     0.65    0.457     C
H       0.1508   0.2256   0.6271     H
H       0.1631   0.5872   0.4304     H
C       0.1685   0.9036   0.7354     C
C        0.171   0.7233   0.5723     C
C       0.1791    0.686   0.1877     C
O       0.1822   0.2338   0.9843     O
O       0.1884   0.0399   0.1914     O
H       0.1972   0.7805   0.2164     H
H        0.232    0.133    0.209     H
H       0.2505   0.7093   0.6233     H
C       0.2523   0.5151   0.0798     C
O       0.2781   0.8824   0.8024     O
C       0.2825   0.6553   0.1279     C
La      0.2837  0.04439  0.98478    La
H        0.324   0.4943   0.0422     H
O       0.4231   0.8943   0.0805     O
C       0.4268   0.7723   0.1088     C
O       0.4506   0.2516   0.8798     O
O       0.5494   0.7484   0.1202     O
C       0.5732   0.2277   0.8912     C
O       0.5769   0.1057   0.9195     O
H        0.676   0.5057   0.9578     H
La      0.7163  0.95561  0.01522    La
C       0.7175   0.3447   0.8721     C
O       0.7219   0.1176   0.1976     O
C       0.7477   0.4849   0.9202     C
H       0.7495   0.2907   0.3767     H
H        0.768    0.867    0.791     H
H       0.8028   0.2195   0.7836     H
O       0.8116   0.9601   0.8086     O
O       0.8178   0.7662   0.0157     O
C       0.8209    0.314   0.8123     C
C        0.829   0.2767   0.4277     C
C       0.8315   0.0964   0.2646     C
H       0.8369   0.4128   0.5696     H
H       0.8492   0.7744   0.3729     H
C       0.8809     0.35    0.543     C
C       0.8852   0.5935    0.912     C
O       0.8868   0.0068    0.232     O
C       0.8948   0.1825   0.3876     C
H        0.906    0.987    0.796     H
H       0.9202   0.3637    0.159     H
C        0.924   0.7437   0.9705     C
C       0.9308   0.7627   0.4228     C
H       0.9388   0.8962   0.5658     H
O       0.9433   0.6025   0.2664     O
O       0.9481   0.1651   0.0271     O
C       0.9517   0.4253   0.7953     C
C       0.9845   0.8353   0.5383     C
C        0.988   0.5637    0.848     C
C       0.9994   0.3277   0.6174     C
