data_I
_chemical_name_common  '/home/zhangsd/repos/MofS-CGCNN/ML/data/TSD/clean_cifs/RUWXEN_clean'
_cell_length_a  9.40400
_cell_length_b  9.95700
_cell_length_c 11.45900
_cell_angle_alpha 93.38100
_cell_angle_beta  97.71600
_cell_angle_gamma 110.24200
_space_group_name_H-M_alt      'P 1'


loop_
_space_group_symop_operation_xyz
  'x, y, z' 

loop_
_atom_site_label
_atom_site_fract_x
_atom_site_fract_y
_atom_site_fract_z
_atom_site_type_symbol
O       0.0407   0.2452   0.6157     O
C       0.0804   0.7287   0.3962     C
O       0.0836   0.6076   0.4243     O
H       0.1856   0.0041   0.4657     H
O       0.2121   0.6101   0.7024     O
La     0.21553  0.45274  0.51807    La
C       0.2238   0.8433   0.3768     C
H       0.2397   0.7848   0.8817     H
C       0.2548   0.9827    0.424     C
H       0.3079   0.7173   0.2787     H
C       0.3205   0.7707    0.929     C
C       0.3222   0.5899   0.7663     C
O       0.3244   0.2661   0.5185     O
C       0.3269   0.8114     0.31     C
H       0.3335   0.9096   0.0721     H
H       0.3544   0.2814   0.8816     H
C       0.3763   0.8456   0.0435     C
O       0.3788   0.4995   0.7321     O
C       0.3861   0.6746   0.8857     C
C       0.3902   0.0924   0.4094     C
H       0.4173   0.8666   0.6666     H
C       0.4283   0.2432   0.4688     C
C       0.4354    0.268   0.9293     C
H       0.4404   0.3976   0.0759     H
O       0.4415   0.1045   0.7744     O
O       0.4436   0.6644   0.5343     O
C       0.4553   0.9223   0.2926     C
C       0.4894     0.34   0.0456     C
C        0.492   0.0614   0.3431     C
C       0.4956   0.8222   0.1123     C
C       0.5044   0.1778   0.8877     C
C        0.508   0.9386   0.6569     C
C       0.5106     0.66   0.9544     C
C       0.5447   0.0777   0.7074     C
O       0.5564   0.3356   0.4657     O
O       0.5585   0.8955   0.2256     O
H       0.5596   0.6024   0.9241     H
C       0.5646    0.732   0.0707     C
C       0.5717   0.7568   0.5312     C
H       0.5827   0.1334   0.3334     H
C       0.6098   0.9076   0.5906     C
C       0.6139   0.3254   0.1143     C
O       0.6212   0.5005   0.2679     O
C       0.6237   0.1544   0.9565     C
H       0.6456   0.7186   0.1184     H
H       0.6665   0.0904   0.9279     H
C       0.6731   0.1886     0.69     C
O       0.6756   0.7339   0.4815     O
C       0.6778   0.4101   0.2337     C
C       0.6795   0.2293    0.071     C
H       0.6921   0.2827   0.7213     H
C       0.7452   0.0173    0.576     C
H       0.7603   0.2152   0.1183     H
C       0.7762   0.1567   0.6232     C
La     0.78447  0.54726  0.48193    La
O       0.7879   0.3899   0.2976     O
H       0.8144   0.9959   0.5343     H
O       0.9164   0.3924   0.5757     O
C       0.9196   0.2713   0.6038     C
O       0.9593   0.7548   0.3843     O
