data_I
_chemical_name_common  '/home/zhangsd/repos/MofS-CGCNN/ML/data/TSD/clean_cifs/RUWZUG_clean'
_cell_length_a 37.35200
_cell_length_b  8.83400
_cell_length_c 29.56200
_cell_angle_alpha 90.00000
_cell_angle_beta  126.83800
_cell_angle_gamma 90.00000
_space_group_name_H-M_alt      'P 1'


loop_
_space_group_symop_operation_xyz
  'x, y, z' 

loop_
_atom_site_label
_atom_site_fract_x
_atom_site_fract_y
_atom_site_fract_z
_atom_site_type_symbol
C          0.0    0.383     0.25     C
Ni         0.0      0.5      0.0    Ni
Ni         0.0      0.5      0.5    Ni
C          0.0    0.617     0.75     C
O      0.00165   0.1768  0.30251     O
O      0.00165   0.8232  0.80251     O
H       0.0032   0.4958   0.9014     H
H       0.0032   0.5042   0.4014     H
C      0.00483   0.1834   0.4556     C
C      0.00483   0.8166   0.9556     C
H       0.0063   0.1244   0.0781     H
H       0.0063   0.8756   0.5781     H
H       0.0065   0.3393   0.3846     H
H       0.0065   0.6607   0.8846     H
H       0.0083   0.1427   0.0268     H
H       0.0083   0.8573   0.5268     H
C      0.00837   0.1345    0.885     C
C      0.00837   0.8655    0.385     C
N      0.00939   0.3436  0.06065     N
N      0.00939   0.6564  0.56065     N
H       0.0117   0.4575   0.8087     H
H       0.0117   0.5425   0.3087     H
O      0.01231   0.3153  0.55657     O
O      0.01231   0.6847  0.05657     O
C      0.01394   0.4028   0.4159     C
C      0.01394   0.5972   0.9159     C
C      0.01417   0.0673  0.18084     C
C      0.01417   0.9327  0.68084     C
C       0.0188   0.0289   0.8605     C
C       0.0188   0.9711   0.3605     C
C      0.02875   0.2815    0.241     C
C      0.02875   0.7185    0.741     C
C       0.0299   0.4807  0.30258     C
C       0.0299   0.5193  0.80258     C
H       0.0307   0.1969   0.9135     H
H       0.0307   0.8031   0.4135     H
C      0.03563   0.1492  0.63235     C
C      0.03563   0.8508  0.13235     C
H       0.0437   0.3416   0.2294     H
H       0.0437   0.6584   0.7294     H
C      0.04512   0.2552   0.6012     C
C      0.04512   0.7448   0.1012     C
H       0.0479   0.0219   0.8716     H
H       0.0479   0.9781   0.3716     H
H        0.049   0.4169   0.3355     H
H        0.049   0.5831   0.8355     H
H       0.0512   0.2282   0.2756     H
H       0.0512   0.7718   0.7756     H
C      0.05571    0.168   0.4966     C
C      0.05571    0.832   0.9966     C
O      0.05666   0.4244  0.79425     O
O      0.05666   0.5756  0.29425     O
C      0.05814   0.0517  0.20084     C
C      0.05814   0.9483  0.70084     C
C      0.05877   0.3455  0.10394     C
C      0.05877   0.6545  0.60394     C
N      0.06177   0.4069  0.45733     N
N      0.06177   0.5931  0.95733     N
H       0.0636   0.0617   0.5009     H
H       0.0636   0.9383   0.0009     H
H        0.066   0.2063   0.5334     H
H        0.066   0.7937   0.0334     H
N      0.06699   0.4809  0.03826     N
N      0.06699   0.5191  0.53826     N
H       0.0674   0.4348   0.1275     H
H       0.0674   0.5652   0.6275     H
H        0.068   0.2571    0.128     H
H        0.068   0.7429    0.628     H
C      0.06808   0.0576  0.67622     C
C      0.06808   0.9424  0.17622     C
H       0.0712   0.3783   0.9804     H
H       0.0712   0.6217   0.4804     H
H       0.0748   0.2546   0.0538     H
H       0.0748   0.7454   0.5538     H
H        0.076   0.1978   0.4461     H
H        0.076   0.8022   0.9461     H
H        0.077   0.3826   0.8958     H
H        0.077   0.6174   0.3958     H
C      0.07943   0.2535   0.4767     C
C      0.07943   0.7465   0.9767     C
C      0.08024   0.4755  0.99952     C
C      0.08024   0.5245  0.49952     C
H       0.0805   0.1125     0.23     H
H       0.0805   0.8875     0.73     H
H       0.0815   0.4303   0.5626     H
H       0.0815   0.5697   0.0626     H
C      0.08209   0.3463   0.0757     C
C      0.08209   0.6537   0.5757     C
C      0.08329   0.3183  0.83546     C
C      0.08329   0.6817  0.33546     C
O      0.08587   0.2791  0.62162     O
O      0.08587   0.7209  0.12162     O
C      0.09035   0.3122  0.88684     C
C      0.09035   0.6878  0.38684     C
H       0.0977   0.0699   0.6897     H
H       0.0977   0.9301   0.1897     H
H          0.1   0.2209   0.7885     H
H          0.1   0.7791   0.2885     H
C      0.10457   0.2161   0.8231     C
C      0.10457   0.7839   0.3231     C
H       0.1111   0.2594   0.5075     H
H       0.1111   0.7406   0.0075     H
H       0.1126   0.4808   0.0222     H
H       0.1126   0.5192   0.5222     H
H       0.1143     0.35   0.1043     H
H       0.1143     0.65   0.6043     H
C      0.11771   0.1997  0.92498     C
C      0.11771   0.8003  0.42498     C
H       0.1217   0.1935   0.9592     H
H       0.1217   0.8065   0.4592     H
C      0.13231   0.1081   0.8621     C
C      0.13231   0.8919   0.3621     C
C      0.13913   0.0967  0.91365     C
C      0.13913   0.9033  0.41365     C
H       0.1438   0.4494    0.377     H
H       0.1438   0.5506    0.877     H
H       0.1469    0.041   0.8538     H
H       0.1469    0.959   0.3538     H
H       0.1565   0.2789   0.3939     H
H       0.1565   0.7211   0.8939     H
H       0.1594   0.3346   0.4725     H
H       0.1594   0.6654   0.9725     H
H        0.163   0.4883   0.9782     H
H        0.163   0.5117   0.4782     H
O      0.16439   0.0533  0.49413     O
O      0.16439   0.9467  0.99413     O
C      0.16849   0.3783  0.39604     C
C      0.16849   0.6217  0.89604     C
C      0.16975   0.0214  0.45707     C
C      0.16975   0.9786  0.95707     C
H        0.179   0.4093   0.8421     H
H        0.179   0.5907   0.3421     H
C      0.17995   0.4195   0.4863     C
C      0.17995   0.5805   0.9863     C
N      0.18898   0.3747  0.36722     N
N      0.18898   0.6253  0.86722     N
H       0.1896   0.3519    0.941     H
H       0.1896   0.6481    0.441     H
O      0.19847   0.0807  0.45298     O
O      0.19847   0.9193  0.95298     O
N      0.20098   0.4235  0.45692     N
N      0.20098   0.5765  0.95692     N
H       0.2014   0.4022   0.5686     H
H       0.2014   0.5978   0.0686     H
H       0.2017   0.1561   0.3701     H
H       0.2017   0.8439   0.8701     H
C       0.2047    0.474   0.8667     C
C       0.2047    0.526   0.3667     C
C      0.21517   0.4186   0.9573     C
C      0.21517   0.5814   0.4573     C
C      0.21538   0.4043  0.54964     C
C      0.21538   0.5957  0.04964     C
C      0.21854   0.2493  0.37962     C
C      0.21854   0.7507  0.87962     C
H       0.2206   0.1784   0.5543     H
H       0.2206   0.8216   0.0543     H
H       0.2211   0.4808   0.8509     H
H       0.2211   0.5192   0.3509     H
H       0.2277   0.2571   0.3551     H
H       0.2277   0.7429   0.8551     H
C      0.23447   0.4014   0.9247     C
C      0.23447   0.5986   0.4247     C
H       0.2356     0.49   0.5639     H
H       0.2356     0.51   0.0639     H
H       0.2362   0.0521   0.0541     H
H       0.2362   0.9479   0.5541     H
H       0.2375   0.3872   0.9961     H
H       0.2375   0.6128   0.4961     H
H        0.238   0.2947   0.9205     H
H        0.238   0.7053   0.4205     H
N      0.24033   0.2623   0.5607     N
N      0.24033   0.7377   0.0607     N
Ni        0.25     0.25      0.5    Ni
Ni        0.25     0.75      0.0    Ni
N      0.25967   0.2377   0.4393     N
N      0.25967   0.7623   0.9393     N
H        0.262   0.2053   0.0795     H
H        0.262   0.7947   0.5795     H
H       0.2625   0.1128   0.0039     H
H       0.2625   0.8872   0.5039     H
H       0.2638   0.4479   0.9459     H
H       0.2638   0.5521   0.4459     H
H       0.2644     0.01   0.4361     H
H       0.2644     0.99   0.9361     H
C      0.26553   0.0986   0.0753     C
C      0.26553   0.9014   0.5753     C
H       0.2723   0.2429   0.6449     H
H       0.2723   0.7571   0.1449     H
H       0.2789   0.0192   0.1491     H
H       0.2789   0.9808   0.6491     H
H       0.2794   0.3216   0.4457     H
H       0.2794   0.6784   0.9457     H
C      0.28146   0.2507  0.62038     C
C      0.28146   0.7493  0.12038     C
C      0.28462   0.0957  0.45036     C
C      0.28462   0.9043  0.95036     C
C      0.28483   0.0814   0.0427     C
C      0.28483   0.9186   0.5427     C
C       0.2953    0.026   0.1333     C
C       0.2953    0.974   0.6333     C
H       0.2983   0.3439   0.6299     H
H       0.2983   0.6561   0.1299     H
H       0.2986   0.0978   0.4314     H
H       0.2986   0.9022   0.9314     H
N      0.29902   0.0765  0.54308     N
N      0.29902   0.9235  0.04308     N
O      0.30153   0.4193  0.54702     O
O      0.30153   0.5807  0.04702     O
H       0.3104   0.1481    0.059     H
H       0.3104   0.8519    0.559     H
N      0.31102   0.1253  0.63278     N
N      0.31102   0.8747  0.13278     N
C      0.32005   0.0805   0.5137     C
C      0.32005   0.9195   0.0137     C
H        0.321   0.0907   0.1579     H
H        0.321   0.9093   0.6579     H
C      0.33025   0.4786  0.54293     C
C      0.33025   0.5214  0.04293     C
C      0.33151   0.1217  0.60396     C
C      0.33151   0.8783  0.10396     C
O      0.33561   0.4467  0.50587     O
O      0.33561   0.5533  0.00587     O
H        0.337   0.0117   0.0218     H
H        0.337   0.9883   0.5218     H
H       0.3406   0.1654   0.5275     H
H       0.3406   0.8346   0.0275     H
H       0.3435   0.2211   0.6061     H
H       0.3435   0.7789   0.1061     H
H       0.3531    0.459   0.1462     H
H       0.3531    0.541   0.6462     H
H       0.3562   0.0506    0.623     H
H       0.3562   0.9494    0.123     H
C      0.36087   0.4033  0.08635     C
C      0.36087   0.5967  0.58635     C
C      0.36769   0.3919   0.1379     C
C      0.36769   0.6081   0.6379     C
H       0.3783   0.3065   0.0408     H
H       0.3783   0.6935   0.5408     H
C      0.38229   0.3003  0.07502     C
C      0.38229   0.6997  0.57502     C
H       0.3857     0.15   0.8957     H
H       0.3857     0.85   0.3957     H
H       0.3874   0.0192   0.9778     H
H       0.3874   0.9808   0.4778     H
H       0.3889   0.2406   0.4925     H
H       0.3889   0.7594   0.9925     H
C      0.39543   0.2839   0.1769     C
C      0.39543   0.7161   0.6769     C
H          0.4   0.2791   0.2115     H
H          0.4   0.7209   0.7115     H
H       0.4023   0.4301   0.3103     H
H       0.4023   0.5699   0.8103     H
C      0.40965   0.1878  0.11316     C
C      0.40965   0.8122  0.61316     C
O      0.41413   0.2209  0.37838     O
O      0.41413   0.7791  0.87838     O
C      0.41671   0.1817  0.16454     C
C      0.41671   0.8183  0.66454     C
C      0.41791   0.1537   0.9243     C
C      0.41791   0.8463   0.4243     C
H       0.4185   0.0697   0.4374     H
H       0.4185   0.9303   0.9374     H
H       0.4195   0.3875     0.77     H
H       0.4195   0.6125     0.27     H
C      0.41976   0.0245  0.00048     C
C      0.41976   0.9755  0.50048     C
C      0.42057   0.2465   0.5233     C
C      0.42057   0.7535   0.0233     C
H        0.423   0.1174   0.1042     H
H        0.423   0.8826   0.6042     H
H        0.424   0.3022   0.5539     H
H        0.424   0.6978   0.0539     H
H       0.4252   0.2454   0.9462     H
H       0.4252   0.7546   0.4462     H
H       0.4288   0.1217   0.0196     H
H       0.4288   0.8783   0.5196     H
C      0.43192   0.4424  0.32378     C
C      0.43192   0.5576  0.82378     C
H        0.432   0.2429    0.872     H
H        0.432   0.7571    0.372     H
H       0.4326   0.0652   0.8725     H
H       0.4326   0.9348   0.3725     H
N      0.43301   0.0191  0.96174     N
N      0.43301   0.9809  0.46174     N
H        0.434   0.2937   0.4666     H
H        0.434   0.7063   0.9666     H
H       0.4364   0.4383   0.4991     H
H       0.4364   0.5617   0.9991     H
N      0.43823   0.0931  0.54267     N
N      0.43823   0.9069  0.04267     N
C      0.44123   0.1545  0.89606     C
C      0.44123   0.8455  0.39606     C
C      0.44186   0.4483  0.79916     C
C      0.44186   0.5517  0.29916     C
O      0.44334   0.0756  0.20575     O
O      0.44334   0.9244  0.70575     O
C      0.44429    0.332   0.5034     C
C      0.44429    0.668   0.0034     C
H       0.4488   0.2718   0.7244     H
H       0.4488   0.7282   0.2244     H
H        0.451   0.0831   0.6645     H
H        0.451   0.9169   0.1645     H
H       0.4521   0.4781   0.1284     H
H       0.4521   0.5219   0.6284     H
C      0.45488   0.2448   0.3988     C
C      0.45488   0.7552   0.8988     C
H       0.4563   0.1584   0.7706     H
H       0.4563   0.8416   0.2706     H
C      0.46437   0.3508  0.36765     C
C      0.46437   0.6492  0.86765     C
H       0.4693   0.3031   0.0865     H
H       0.4693   0.6969   0.5865     H
C       0.4701   0.0193  0.69742     C
C       0.4701   0.9807  0.19742     C
C      0.47125   0.2185    0.759     C
C      0.47125   0.7815    0.259     C
C       0.4812   0.4711   0.1395     C
C       0.4812   0.5289   0.6395     C
C      0.48583   0.4327  0.81916     C
C      0.48583   0.5673  0.31916     C
C      0.48606   0.0972   0.5841     C
C      0.48606   0.9028   0.0841     C
O      0.48769   0.1847  0.44343     O
O      0.48769   0.8153  0.94343     O
H       0.4883   0.0425   0.1913     H
H       0.4883   0.9575   0.6913     H
N      0.49061   0.1564  0.93935     N
N      0.49061   0.8436  0.43935     N
C      0.49163   0.3655    0.115     C
C      0.49163   0.6345    0.615     C
H       0.4917   0.3573   0.9732     H
H       0.4917   0.6427   0.4732     H
H       0.4935   0.1607   0.6154     H
H       0.4935   0.8393   0.1154     H
H       0.4937   0.3756   0.9219     H
H       0.4937   0.6244   0.4219     H
C      0.49517   0.3166   0.5444     C
C      0.49517   0.6834   0.0444     C
H       0.4968   0.0042   0.0986     H
H       0.4968   0.9958   0.5986     H
O      0.49835   0.3232  0.69749     O
O      0.49835   0.6768  0.19749     O
Ni         0.5      0.0      0.0    Ni
Ni         0.5      0.0      0.5    Ni
C          0.5    0.117     0.75     C
C          0.5    0.883     0.25     C
O      0.50165   0.3232  0.80251     O
O      0.50165   0.6768  0.30251     O
H       0.5032   0.0042   0.4014     H
H       0.5032   0.9958   0.9014     H
C      0.50483   0.3166   0.9556     C
C      0.50483   0.6834   0.4556     C
H       0.5063   0.3756   0.5781     H
H       0.5063   0.6244   0.0781     H
H       0.5065   0.1607   0.8846     H
H       0.5065   0.8393   0.3846     H
H       0.5083   0.3573   0.5268     H
H       0.5083   0.6427   0.0268     H
C      0.50837   0.3655    0.385     C
C      0.50837   0.6345    0.885     C
N      0.50939   0.1564  0.56065     N
N      0.50939   0.8436  0.06065     N
H       0.5117   0.0425   0.3087     H
H       0.5117   0.9575   0.8087     H
O      0.51231   0.1847  0.05657     O
O      0.51231   0.8153  0.55657     O
C      0.51394   0.0972   0.9159     C
C      0.51394   0.9028   0.4159     C
C      0.51417   0.4327  0.68084     C
C      0.51417   0.5673  0.18084     C
C       0.5188   0.4711   0.3605     C
C       0.5188   0.5289   0.8605     C
C      0.52875   0.2185    0.741     C
C      0.52875   0.7815    0.241     C
C       0.5299   0.0193  0.80258     C
C       0.5299   0.9807  0.30258     C
H       0.5307   0.3031   0.4135     H
H       0.5307   0.6969   0.9135     H
C      0.53563   0.3508  0.13235     C
C      0.53563   0.6492  0.63235     C
H       0.5437   0.1584   0.7294     H
H       0.5437   0.8416   0.2294     H
C      0.54512   0.2448   0.1012     C
C      0.54512   0.7552   0.6012     C
H       0.5479   0.4781   0.3716     H
H       0.5479   0.5219   0.8716     H
H        0.549   0.0831   0.8355     H
H        0.549   0.9169   0.3355     H
H       0.5512   0.2718   0.7756     H
H       0.5512   0.7282   0.2756     H
C      0.55571    0.332   0.9966     C
C      0.55571    0.668   0.4966     C
O      0.55666   0.0756  0.29425     O
O      0.55666   0.9244  0.79425     O
C      0.55814   0.4483  0.70084     C
C      0.55814   0.5517  0.20084     C
C      0.55877   0.1545  0.60394     C
C      0.55877   0.8455  0.10394     C
N      0.56177   0.0931  0.95733     N
N      0.56177   0.9069  0.45733     N
H       0.5636   0.4383   0.0009     H
H       0.5636   0.5617   0.5009     H
H        0.566   0.2937   0.0334     H
H        0.566   0.7063   0.5334     H
N      0.56699   0.0191  0.53826     N
N      0.56699   0.9809  0.03826     N
H       0.5674   0.0652   0.6275     H
H       0.5674   0.9348   0.1275     H
H        0.568   0.2429    0.628     H
H        0.568   0.7571    0.128     H
C      0.56808   0.4424  0.17622     C
C      0.56808   0.5576  0.67622     C
H       0.5712   0.1217   0.4804     H
H       0.5712   0.8783   0.9804     H
H       0.5748   0.2454   0.5538     H
H       0.5748   0.7546   0.0538     H
H        0.576   0.3022   0.9461     H
H        0.576   0.6978   0.4461     H
H        0.577   0.1174   0.3958     H
H        0.577   0.8826   0.8958     H
C      0.57943   0.2465   0.9767     C
C      0.57943   0.7535   0.4767     C
C      0.58024   0.0245  0.49952     C
C      0.58024   0.9755  0.99952     C
H       0.5805   0.3875     0.73     H
H       0.5805   0.6125     0.23     H
H       0.5815   0.0697   0.0626     H
H       0.5815   0.9303   0.5626     H
C      0.58209   0.1537   0.5757     C
C      0.58209   0.8463   0.0757     C
C      0.58329   0.1817  0.33546     C
C      0.58329   0.8183  0.83546     C
O      0.58587   0.2209  0.12162     O
O      0.58587   0.7791  0.62162     O
C      0.59035   0.1878  0.38684     C
C      0.59035   0.8122  0.88684     C
H       0.5977   0.4301   0.1897     H
H       0.5977   0.5699   0.6897     H
H          0.6   0.2791   0.2885     H
H          0.6   0.7209   0.7885     H
C      0.60457   0.2839   0.3231     C
C      0.60457   0.7161   0.8231     C
H       0.6111   0.2406   0.0075     H
H       0.6111   0.7594   0.5075     H
H       0.6126   0.0192   0.5222     H
H       0.6126   0.9808   0.0222     H
H       0.6143     0.15   0.6043     H
H       0.6143     0.85   0.1043     H
C      0.61771   0.3003  0.42498     C
C      0.61771   0.6997  0.92498     C
H       0.6217   0.3065   0.4592     H
H       0.6217   0.6935   0.9592     H
C      0.63231   0.3919   0.3621     C
C      0.63231   0.6081   0.8621     C
C      0.63913   0.4033  0.41365     C
C      0.63913   0.5967  0.91365     C
H       0.6438   0.0506    0.877     H
H       0.6438   0.9494    0.377     H
H       0.6469    0.459   0.3538     H
H       0.6469    0.541   0.8538     H
H       0.6565   0.2211   0.8939     H
H       0.6565   0.7789   0.3939     H
H       0.6594   0.1654   0.9725     H
H       0.6594   0.8346   0.4725     H
H        0.663   0.0117   0.4782     H
H        0.663   0.9883   0.9782     H
O      0.66439   0.4467  0.99413     O
O      0.66439   0.5533  0.49413     O
C      0.66849   0.1217  0.89604     C
C      0.66849   0.8783  0.39604     C
C      0.66975   0.4786  0.95707     C
C      0.66975   0.5214  0.45707     C
H        0.679   0.0907   0.3421     H
H        0.679   0.9093   0.8421     H
C      0.67995   0.0805   0.9863     C
C      0.67995   0.9195   0.4863     C
N      0.68898   0.1253  0.86722     N
N      0.68898   0.8747  0.36722     N
H       0.6896   0.1481    0.441     H
H       0.6896   0.8519    0.941     H
O      0.69847   0.4193  0.95298     O
O      0.69847   0.5807  0.45298     O
N      0.70098   0.0765  0.95692     N
N      0.70098   0.9235  0.45692     N
H       0.7014   0.0978   0.0686     H
H       0.7014   0.9022   0.5686     H
H       0.7017   0.3439   0.8701     H
H       0.7017   0.6561   0.3701     H
C       0.7047    0.026   0.3667     C
C       0.7047    0.974   0.8667     C
C      0.71517   0.0814   0.4573     C
C      0.71517   0.9186   0.9573     C
C      0.71538   0.0957  0.04964     C
C      0.71538   0.9043  0.54964     C
C      0.71854   0.2507  0.87962     C
C      0.71854   0.7493  0.37962     C
H       0.7206   0.3216   0.0543     H
H       0.7206   0.6784   0.5543     H
H       0.7211   0.0192   0.3509     H
H       0.7211   0.9808   0.8509     H
H       0.7277   0.2429   0.8551     H
H       0.7277   0.7571   0.3551     H
C      0.73447   0.0986   0.4247     C
C      0.73447   0.9014   0.9247     C
H       0.7356     0.01   0.0639     H
H       0.7356     0.99   0.5639     H
H       0.7362   0.4479   0.5541     H
H       0.7362   0.5521   0.0541     H
H       0.7375   0.1128   0.4961     H
H       0.7375   0.8872   0.9961     H
H        0.738   0.2053   0.4205     H
H        0.738   0.7947   0.9205     H
N      0.74033   0.2377   0.0607     N
N      0.74033   0.7623   0.5607     N
Ni        0.75     0.25      0.0    Ni
Ni        0.75     0.75      0.5    Ni
N      0.75967   0.2623   0.9393     N
N      0.75967   0.7377   0.4393     N
H        0.762   0.2947   0.5795     H
H        0.762   0.7053   0.0795     H
H       0.7625   0.3872   0.5039     H
H       0.7625   0.6128   0.0039     H
H       0.7638   0.0521   0.4459     H
H       0.7638   0.9479   0.9459     H
H       0.7644     0.49   0.9361     H
H       0.7644     0.51   0.4361     H
C      0.76553   0.4014   0.5753     C
C      0.76553   0.5986   0.0753     C
H       0.7723   0.2571   0.1449     H
H       0.7723   0.7429   0.6449     H
H       0.7789   0.4808   0.6491     H
H       0.7789   0.5192   0.1491     H
H       0.7794   0.1784   0.9457     H
H       0.7794   0.8216   0.4457     H
C      0.78146   0.2493  0.12038     C
C      0.78146   0.7507  0.62038     C
C      0.78462   0.4043  0.95036     C
C      0.78462   0.5957  0.45036     C
C      0.78483   0.4186   0.5427     C
C      0.78483   0.5814   0.0427     C
C       0.7953    0.474   0.6333     C
C       0.7953    0.526   0.1333     C
H       0.7983   0.1561   0.1299     H
H       0.7983   0.8439   0.6299     H
H       0.7986   0.4022   0.9314     H
H       0.7986   0.5978   0.4314     H
N      0.79902   0.4235  0.04308     N
N      0.79902   0.5765  0.54308     N
O      0.80153   0.0807  0.04702     O
O      0.80153   0.9193  0.54702     O
H       0.8104   0.3519    0.559     H
H       0.8104   0.6481    0.059     H
N      0.81102   0.3747  0.13278     N
N      0.81102   0.6253  0.63278     N
C      0.82005   0.4195   0.0137     C
C      0.82005   0.5805   0.5137     C
H        0.821   0.4093   0.6579     H
H        0.821   0.5907   0.1579     H
C      0.83025   0.0214  0.04293     C
C      0.83025   0.9786  0.54293     C
C      0.83151   0.3783  0.10396     C
C      0.83151   0.6217  0.60396     C
O      0.83561   0.0533  0.00587     O
O      0.83561   0.9467  0.50587     O
H        0.837   0.4883   0.5218     H
H        0.837   0.5117   0.0218     H
H       0.8406   0.3346   0.0275     H
H       0.8406   0.6654   0.5275     H
H       0.8435   0.2789   0.1061     H
H       0.8435   0.7211   0.6061     H
H       0.8531    0.041   0.6462     H
H       0.8531    0.959   0.1462     H
H       0.8562   0.4494    0.123     H
H       0.8562   0.5506    0.623     H
C      0.86087   0.0967  0.58635     C
C      0.86087   0.9033  0.08635     C
C      0.86769   0.1081   0.6379     C
C      0.86769   0.8919   0.1379     C
H       0.8783   0.1935   0.5408     H
H       0.8783   0.8065   0.0408     H
C      0.88229   0.1997  0.57502     C
C      0.88229   0.8003  0.07502     C
H       0.8857     0.35   0.3957     H
H       0.8857     0.65   0.8957     H
H       0.8874   0.4808   0.4778     H
H       0.8874   0.5192   0.9778     H
H       0.8889   0.2594   0.9925     H
H       0.8889   0.7406   0.4925     H
C      0.89543   0.2161   0.6769     C
C      0.89543   0.7839   0.1769     C
H          0.9   0.2209   0.7115     H
H          0.9   0.7791   0.2115     H
H       0.9023   0.0699   0.8103     H
H       0.9023   0.9301   0.3103     H
C      0.90965   0.3122  0.61316     C
C      0.90965   0.6878  0.11316     C
O      0.91413   0.2791  0.87838     O
O      0.91413   0.7209  0.37838     O
C      0.91671   0.3183  0.66454     C
C      0.91671   0.6817  0.16454     C
C      0.91791   0.3463   0.4243     C
C      0.91791   0.6537   0.9243     C
H       0.9185   0.4303   0.9374     H
H       0.9185   0.5697   0.4374     H
H       0.9195   0.1125     0.27     H
H       0.9195   0.8875     0.77     H
C      0.91976   0.4755  0.50048     C
C      0.91976   0.5245  0.00048     C
C      0.92057   0.2535   0.0233     C
C      0.92057   0.7465   0.5233     C
H        0.923   0.3826   0.6042     H
H        0.923   0.6174   0.1042     H
H        0.924   0.1978   0.0539     H
H        0.924   0.8022   0.5539     H
H       0.9252   0.2546   0.4462     H
H       0.9252   0.7454   0.9462     H
H       0.9288   0.3783   0.5196     H
H       0.9288   0.6217   0.0196     H
C      0.93192   0.0576  0.82378     C
C      0.93192   0.9424  0.32378     C
H        0.932   0.2571    0.372     H
H        0.932   0.7429    0.872     H
H       0.9326   0.4348   0.3725     H
H       0.9326   0.5652   0.8725     H
N      0.93301   0.4809  0.46174     N
N      0.93301   0.5191  0.96174     N
H        0.934   0.2063   0.9666     H
H        0.934   0.7937   0.4666     H
H       0.9364   0.0617   0.9991     H
H       0.9364   0.9383   0.4991     H
N      0.93823   0.4069  0.04267     N
N      0.93823   0.5931  0.54267     N
C      0.94123   0.3455  0.39606     C
C      0.94123   0.6545  0.89606     C
C      0.94186   0.0517  0.29916     C
C      0.94186   0.9483  0.79916     C
O      0.94334   0.4244  0.70575     O
O      0.94334   0.5756  0.20575     O
C      0.94429    0.168   0.0034     C
C      0.94429    0.832   0.5034     C
H       0.9488   0.2282   0.2244     H
H       0.9488   0.7718   0.7244     H
H        0.951   0.4169   0.1645     H
H        0.951   0.5831   0.6645     H
H       0.9521   0.0219   0.6284     H
H       0.9521   0.9781   0.1284     H
C      0.95488   0.2552   0.8988     C
C      0.95488   0.7448   0.3988     C
H       0.9563   0.3416   0.2706     H
H       0.9563   0.6584   0.7706     H
C      0.96437   0.1492  0.86765     C
C      0.96437   0.8508  0.36765     C
H       0.9693   0.1969   0.5865     H
H       0.9693   0.8031   0.0865     H
C       0.9701   0.4807  0.19742     C
C       0.9701   0.5193  0.69742     C
C      0.97125   0.2815    0.259     C
C      0.97125   0.7185    0.759     C
C       0.9812   0.0289   0.6395     C
C       0.9812   0.9711   0.1395     C
C      0.98583   0.0673  0.31916     C
C      0.98583   0.9327  0.81916     C
C      0.98606   0.4028   0.0841     C
C      0.98606   0.5972   0.5841     C
O      0.98769   0.3153  0.94343     O
O      0.98769   0.6847  0.44343     O
H       0.9883   0.4575   0.6913     H
H       0.9883   0.5425   0.1913     H
N      0.99061   0.3436  0.43935     N
N      0.99061   0.6564  0.93935     N
C      0.99163   0.1345    0.615     C
C      0.99163   0.8655    0.115     C
H       0.9917   0.1427   0.4732     H
H       0.9917   0.8573   0.9732     H
H       0.9935   0.3393   0.1154     H
H       0.9935   0.6607   0.6154     H
H       0.9937   0.1244   0.4219     H
H       0.9937   0.8756   0.9219     H
C      0.99517   0.1834   0.0444     C
C      0.99517   0.8166   0.5444     C
H       0.9968   0.4958   0.5986     H
H       0.9968   0.5042   0.0986     H
O      0.99835   0.1768  0.19749     O
O      0.99835   0.8232  0.69749     O
