data_I
_chemical_name_common  '/home/zhangsd/repos/MofS-CGCNN/ML/data/TSD/clean_cifs/RUYQIN03_clean'
_cell_length_a 24.23720
_cell_length_b 24.23720
_cell_length_c 13.21350
_cell_angle_alpha 90.00000
_cell_angle_beta  90.00000
_cell_angle_gamma 120.00000
_space_group_name_H-M_alt      'P 1'


loop_
_space_group_symop_operation_xyz
  'x, y, z' 

loop_
_atom_site_label
_atom_site_fract_x
_atom_site_fract_y
_atom_site_fract_z
_atom_site_type_symbol
N          0.0   0.3108      0.0     N
C          0.0   0.3715      0.0     C
C          0.0   0.4841      0.0     C
C          0.0   0.5484      0.0     C
La         0.0  0.68262      0.5    La
O        0.006    0.575   0.9162     O
La     0.01596  0.66667  0.16667    La
O      0.01987  0.61673  0.33213     O
C      0.02133  0.41397  0.65377     C
C      0.02183  0.52837  0.63377     C
N      0.02253  0.35587  0.66667     N
H       0.0227   0.2281   0.9127     H
C      0.02323  0.58957  0.62057     C
H      0.02357  0.28623  0.20323     H
C       0.0275   0.4692    0.923     C
C       0.0279   0.4135   0.9227     C
C      0.02857  0.50563  0.31763     C
C      0.02887  0.44873  0.30773     C
O       0.0376   0.7653   0.8919     O
C      0.03817  0.33333  0.33333     C
H       0.0464   0.4978   0.8698     H
H       0.0471    0.404   0.8699     H
O      0.04993  0.73647  0.66547     O
H      0.05213  0.27067  0.60857     H
C      0.05227  0.30543  0.25603     C
C       0.0593    0.312   0.9871     C
C       0.0602   0.2616   0.9385     C
O      0.06103  0.62907  0.55857     O
H      0.06207  0.54313  0.29183     H
H      0.06267  0.44813  0.27523     H
O       0.0698   0.7166   0.0012     O
H      0.07067  0.38043  0.46343     H
C      0.07173  0.46527  0.60517     C
C      0.07203  0.52247  0.59527     C
C       0.0771    0.767   0.9539     C
C      0.08017  0.36123  0.41063     C
C      0.08063  0.35467  0.67957     C
C      0.08653  0.30447  0.64107     C
O      0.09167  0.76433  0.24953     O
O      0.09767  0.75833  0.41713     O
O      0.09863  0.70427  0.77477     O
C      0.10033  0.74377  0.71277     C
H      0.10523  0.46127  0.57937     H
H      0.10573  0.55677  0.56277     H
C      0.10837  0.30583  0.25633     C
H       0.1099   0.8823   0.8961     H
H       0.1148    0.396   0.0581     H
C       0.1154   0.3622   0.0256     C
C       0.1171   0.2613   0.9286     C
H       0.1177   0.2276   0.8961     H
H      0.11807  0.28693  0.20313     H
C      0.11827  0.78493  0.33333     C
H      0.12353  0.85227  0.62517     H
H      0.12793  0.43857  0.75397     H
C      0.13193  0.40507  0.72817     C
C      0.13587  0.36083  0.41033     C
C       0.1383   0.8268   0.9671     C
C      0.14373  0.30477  0.65097     C
C       0.1442   0.8829   0.9286     C
H      0.14773  0.27127  0.62517     H
C      0.15077  0.33333  0.33333     C
C      0.16013  0.80497  0.69957     C
C      0.16103  0.85627  0.65097     C
H      0.16447  0.37973  0.46353     H
H      0.16887  0.88193  0.20313     H
C       0.1723   0.3619   0.0157     C
C       0.1732   0.3115   0.9671     C
C      0.18257  0.84923  0.33333     C
H       0.1856   0.7902   0.0415     H
C      0.18913  0.40537  0.73807     C
C       0.1896   0.8277   0.0157     C
C      0.19503  0.35517  0.69957     C
C      0.19747  0.89163  0.25633     C
C       0.2014   0.9398   0.9385     C
H       0.2054   0.9773   0.9127     H
H       0.2098   0.3954   0.0415     H
C      0.21507  0.33333  0.33333     C
H      0.21527  0.83553  0.46353     H
H      0.21563  0.77657  0.77057     H
C      0.21623  0.81087  0.73807     C
C      0.21793  0.91347  0.64107     C
H      0.21853  0.94787  0.60857     H
H      0.22343  0.43907  0.77057     H
C      0.22497  0.86413  0.41033     C
H       0.2276   0.1177   0.1039     H
H       0.2281   0.0227   0.0873     H
C        0.233   0.3101   0.9539     C
O       0.2347   0.2723   0.8919     O
O      0.23567  0.32733  0.24953     O
O      0.24167  0.33933  0.41713     O
C       0.2468   0.8846   0.0256     C
C       0.2527   0.9407   0.9871     C
C      0.25317  0.94773  0.25603     C
C      0.25623  0.35657  0.71277     C
C       0.2613   0.1171   0.0714     C
C       0.2616   0.0602   0.0615     C
H      0.26267  0.97643  0.20323     H
O      0.26353  0.31347  0.66547     O
H      0.27067  0.05213  0.39143     H
H      0.27127  0.14773  0.37483     H
O       0.2723   0.2347   0.1081     O
C      0.27313  0.86807  0.72817     C
C      0.27403  0.91937  0.67957     C
C      0.28107  0.91983  0.41063     C
H       0.2812   0.8852   0.0581     H
O       0.2834   0.3532   0.0012     O
H      0.28623  0.02357  0.79677     H
H      0.28693  0.11807  0.79687     H
C      0.29517  0.96183  0.33333     C
O      0.29573  0.39437  0.77477     O
C      0.30447  0.08653  0.35893     C
C      0.30477  0.14373  0.34903     C
C      0.30543  0.05227  0.74397     C
C      0.30583  0.10837  0.74367     C
H      0.30977  0.92933  0.46343     H
C       0.3101    0.233   0.0461     C
H      0.31063  0.87207  0.75397     H
N       0.3108      0.0      0.0     N
C       0.3115   0.1732   0.0329     C
C        0.312   0.0593   0.0129     C
O      0.31347  0.26353  0.33453     O
La     0.31738  0.31738      0.5    La
O      0.32733  0.23567  0.75047     O
C      0.33333  0.03817  0.66667     C
C      0.33333  0.15077  0.66667     C
C      0.33333  0.21507  0.66667     C
La     0.33333  0.34929  0.16667    La
N      0.33333  0.97747  0.66667     N
O      0.33933  0.24167  0.58287     O
La     0.34929  0.33333  0.83333    La
O       0.3532   0.2834   0.9988     O
C      0.35467  0.08063  0.32043     C
C      0.35517  0.19503  0.30043     C
N      0.35587  0.02253  0.33333     N
H      0.35603  0.89477  0.57937     H
C      0.35657  0.25623  0.28723     C
H       0.3569   0.9529   0.8699     H
C      0.36083  0.13587  0.58967     C
C      0.36123  0.08017  0.58937     C
C       0.3619   0.1723   0.9843     C
C       0.3622   0.1154   0.9744     C
O      0.37093  0.43197  0.55857     O
C       0.3715      0.0      0.0     C
H      0.37973  0.16447  0.53647     H
H      0.38043  0.07067  0.53657     H
O      0.38327  0.40313  0.33213     O
H      0.38547  0.93733  0.27523     H
C       0.3856   0.9721   0.9227     C
C      0.39263  0.97867  0.65377     C
C      0.39353  0.92827  0.60517     C
O      0.39437  0.29573  0.22523     O
H       0.3954   0.2098   0.9585     H
H        0.396   0.1148   0.9419     H
O      0.40313  0.38327  0.66787     O
H        0.404   0.0471   0.1301     H
C      0.40507  0.13193  0.27183     C
C      0.40537  0.18913  0.26193     C
C      0.41043  0.43367  0.62057     C
C       0.4135   0.0279   0.0773     C
C      0.41397  0.02133  0.34623     C
C      0.41987  0.97113  0.30773     C
O        0.425    0.431   0.9162     O
O        0.431    0.425   0.0838     O
O      0.43197  0.37093  0.44143     O
C      0.43367  0.41043  0.37943     C
H      0.43857  0.12793  0.24603     H
H      0.43907  0.22343  0.22943     H
C       0.4417   0.9725    0.923     C
H      0.44323  0.54897  0.56277     H
H      0.44813  0.06267  0.72477     H
C      0.44873  0.02887  0.69227     C
C      0.45043  0.92797  0.59527     C
H      0.45103  0.89427  0.56277     H
H       0.4514   0.9536   0.8698     H
C       0.4516   0.4516      0.0     C
H      0.45687  0.51893  0.29183     H
H      0.46127  0.10523  0.42063     H
C      0.46527  0.07173  0.39483     C
C       0.4692   0.0275    0.077     C
C      0.47163  0.49347  0.63377     C
C      0.47707  0.97143  0.31763     C
C      0.47753  0.54957  0.59527     C
H      0.48107  0.93793  0.29183     H
C       0.4841      0.0      0.0     C
C      0.49347  0.47163  0.36623     C
C      0.49437  0.52293  0.31763     C
H       0.4978   0.0464   0.1302     H
H       0.5022   0.5486   0.8698     H
C      0.50563  0.02857  0.68237     C
C      0.50653  0.97817  0.63377     C
C       0.5159   0.5159      0.0     C
H      0.51893  0.45687  0.70817     H
C      0.52247  0.07203  0.40473     C
C      0.52293  0.49437  0.68237     C
C      0.52837  0.02183  0.36623     C
C       0.5308   0.5583    0.923     C
C      0.53473  0.60647  0.60517     C
H      0.53873  0.64397  0.57937     H
H      0.54313  0.06207  0.70817     H
C       0.5484      0.0      0.0     C
H       0.5486   0.5022   0.1302     H
H      0.54897  0.44323  0.43723     H
C      0.54957  0.47753  0.40473     C
C      0.55127  0.58013  0.30773     C
H      0.55187  0.61453  0.27523     H
H      0.55677  0.10573  0.43723     H
C       0.5583   0.5308    0.077     C
H      0.56093  0.78437  0.77057     H
H      0.56143  0.68937  0.75397     H
C      0.56633  0.97677  0.62057     C
O      0.56803  0.93897  0.55857     O
O        0.569    0.994   0.9162     O
O        0.575    0.006   0.0838     O
C      0.58013  0.55127  0.69227     C
C      0.58603  0.60737  0.65377     C
C       0.5865   0.6144   0.9227     C
C      0.58957  0.02323  0.37943     C
C      0.59463  0.78377  0.73807     C
C      0.59493  0.72687  0.72817     C
H        0.596   0.6431   0.8699     H
O      0.59687  0.98013  0.33213     O
H        0.604   0.7188   0.0581     H
H       0.6046   0.8144   0.0415     H
O      0.60563  0.90137  0.77477     O
C      0.60647  0.53473  0.39483     C
C      0.60737  0.58603  0.34623     C
C       0.6144   0.5865   0.0773     C
H      0.61453  0.55187  0.72477     H
O      0.61673  0.01987  0.66787     O
H      0.61957  0.69023  0.46343     H
H      0.62027  0.78473  0.46353     H
C       0.6285   0.6285      0.0     C
O      0.62907  0.06103  0.44143     O
C       0.6378   0.7532   0.0256     C
C       0.6381   0.8104   0.0157     C
C      0.63877  0.71893  0.41063     C
C      0.63917  0.77503  0.41033     C
H       0.6431    0.596   0.1301     H
C      0.64343  0.89967  0.71277     C
H      0.64397  0.53873  0.42063     H
N      0.64413  0.66667  0.66667     N
C      0.64483  0.83987  0.69957     C
C      0.64533  0.72597  0.67957     C
O       0.6468   0.9302   0.0012     O
La     0.65071  0.98404  0.16667    La
O      0.66067  0.90233  0.41713     O
La     0.66667  0.01596  0.83333    La
N      0.66667  0.64413  0.33333     N
C      0.66667  0.70483  0.33333     C
C      0.66667  0.81743  0.33333     C
C      0.66667  0.88173  0.33333     C
O      0.67267  0.90833  0.24953     O
La     0.68262      0.0      0.5    La
O      0.68653  0.95007  0.66547     O
C        0.688   0.7473   0.9871     C
C       0.6885   0.8617   0.9671     C
N       0.6892   0.6892      0.0     N
H      0.68937  0.56143  0.24603     H
C       0.6899   0.9229   0.9539     C
H      0.69023  0.61957  0.53657     H
C      0.69417  0.80253  0.25633     C
C      0.69457  0.74683  0.25603     C
C      0.69523  0.83897  0.65097     C
C      0.69553  0.78207  0.64107     C
O      0.70427  0.09863  0.22523     O
C      0.70483  0.66667  0.66667     C
H      0.71307  0.83113  0.20313     H
H      0.71377  0.73733  0.20323     H
O       0.7166   0.0698   0.9988     O
H       0.7188    0.604   0.9419     H
C      0.71893  0.63877  0.58937     C
C      0.72597  0.64533  0.32043     C
C      0.72687  0.59493  0.27183     C
O       0.7277   0.9624   0.8919     O
H      0.72873  0.87647  0.62517     H
H      0.72933  0.78147  0.60857     H
O      0.73647  0.04993  0.33453     O
H      0.73733  0.71377  0.79677     H
C       0.7384   0.7986   0.9385     C
C       0.7387   0.8558   0.9286     C
C      0.74377  0.10033  0.28723     C
C      0.74683  0.69457  0.74397     C
C       0.7473    0.688   0.0129     C
C       0.7532   0.6378   0.9744     C
O      0.75833  0.09767  0.58287     O
O      0.76433  0.09167  0.75047     O
O       0.7653   0.0376   0.1081     O
C        0.767   0.0771   0.0461     C
H       0.7719   0.7946   0.9127     H
H       0.7724   0.8901   0.8961     H
C      0.77503  0.63917  0.58967     C
H      0.77657  0.21563  0.22943     H
H      0.78147  0.72933  0.39143     H
C      0.78207  0.69553  0.35893     C
C      0.78377  0.59463  0.26193     C
H      0.78437  0.56093  0.22943     H
H      0.78473  0.62027  0.53647     H
C      0.78493  0.11827  0.66667     C
H       0.7902   0.1856   0.9585     H
H       0.7946   0.7719   0.0873     H
C       0.7986   0.7384   0.0615     C
C      0.80253  0.69417  0.74367     C
C      0.80497  0.16013  0.30043     C
C       0.8104   0.6381   0.9843     C
C      0.81087  0.21623  0.26193     C
H       0.8144   0.6046   0.9585     H
C      0.81743  0.66667  0.66667     C
C       0.8268   0.1383   0.0329     C
C       0.8277   0.1896   0.9843     C
H      0.83113  0.71307  0.79687     H
H      0.83553  0.21527  0.53647     H
C      0.83897  0.69523  0.34903     C
C      0.83987  0.64483  0.30043     C
C      0.84923  0.18257  0.66667     C
H      0.85227  0.12353  0.37483     H
C       0.8558   0.7387   0.0714     C
C      0.85627  0.16103  0.34903     C
C       0.8617   0.6885   0.0329     C
C      0.86413  0.22497  0.58967     C
C      0.86807  0.27313  0.27183     C
H      0.87207  0.31063  0.24603     H
H      0.87647  0.72873  0.37483     H
C      0.88173  0.66667  0.66667     C
H      0.88193  0.16887  0.79687     H
H       0.8823   0.1099   0.1039     H
C       0.8829   0.1442   0.0714     C
C       0.8846   0.2468   0.9744     C
H       0.8852   0.2812   0.9419     H
H       0.8901   0.7724   0.1039     H
C      0.89163  0.19747  0.74367     C
H      0.89427  0.45103  0.43723     H
H      0.89477  0.35603  0.42063     H
C      0.89967  0.64343  0.28723     C
O      0.90137  0.60563  0.22523     O
O      0.90233  0.66067  0.58287     O
O      0.90833  0.67267  0.75047     O
C      0.91347  0.21793  0.35893     C
C      0.91937  0.27403  0.32043     C
C      0.91983  0.28107  0.58937     C
C       0.9229   0.6899   0.0461     C
C      0.92797  0.45043  0.40473     C
C      0.92827  0.39353  0.39483     C
H      0.92933  0.30977  0.53657     H
O       0.9302   0.6468   0.9988     O
H      0.93733  0.38547  0.72477     H
H      0.93793  0.48107  0.70817     H
O      0.93897  0.56803  0.44143     O
C       0.9398   0.2014   0.0615     C
C       0.9407   0.2527   0.0129     C
C      0.94773  0.25317  0.74397     C
H      0.94787  0.21853  0.39143     H
O      0.95007  0.68653  0.33453     O
H       0.9529   0.3569   0.1301     H
H       0.9536   0.4514   0.1302     H
C      0.96183  0.29517  0.66667     C
O       0.9624   0.7277   0.1081     O
C      0.97113  0.41987  0.69227     C
C      0.97143  0.47707  0.68237     C
C       0.9721   0.3856   0.0773     C
C       0.9725   0.4417    0.077     C
H      0.97643  0.26267  0.79677     H
C      0.97677  0.56633  0.37943     C
H       0.9773   0.2054   0.0873     H
N      0.97747  0.33333  0.33333     N
C      0.97817  0.50653  0.36623     C
C      0.97867  0.39263  0.34623     C
O      0.98013  0.59687  0.66787     O
La     0.98404  0.65071  0.83333    La
O        0.994    0.569   0.0838     O
