data_I
_chemical_name_common  '/home/zhangsd/repos/MofS-CGCNN/ML/data/TSD/clean_cifs/RUYQOT_clean'
_cell_length_a 24.20090
_cell_length_b 24.20090
_cell_length_c 12.96480
_cell_angle_alpha 90.00000
_cell_angle_beta  90.00000
_cell_angle_gamma 120.00000
_space_group_name_H-M_alt      'P 1'


loop_
_space_group_symop_operation_xyz
  'x, y, z' 

loop_
_atom_site_label
_atom_site_fract_x
_atom_site_fract_y
_atom_site_fract_z
_atom_site_type_symbol
N          0.0  0.30905      0.5     N
C          0.0  0.36825      0.5     C
C          0.0  0.48335      0.5     C
C          0.0  0.54655      0.5     C
La         0.0  0.68555      0.0    La
O      0.01103  0.57557  0.41517     O
La     0.01888  0.66667  0.66667    La
H      0.01913  0.28287  0.70157     H
O       0.0205   0.6185   0.8374     O
H      0.02117  0.22443  0.41303     H
C       0.0226   0.5905   0.1174     C
C       0.0232   0.5297   0.1319     C
C       0.0238    0.415    0.155     C
N      0.02428  0.35762  0.16667     N
C       0.0276   0.4485   0.8102     C
C       0.0279   0.5054     0.82     C
C      0.02947  0.46993  0.41923     C
C      0.02997  0.41203  0.42063     C
O      0.03397  0.76403  0.39083     O
C      0.03492  0.33333  0.83333     C
O      0.04817  0.73533  0.17073     O
H      0.04847  0.49863  0.36533     H
C      0.04873  0.30337  0.75397     C
H      0.05047  0.40293  0.36823     H
H      0.05267  0.27103  0.11323     H
C      0.05787  0.30953  0.48833     C
C      0.05877  0.25843  0.43843     C
H       0.0619   0.5429   0.7946     H
H       0.0623   0.4483   0.7799     H
O       0.0634   0.6327   0.0575     O
O      0.06867  0.71483  0.49593     O
H       0.0696   0.3838   0.9651     H
C       0.0744   0.5247   0.0937     C
C       0.0749    0.467   0.1051     C
C      0.07617  0.76543  0.45073     C
C       0.0787   0.3633   0.9127     C
C      0.08167  0.35713  0.17833     C
C      0.08757  0.30573  0.14353     C
O       0.0911   0.7688   0.7485     O
O      0.09737  0.70063  0.27583     O
C      0.09877  0.74283  0.21593     C
O      0.10213  0.75777  0.91817     O
C      0.10713  0.30387  0.75257     C
H      0.10727  0.88203  0.39413     H
H       0.1081   0.5594   0.0608     H
H       0.1089   0.4634   0.0797     H
H      0.11497  0.39563  0.55343     H
C      0.11517  0.36093  0.52313     C
H      0.11683  0.28487  0.69867     H
C      0.11697  0.25893  0.42703     C
H      0.11797  0.22523  0.39413     H
C      0.12012  0.78678  0.83333     C
H      0.12377  0.85233  0.12793     H
H      0.13007  0.44223  0.25363     H
C      0.13367  0.40823  0.22823     C
C       0.1366   0.3628   0.9141     C
C      0.13697  0.82683  0.46523     C
C      0.14197  0.88303  0.42703     C
C      0.14417  0.30543  0.15333     C
H      0.14767  0.27143  0.12793     H
C      0.15002  0.33333  0.83333     C
C      0.16017  0.80363  0.20143     C
C      0.16127  0.85583  0.15333     C
H       0.1653   0.3818    0.968     H
H      0.16803  0.88317  0.69867     H
C      0.17207  0.36123  0.51333     C
C      0.17317  0.31013  0.46523     C
C      0.18332  0.84998  0.83333     C
H      0.18567  0.79043  0.53873     H
C      0.18917  0.82793  0.51333     C
C      0.19137  0.40773  0.23963     C
C      0.19637  0.35653  0.20143     C
C      0.19673  0.89287  0.75257     C
C      0.19967  0.94123  0.43843     C
H      0.20327  0.97883  0.41303     H
H      0.20957  0.39523  0.53873     H
C      0.21322  0.33333  0.83333     C
H      0.21537  0.77393  0.27253     H
C      0.21637  0.80863  0.23963     C
H       0.2165   0.8347    0.968     H
C      0.21817  0.91243  0.14353     C
H      0.21837  0.94733  0.11323     H
H      0.22443  0.02117  0.58697     H
H      0.22523  0.11797  0.60587     H
H      0.22607  0.44143  0.27253     H
C       0.2262   0.8634   0.9141     C
O       0.2312   0.3223   0.7485     O
C      0.23457  0.31073  0.45073     C
O      0.23597  0.26993  0.39083     O
O      0.24223  0.34437  0.91817     O
C      0.24577  0.88483  0.52313     C
C      0.25167  0.94213  0.48833     C
C      0.25463  0.95127  0.75397     C
C      0.25717  0.35593  0.21593     C
C      0.25843  0.05877  0.56157     C
C      0.25893  0.11697  0.57297     C
H      0.26373  0.98087  0.70157     H
O      0.26467  0.31283  0.17073     O
O      0.26993  0.23597  0.60917     O
H      0.27103  0.05267  0.88677     H
H      0.27143  0.14767  0.87207     H
C      0.27457  0.86633  0.22823     C
C      0.27547  0.91833  0.17833     C
H      0.28067  0.88503  0.55343     H
H      0.28287  0.01913  0.29843     H
C       0.2846   0.9213   0.9127     C
H      0.28487  0.11683  0.30133     H
O      0.28517  0.35383  0.49593     O
C      0.29842  0.96508  0.83333     C
O      0.29937  0.39673  0.27583     O
C      0.30337  0.04873  0.24603     C
C      0.30387  0.10713  0.24743     C
C      0.30543  0.14417  0.84667     C
C      0.30573  0.08757  0.85647     C
N      0.30905      0.0      0.5     N
C      0.30953  0.05787  0.51167     C
C      0.31013  0.17317  0.53477     C
C      0.31073  0.23457  0.54927     C
H      0.31217  0.86993  0.25363     H
O      0.31283  0.26467  0.82927     O
H       0.3142   0.9304   0.9651     H
La     0.31445  0.31445      0.0    La
O       0.3223   0.2312   0.2515     O
C      0.33333  0.03492  0.16667     C
C      0.33333  0.15002  0.16667     C
C      0.33333  0.21322  0.16667     C
La     0.33333  0.35222  0.66667    La
N      0.33333  0.97572  0.16667     N
O      0.34437  0.24223  0.08183     O
La     0.35222  0.33333  0.33333    La
H      0.35247  0.94953  0.36823     H
O      0.35383  0.28517  0.50407     O
H       0.3545   0.8911   0.0797     H
C      0.35593  0.25717  0.78407     C
C      0.35653  0.19637  0.79857     C
C      0.35713  0.08167  0.82167     C
N      0.35762  0.02428  0.83333     N
C      0.36093  0.11517  0.47687     C
C      0.36123  0.17207  0.48667     C
C       0.3628   0.1366   0.0859     C
C       0.3633   0.0787   0.0873     C
O       0.3673   0.4307   0.0575     O
C      0.36825      0.0      0.5     C
O       0.3815    0.402   0.8374     O
H       0.3818   0.1653    0.032     H
C      0.38207  0.97003  0.42063     C
H       0.3838   0.0696   0.0349     H
H        0.386   0.9377   0.7799     H
C       0.3912   0.9762    0.155     C
C       0.3921   0.9251   0.1051     C
H      0.39523  0.20957  0.46127     H
H      0.39563  0.11497  0.44657     H
O      0.39673  0.29937  0.72417     O
O        0.402   0.3815   0.1626     O
H      0.40293  0.05047  0.63177     H
C      0.40773  0.19137  0.76037     C
C      0.40823  0.13367  0.77177     C
C       0.4095   0.4321   0.1174     C
C      0.41203  0.02997  0.57937     C
C        0.415   0.0238    0.845     C
C       0.4209   0.9724   0.8102     C
O      0.42443  0.43547  0.41517     O
O       0.4307   0.3673   0.9425     O
C       0.4321   0.4095   0.8826     C
O      0.43547  0.42443  0.58483     O
C      0.44047  0.97053  0.41923     C
H       0.4406   0.5487   0.0608     H
H      0.44143  0.22607  0.72747     H
H      0.44223  0.13007  0.74637     H
H       0.4483   0.0623   0.2201     H
C       0.4485   0.0276   0.1898     C
H      0.45017  0.95153  0.36533     H
C       0.4503   0.9256   0.0937     C
H       0.4513   0.8919   0.0608     H
C      0.45345  0.45345      0.5     C
H       0.4571    0.519   0.7946     H
H       0.4634   0.1089   0.9203     H
C        0.467   0.0749   0.8949     C
C      0.46993  0.02947  0.58077     C
C       0.4703   0.4935   0.1319     C
C       0.4753   0.5497   0.0937     C
C       0.4775   0.9721     0.82     C
H        0.481   0.9381   0.7946     H
C      0.48335      0.0      0.5     C
C       0.4935   0.4703   0.8681     C
C       0.4946   0.5225     0.82     C
H      0.49863  0.04847  0.63467     H
H      0.50137  0.54983  0.36533     H
C       0.5054   0.0279     0.18     C
C       0.5065   0.9768   0.1319     C
C      0.51665  0.51665      0.5     C
H        0.519   0.4571   0.2054     H
C       0.5225   0.4946     0.18     C
C       0.5247   0.0744   0.9063     C
C       0.5297   0.0232   0.8681     C
C      0.53007  0.55953  0.41923     C
C        0.533   0.6079   0.1051     C
H       0.5366   0.6455   0.0797     H
H       0.5429   0.0619   0.2054     H
C      0.54655      0.0      0.5     C
H       0.5487   0.4406   0.9392     H
C       0.5497   0.4753   0.9063     C
H      0.54983  0.50137  0.63467     H
C       0.5515   0.5791   0.8102     C
H       0.5517    0.614   0.7799     H
H      0.55777  0.68783  0.25363     H
H      0.55857  0.78463  0.27253     H
H       0.5594   0.1081   0.9392     H
C      0.55953  0.53007  0.58077     C
O      0.56453  0.98897  0.41517     O
C       0.5679   0.9774   0.1174     C
O       0.5693   0.9366   0.0575     O
O      0.57557  0.01103  0.58483     O
C       0.5791   0.5515   0.1898     C
C        0.585   0.6088    0.155     C
C      0.58797  0.61793  0.42063     C
C       0.5905   0.0226   0.8826     C
C      0.59177  0.72543  0.22823     C
C      0.59227  0.78363  0.23963     C
H      0.59707  0.64753  0.36823     H
O        0.598   0.9795   0.8374     O
O      0.60327  0.90263  0.27583     O
H      0.60437  0.71933  0.55343     H
H      0.60477  0.81433  0.53873     H
C       0.6079    0.533   0.8949     C
C       0.6088    0.585    0.845     C
H        0.614   0.5517   0.2201     H
H       0.6162   0.6858   0.9651     H
C      0.61793  0.58797  0.57937     C
H       0.6182   0.7835    0.968     H
O       0.6185   0.0205   0.1626     O
C      0.63175  0.63175      0.5     C
O       0.6327   0.0634   0.9425     O
C       0.6367   0.7154   0.9127     C
C       0.6372   0.7738   0.9141     C
C      0.63877  0.81083  0.51333     C
C      0.63907  0.75423  0.52313     C
N      0.64238  0.66667  0.16667     N
C      0.64287  0.72453  0.17833     C
C      0.64347  0.83983  0.20143     C
C      0.64407  0.90123  0.21593     C
H       0.6455   0.5366   0.9203     H
O      0.64617  0.93133  0.49593     O
H      0.64753  0.59707  0.63177     H
La     0.64778  0.98112  0.66667    La
O      0.65563  0.89787  0.91817     O
La     0.66667  0.01888  0.33333    La
N      0.66667  0.64238  0.83333     N
C      0.66667  0.70158  0.83333     C
C      0.66667  0.81668  0.83333     C
C      0.66667  0.87988  0.83333     C
O       0.6777   0.9089   0.7485     O
La     0.68555      0.0      0.0    La
H       0.6858   0.6162   0.0349     H
O      0.68717  0.95183  0.17073     O
H      0.68783  0.55777  0.74637     H
C      0.68927  0.92383  0.45073     C
C      0.68987  0.86303  0.46523     C
C      0.69047  0.74833  0.48833     C
N      0.69095  0.69095      0.5     N
C      0.69427  0.78183  0.14353     C
C      0.69457  0.83873  0.15333     C
C      0.69613  0.80327  0.75257     C
C      0.69663  0.74537  0.75397     C
O      0.70063  0.09737  0.72417     O
C      0.70158  0.66667  0.16667     C
O      0.71483  0.06867  0.50407     O
H      0.71513  0.83197  0.69867     H
C       0.7154   0.6367   0.0873     C
H      0.71713  0.73627  0.70157     H
H      0.71933  0.60437  0.44657     H
C      0.72453  0.64287  0.82167     C
C      0.72543  0.59177  0.77177     C
H      0.72857  0.87623  0.12793     H
H      0.72897  0.78163  0.11323     H
O      0.73007  0.96603  0.39083     O
O      0.73533  0.04817  0.82927     O
H      0.73627  0.71713  0.29843     H
C      0.74107  0.85803  0.42703     C
C      0.74157  0.80033  0.43843     C
C      0.74283  0.09877  0.78407     C
C      0.74537  0.69663  0.24603     C
C      0.74833  0.69047  0.51167     C
C      0.75423  0.63907  0.47687     C
O      0.75777  0.10213  0.08183     O
O      0.76403  0.03397  0.60917     O
C      0.76543  0.07617  0.54927     C
O       0.7688   0.0911   0.2515     O
C       0.7738   0.6372   0.0859     C
H      0.77393  0.21537  0.72747     H
H      0.77477  0.89273  0.39413     H
H      0.77557  0.79673  0.41303     H
H      0.78163  0.72897  0.88677     H
C      0.78183  0.69427  0.85647     C
H       0.7835   0.6182    0.032     H
C      0.78363  0.59227  0.76037     C
H      0.78463  0.55857  0.72747     H
C      0.78678  0.12012  0.16667     C
H      0.79043  0.18567  0.46127     H
H      0.79673  0.77557  0.58697     H
C      0.80033  0.74157  0.56157     C
C      0.80327  0.69613  0.24743     C
C      0.80363  0.16017  0.79857     C
C      0.80863  0.21637  0.76037     C
C      0.81083  0.63877  0.48667     C
H      0.81433  0.60477  0.46127     H
C      0.81668  0.66667  0.16667     C
C      0.82683  0.13697  0.53477     C
C      0.82793  0.18917  0.48667     C
H      0.83197  0.71513  0.30133     H
H       0.8347   0.2165    0.032     H
C      0.83873  0.69457  0.84667     C
C      0.83983  0.64347  0.79857     C
C      0.84998  0.18332  0.16667     C
H      0.85233  0.12377  0.87207     H
C      0.85583  0.16127  0.84667     C
C      0.85803  0.74107  0.57297     C
C      0.86303  0.68987  0.53477     C
C       0.8634   0.2262   0.0859     C
C      0.86633  0.27457  0.77177     C
H      0.86993  0.31217  0.74637     H
H      0.87623  0.72857  0.87207     H
C      0.87988  0.66667  0.16667     C
H      0.88203  0.10727  0.60587     H
C      0.88303  0.14197  0.57297     C
H      0.88317  0.16803  0.30133     H
C      0.88483  0.24577  0.47687     C
H      0.88503  0.28067  0.44657     H
H       0.8911   0.3545   0.9203     H
H       0.8919   0.4513   0.9392     H
H      0.89273  0.77477  0.60587     H
C      0.89287  0.19673  0.24743     C
O      0.89787  0.65563  0.08183     O
C      0.90123  0.64407  0.78407     C
O      0.90263  0.60327  0.72417     O
O       0.9089   0.6777   0.2515     O
C      0.91243  0.21817  0.85647     C
C      0.91833  0.27547  0.82167     C
C       0.9213   0.2846   0.0873     C
C      0.92383  0.68927  0.54927     C
C       0.9251   0.3921   0.8949     C
C       0.9256   0.4503   0.9063     C
H       0.9304   0.3142   0.0349     H
O      0.93133  0.64617  0.50407     O
O       0.9366   0.5693   0.9425     O
H       0.9377    0.386   0.2201     H
H       0.9381    0.481   0.2054     H
C      0.94123  0.19967  0.56157     C
C      0.94213  0.25167  0.51167     C
H      0.94733  0.21837  0.88677     H
H      0.94953  0.35247  0.63177     H
C      0.95127  0.25463  0.24603     C
H      0.95153  0.45017  0.63467     H
O      0.95183  0.68717  0.82927     O
C      0.96508  0.29842  0.16667     C
O      0.96603  0.73007  0.60917     O
C      0.97003  0.38207  0.57937     C
C      0.97053  0.44047  0.58077     C
C       0.9721   0.4775     0.18     C
C       0.9724   0.4209   0.1898     C
N      0.97572  0.33333  0.83333     N
C       0.9762   0.3912    0.845     C
C       0.9768   0.5065   0.8681     C
C       0.9774   0.5679   0.8826     C
H      0.97883  0.20327  0.58697     H
O       0.9795    0.598   0.1626     O
H      0.98087  0.26373  0.29843     H
La     0.98112  0.64778  0.33333    La
O      0.98897  0.56453  0.58483     O
