data_I
_chemical_name_common  '/home/zhangsd/repos/MofS-CGCNN/ML/data/TSD/clean_cifs/RUYTUC_clean'
_cell_length_a 24.17190
_cell_length_b 24.17190
_cell_length_c 13.01100
_cell_angle_alpha 90.00000
_cell_angle_beta  90.00000
_cell_angle_gamma 120.00000
_space_group_name_H-M_alt      'P 1'


loop_
_space_group_symop_operation_xyz
  'x, y, z' 

loop_
_atom_site_label
_atom_site_fract_x
_atom_site_fract_y
_atom_site_fract_z
_atom_site_type_symbol
N          0.0  0.30885      0.5     N
C          0.0  0.36755      0.5     C
C          0.0  0.48475      0.5     C
C          0.0  0.54635      0.5     C
La         0.0  0.68472      0.0    La
O      0.01143  0.57677  0.41767     O
La     0.01805  0.66667  0.66667    La
H      0.01853  0.27767  0.70697     H
O       0.0196   0.6178   0.8364     O
H      0.02157  0.22543  0.41303     H
C        0.023   0.5291   0.1321     C
C       0.0232   0.4148   0.1538     C
N      0.02448  0.35782  0.16667     N
C       0.0253   0.5922     0.12     C
C       0.0276   0.4479   0.8083     C
C       0.0277   0.5051   0.8192     C
C      0.03117  0.47083  0.42283     C
C      0.03267  0.41463  0.42403     C
C      0.03422  0.33333  0.83333     C
O      0.03567  0.76423  0.39113     O
C      0.04863  0.30067  0.75737     C
O      0.04887  0.73513  0.16973     O
H      0.05127  0.49983  0.36983     H
H      0.05247  0.27183  0.10903     H
H      0.05567  0.40753  0.37363     H
C      0.05827  0.31013  0.48713     C
C       0.0592  0.25943  0.43843     C
H       0.0615   0.4473   0.7757     H
H       0.0617   0.5428   0.7938     H
O       0.0619    0.631   0.0578     O
O      0.06847  0.71553  0.49693     O
C       0.0738   0.5236   0.0942     C
C       0.0739  0.46643   0.1051     C
H       0.0742    0.389   0.9597     H
C      0.07447  0.76643  0.45333     C
C       0.0813    0.366   0.9093     C
C      0.08147  0.35653  0.17953     C
C      0.08697  0.30573  0.14163     C
O       0.0899    0.768    0.751     O
O      0.09757  0.70233  0.27553     O
C      0.09977  0.74113  0.21333     C
O      0.10133  0.75657  0.91567     O
C      0.10633  0.30217  0.75617     C
H       0.1077   0.5581   0.0616     H
H       0.1079   0.4628   0.0797     H
H      0.10857  0.88293  0.39493     H
H      0.11397  0.39483  0.55763     H
C      0.11457  0.36093  0.52503     C
H      0.11523  0.28207  0.70317     H
C      0.11647  0.25953  0.42753     C
H      0.11707  0.22563  0.39493     H
C      0.12032  0.78698  0.83333     C
H      0.12387  0.85223  0.12713     H
H      0.12947  0.44123  0.25363     H
C       0.1331  0.40723  0.22823     C
C       0.1375   0.3645   0.9105     C
C      0.13757  0.82723  0.46543     C
C      0.14307  0.88353  0.42753     C
C      0.14407  0.30563  0.15253     C
H      0.14777  0.27163  0.12713     H
C      0.15142  0.33333  0.83333     C
C      0.16057  0.80423  0.20123     C
C      0.16157  0.85593  0.15253     C
H       0.1665   0.3846   0.9635     H
H      0.16683  0.88477  0.70317     H
C      0.17177  0.36103  0.51413     C
C      0.17277  0.31033  0.46543     C
C      0.18192  0.84858  0.83333     C
H      0.18557  0.79053  0.53953     H
C      0.18927  0.82823  0.51413     C
C      0.19027  0.40713  0.23913     C
C      0.19577  0.35633  0.20123     C
C      0.19583  0.89367  0.75617     C
C      0.20024   0.9408  0.43843     C
H      0.20387  0.97843  0.41303     H
H      0.20947  0.39503  0.53953     H
C      0.21302  0.33333  0.83333     C
H      0.21627  0.77523  0.27173     H
C      0.21687  0.80973  0.23913     C
H       0.2181   0.8335   0.9635     H
C      0.21877  0.91303  0.14163     C
H      0.21937  0.94753  0.10903     H
H      0.22477  0.44103  0.27173     H
H      0.22543  0.02157  0.58697     H
H      0.22563  0.11707  0.60507     H
C        0.227   0.8625   0.9105     C
O        0.232   0.3219    0.751     O
C      0.23357  0.30803  0.45333     C
O      0.23577  0.27143  0.39113     O
O      0.24343  0.34477  0.91567     O
C      0.24637  0.88543  0.52503     C
C      0.25187  0.94173  0.48713     C
C      0.25203  0.95137  0.75737     C
C      0.25887  0.35863  0.21333     C
H      0.25913  0.98147  0.70697     H
C      0.25943   0.0592  0.56157     C
C      0.25953  0.11647  0.57247     C
O      0.26487  0.31373  0.16973     O
O      0.27143  0.23577  0.60887     O
H      0.27163  0.14777  0.87287     H
H      0.27183  0.05247  0.89097     H
C      0.27414   0.8669  0.22823     C
C      0.27507  0.91853  0.17953     C
H      0.27767  0.01853  0.29303     H
H      0.28087  0.88603  0.55763     H
H      0.28207  0.11523  0.29683     H
O      0.28447  0.35293  0.49693     O
C       0.2847   0.9187   0.9093     C
O      0.29767  0.39523  0.27553     O
C      0.29912  0.96578  0.83333     C
C      0.30067  0.04863  0.24263     C
C      0.30217  0.10633  0.24383     C
C      0.30563  0.14407  0.84747     C
C      0.30573  0.08697  0.85837     C
C      0.30803  0.23357  0.54667     C
N      0.30885      0.0      0.5     N
C      0.31013  0.05827  0.51287     C
C      0.31033  0.17277  0.53457     C
H      0.31177  0.87053  0.25363     H
O      0.31373  0.26487  0.83027     O
H       0.3148   0.9258   0.9597     H
La     0.31528  0.31528      0.0    La
O       0.3219    0.232    0.249     O
C      0.33333  0.03422  0.16667     C
C      0.33333  0.15142  0.16667     C
C      0.33333  0.21302  0.16667     C
La     0.33333  0.35139  0.66667    La
N      0.33333  0.97552  0.16667     N
O      0.34477  0.24343  0.08433     O
La     0.35139  0.33333  0.33333    La
H      0.35187  0.94433  0.37363     H
O      0.35293  0.28447  0.50307     O
H       0.3549   0.8921   0.0797     H
C      0.35633  0.19577  0.79877     C
C      0.35653  0.08147  0.82047     C
N      0.35782  0.02448  0.83333     N
C      0.35863  0.25887  0.78667     C
C      0.36093  0.11457  0.47497     C
C      0.36103  0.17177  0.48587     C
C       0.3645   0.1375   0.0895     C
C        0.366   0.0813   0.0907     C
C      0.36755      0.0      0.5     C
O        0.369   0.4309   0.0578     O
C      0.38197  0.96733  0.42403     C
O       0.3822   0.4018   0.8364     O
H       0.3846   0.1665   0.0365     H
H       0.3858   0.9385   0.7757     H
H        0.389   0.0742   0.0403     H
C       0.3916   0.9768   0.1538     C
C      0.39253   0.9261   0.1051     C
H      0.39483  0.11397  0.44237     H
H      0.39503  0.20947  0.46047     H
O      0.39523  0.29767  0.72447     O
O       0.4018   0.3822   0.1636     O
C      0.40713  0.19027  0.76087     C
C      0.40723   0.1331  0.77177     C
H      0.40753  0.05567  0.62637     H
C       0.4078   0.4331     0.12     C
C      0.41463  0.03267  0.57597     C
C       0.4148   0.0232   0.8462     C
C       0.4203   0.9724   0.8083     C
O      0.42323  0.43467  0.41767     O
O       0.4309    0.369   0.9422     O
C       0.4331   0.4078     0.88     C
O      0.43467  0.42323  0.58233     O
C      0.43967  0.96883  0.42283     C
H      0.44103  0.22477  0.72827     H
H      0.44123  0.12947  0.74637     H
H       0.4419   0.5496   0.0616     H
H       0.4473   0.0615   0.2243     H
C       0.4479   0.0276   0.1917     C
H      0.44857  0.94873  0.36983     H
C       0.4498   0.9262   0.0942     C
H       0.4504   0.8923   0.0616     H
C      0.45365  0.45365      0.5     C
H       0.4572   0.5189   0.7938     H
H       0.4628   0.1079   0.9203     H
C      0.46643   0.0739   0.8949     C
C      0.47083  0.03117  0.57717     C
C       0.4709   0.4939   0.1321     C
C       0.4764   0.5502   0.0942     C
C       0.4774   0.9723   0.8192     C
H       0.4811   0.9383   0.7938     H
C      0.48475      0.0      0.5     C
C       0.4939   0.4709   0.8679     C
C       0.4949   0.5226   0.8192     C
H      0.49983  0.05127  0.63017     H
H      0.50017  0.55143  0.36983     H
C       0.5051   0.0277   0.1808     C
C       0.5061    0.977   0.1321     C
C      0.51525  0.51525      0.5     C
H       0.5189   0.4572   0.2062     H
C       0.5226   0.4949   0.1808     C
C       0.5236   0.0738   0.9058     C
C       0.5291    0.023   0.8679     C
C      0.52917  0.56033  0.42283     C
C      0.53357  0.60747   0.1051     C
H       0.5372   0.6451   0.0797     H
H       0.5428   0.0617   0.2062     H
C      0.54635      0.0      0.5     C
H       0.5496   0.4419   0.9384     H
C       0.5502   0.4764   0.9058     C
H      0.55143  0.50017  0.63017     H
C       0.5521   0.5797   0.8083     C
H       0.5527   0.6142   0.7757     H
H       0.5581   0.1077   0.9384     H
H      0.55877  0.68823  0.25363     H
H      0.55897  0.78373  0.27173     H
C      0.56033  0.52917  0.57717     C
O      0.56533  0.98857  0.41767     O
C       0.5669   0.9747     0.12     C
O       0.5691   0.9381   0.0578     O
O      0.57677  0.01143  0.58233     O
C       0.5797   0.5521   0.1917     C
C       0.5852   0.6084   0.1538     C
C      0.58537  0.61803  0.42403     C
C       0.5922   0.0253     0.88     C
H      0.59247  0.64813  0.37363     H
C      0.59277  0.72586  0.22823     C
C      0.59287  0.78313  0.23913     C
O       0.5982   0.9804   0.8364     O
O      0.60477  0.90243  0.27553     O
H      0.60497  0.81443  0.53953     H
H      0.60517  0.71913  0.55763     H
C      0.60747  0.53357   0.8949     C
C       0.6084   0.5852   0.8462     C
H        0.611   0.6852   0.9597     H
H       0.6142   0.5527   0.2243     H
H       0.6154   0.7819   0.9635     H
O       0.6178   0.0196   0.1636     O
C      0.61803  0.58537  0.57597     C
O        0.631   0.0619   0.9422     O
C      0.63245  0.63245      0.5     C
C        0.634   0.7153   0.9093     C
C       0.6355    0.773   0.9105     C
C      0.63897  0.81073  0.51413     C
C      0.63907  0.75363  0.52503     C
C      0.64137  0.90023  0.21333     C
N      0.64218  0.66667  0.16667     N
C      0.64347  0.72493  0.17953     C
C      0.64367  0.83943  0.20123     C
H       0.6451   0.5372   0.9203     H
O      0.64707  0.93153  0.49693     O
H      0.64813  0.59247  0.62637     H
La     0.64861  0.98195  0.66667    La
O      0.65523  0.89867  0.91567     O
La     0.66667  0.01805  0.33333    La
N      0.66667  0.64218  0.83333     N
C      0.66667  0.70088  0.83333     C
C      0.66667  0.81808  0.83333     C
C      0.66667  0.87968  0.83333     C
O       0.6781   0.9101    0.751     O
La     0.68472      0.0      0.0    La
H       0.6852    0.611   0.0403     H
O      0.68627  0.95113  0.16973     O
H      0.68823  0.55877  0.74637     H
C      0.68967  0.86243  0.46543     C
C      0.68987  0.74813  0.48713     C
N      0.69115  0.69115      0.5     N
C      0.69197  0.92553  0.45333     C
C      0.69427  0.78123  0.14163     C
C      0.69437  0.83843  0.15253     C
C      0.69783  0.80417  0.75617     C
C      0.69933  0.74797  0.75737     C
C      0.70088  0.66667  0.16667     C
O      0.70233  0.09757  0.72447     O
C       0.7153    0.634   0.0907     C
O      0.71553  0.06847  0.50307     O
H      0.71793  0.83317  0.70317     H
H      0.71913  0.60517  0.44237     H
H      0.72233  0.74087  0.70697     H
C      0.72493  0.64347  0.82047     C
C      0.72586  0.59277  0.77177     C
H      0.72817  0.78063  0.10903     H
H      0.72837  0.87613  0.12713     H
O      0.72857  0.96433  0.39113     O
O      0.73513  0.04887  0.83027     O
C      0.74047  0.85693  0.42753     C
C      0.74057  0.79976  0.43843     C
H      0.74087  0.72233  0.29303     H
C      0.74113  0.09977  0.78667     C
C      0.74797  0.69933  0.24263     C
C      0.74813  0.68987  0.51287     C
C      0.75363  0.63907  0.47497     C
O      0.75657  0.10133  0.08433     O
O      0.76423  0.03567  0.60887     O
C      0.76643  0.07447  0.54667     C
O        0.768   0.0899    0.249     O
C        0.773   0.6355   0.0895     C
H      0.77437  0.89143  0.39493     H
H      0.77457  0.79613  0.41303     H
H      0.77523  0.21627  0.72827     H
H      0.78063  0.72817  0.89097     H
C      0.78123  0.69427  0.85837     C
H       0.7819   0.6154   0.0365     H
C      0.78313  0.59287  0.76087     C
H      0.78373  0.55897  0.72827     H
C      0.78698  0.12032  0.16667     C
H      0.79053  0.18557  0.46047     H
H      0.79613  0.77457  0.58697     H
C      0.79976  0.74057  0.56157     C
C      0.80417  0.69783  0.24383     C
C      0.80423  0.16057  0.79877     C
C      0.80973  0.21687  0.76087     C
C      0.81073  0.63897  0.48587     C
H      0.81443  0.60497  0.46047     H
C      0.81808  0.66667  0.16667     C
C      0.82723  0.13757  0.53457     C
C      0.82823  0.18927  0.48587     C
H      0.83317  0.71793  0.29683     H
H       0.8335   0.2181   0.0365     H
C      0.83843  0.69437  0.84747     C
C      0.83943  0.64367  0.79877     C
C      0.84858  0.18192  0.16667     C
H      0.85223  0.12387  0.87287     H
C      0.85593  0.16157  0.84747     C
C      0.85693  0.74047  0.57247     C
C      0.86243  0.68967  0.53457     C
C       0.8625    0.227   0.0895     C
C       0.8669  0.27414  0.77177     C
H      0.87053  0.31177  0.74637     H
H      0.87613  0.72837  0.87287     H
C      0.87968  0.66667  0.16667     C
H      0.88293  0.10857  0.60507     H
C      0.88353  0.14307  0.57247     C
H      0.88477  0.16683  0.29683     H
C      0.88543  0.24637  0.47497     C
H      0.88603  0.28087  0.44237     H
H      0.89143  0.77437  0.60507     H
H       0.8921   0.3549   0.9203     H
H       0.8923   0.4504   0.9384     H
C      0.89367  0.19583  0.24383     C
O      0.89867  0.65523  0.08433     O
C      0.90023  0.64137  0.78667     C
O      0.90243  0.60477  0.72447     O
O       0.9101   0.6781    0.249     O
C      0.91303  0.21877  0.85837     C
C      0.91853  0.27507  0.82047     C
C       0.9187   0.2847   0.0907     C
C      0.92553  0.69197  0.54667     C
H       0.9258   0.3148   0.0403     H
C       0.9261  0.39253   0.8949     C
C       0.9262   0.4498   0.9058     C
O      0.93153  0.64707  0.50307     O
O       0.9381   0.5691   0.9422     O
H       0.9383   0.4811   0.2062     H
H       0.9385   0.3858   0.2243     H
C       0.9408  0.20024  0.56157     C
C      0.94173  0.25187  0.51287     C
H      0.94433  0.35187  0.62637     H
H      0.94753  0.21937  0.89097     H
H      0.94873  0.44857  0.63017     H
O      0.95113  0.68627  0.83027     O
C      0.95137  0.25203  0.24263     C
O      0.96433  0.72857  0.60887     O
C      0.96578  0.29912  0.16667     C
C      0.96733  0.38197  0.57597     C
C      0.96883  0.43967  0.57717     C
C       0.9723   0.4774   0.1808     C
C       0.9724   0.4203   0.1917     C
C       0.9747   0.5669     0.88     C
N      0.97552  0.33333  0.83333     N
C       0.9768   0.3916   0.8462     C
C        0.977   0.5061   0.8679     C
H      0.97843  0.20387  0.58697     H
O       0.9804   0.5982   0.1636     O
H      0.98147  0.25913  0.29303     H
La     0.98195  0.64861  0.33333    La
O      0.98857  0.56533  0.58233     O
