data_I
_chemical_name_common  '/home/zhangsd/repos/MofS-CGCNN/ML/data/TSD/clean_cifs/SABWAU_SL'
_cell_length_a  6.57600
_cell_length_b  7.61200
_cell_length_c 10.47260
_cell_angle_alpha 111.31100
_cell_angle_beta  103.24800
_cell_angle_gamma 90.00000
_space_group_name_H-M_alt      'P 1'


loop_
_space_group_symop_operation_xyz
  'x, y, z' 

loop_
_atom_site_label
_atom_site_fract_x
_atom_site_fract_y
_atom_site_fract_z
_atom_site_type_symbol
Al       0.001   0.0012   0.0024    Al
O        0.051   0.1092   0.8724     O
C        0.078   0.0292   0.6364     C
H      0.10939  0.36612    0.412     H
C         0.13   0.9616   0.4072     C
O        0.137   0.2344   0.1688     O
C         0.16   0.0725    0.787     C
C        0.212   0.9764   0.5508     C
H      0.24164  0.95842  0.33779     H
H        0.256  0.74899 -0.03725     H
O        0.256     0.89      0.0     O
H      0.27599  0.52812  0.67912     H
C        0.281   0.4256   0.4512     C
C        0.335   0.2814   0.2128     C
O         0.34   0.0076   0.8172     O
C        0.371   0.5228   0.5996     C
H       0.3803  0.94449   0.5864     H
C         0.41   0.4076   0.3592     C
O         0.44   0.2425    0.125     O
Al       0.501   0.0012   0.0024    Al
O        0.551   0.7632   0.8724     O
C        0.578   0.6072   0.6364     C
H      0.60939  0.04588    0.412     H
C         0.63   0.4456   0.4072     C
O        0.637   0.9344   0.1688     O
C         0.66   0.7145    0.787     C
C        0.712   0.5744   0.5508     C
H      0.74164  0.37938  0.33779     H
O        0.756     0.11     -0.0     O
H        0.756  0.25101  0.03725     H
H      0.77599    0.151  0.67912     H
C        0.781   0.0256   0.4512     C
C        0.835   0.9314   0.2128     C
O         0.84   0.8096   0.8172     O
C        0.871   0.0768   0.5996     C
H       0.8803  0.64192   0.5864     H
C         0.91   0.9516   0.3592     C
O         0.94   0.8825    0.125     O
