data_I
_chemical_name_common  '/home/zhangsd/repos/MofS-CGCNN/ML/data/TSD/clean_cifs/SABYAY_clean'
_cell_length_a 10.54600
_cell_length_b 10.65300
_cell_length_c 11.42200
_cell_angle_alpha 82.68000
_cell_angle_beta  74.10000
_cell_angle_gamma 69.42000
_space_group_name_H-M_alt      'P 1'


loop_
_space_group_symop_operation_xyz
  'x, y, z' 

loop_
_atom_site_label
_atom_site_fract_x
_atom_site_fract_y
_atom_site_fract_z
_atom_site_type_symbol
Cu         0.0      0.5      0.5    Cu
O       0.0072   0.4394   0.6678     O
H       0.0081   0.8362   0.6474     H
C        0.027    0.355   0.9011     C
C       0.0301   0.3237    0.022     C
N       0.0356   0.0443   0.7167     N
O       0.0415   0.3206   0.4553     O
O       0.0442   0.1522   0.7258     O
C       0.0659   0.0879   0.3639     C
C       0.0744   0.9636   0.3342     C
H       0.0834   0.6763   0.8043     H
C       0.0889   0.6534   0.8845     C
C        0.101   0.5863   0.1262     C
C       0.1061   0.5494   0.2565     C
H       0.1093   0.3369   0.8398     H
O       0.1203   0.9406    0.742     O
C       0.1615   0.2346   0.4405     C
N        0.167   0.2641     0.05     N
C       0.1703   0.0977   0.4112     C
O       0.1718    0.252   0.1556     O
C       0.1789   0.8466   0.3541     C
H       0.1811   0.7636   0.3345     H
C       0.2182   0.5951   0.9131     C
O       0.2209   0.5116   0.2828     O
C        0.224   0.5621   0.0342     C
O       0.2677    0.254   0.4483     O
O       0.2702   0.2372   0.9651     O
C       0.2766   0.9834   0.4309     C
C       0.2806   0.8574   0.4046     C
H         0.31   0.5239   0.0535     H
O       0.3393   0.6134   0.7058     O
H       0.3465   0.9902   0.4621     H
C       0.3494   0.5747   0.8139     C
C       0.3918   0.7334   0.4349     C
O       0.3979   0.6224   0.4069     O
Nd       0.411  0.40149  0.37171    Nd
O       0.4655   0.5241   0.8388     O
O       0.4716   0.7511   0.4905     O
O       0.5284   0.2489   0.5095     O
O       0.5345   0.4759   0.1612     O
Nd       0.589  0.59851  0.62829    Nd
O       0.6021   0.3776   0.5931     O
C       0.6082   0.2666   0.5651     C
C       0.6506   0.4253   0.1861     C
H       0.6535   0.0098   0.5379     H
O       0.6607   0.3866   0.2942     O
H         0.69   0.4761   0.9465     H
C       0.7194   0.1426   0.5954     C
C       0.7234   0.0166   0.5691     C
O       0.7298   0.7628   0.0349     O
O       0.7323    0.746   0.5517     O
C        0.776   0.4379   0.9658     C
O       0.7791   0.4884   0.7172     O
C       0.7818   0.4049   0.0869     C
H       0.8189   0.2364   0.6655     H
C       0.8211   0.1534   0.6459     C
O       0.8282    0.748   0.8444     O
C       0.8297   0.9023   0.5888     C
N        0.833   0.7359     0.95     N
C       0.8385   0.7654   0.5595     C
O       0.8797   0.0594    0.258     O
H       0.8907   0.6631   0.1602     H
C       0.8939   0.4506   0.7435     C
C        0.899   0.4137   0.8738     C
C       0.9111   0.3466   0.1155     C
H       0.9166   0.3237   0.1957     H
C       0.9256   0.0364   0.6658     C
C       0.9341   0.9121   0.6361     C
O       0.9558   0.8478   0.2742     O
O       0.9585   0.6794   0.5447     O
N       0.9644   0.9557   0.2833     N
C       0.9699   0.6763    0.978     C
C        0.973    0.645   0.0989     C
H       0.9919   0.1638   0.3526     H
O       0.9928   0.5606   0.3322     O
