data_I
_chemical_name_common  '/home/zhangsd/repos/MofS-CGCNN/ML/data/TSD/clean_cifs/SABZED_clean'
_cell_length_a 10.41400
_cell_length_b 10.61500
_cell_length_c 11.31700
_cell_angle_alpha 83.45000
_cell_angle_beta  75.04000
_cell_angle_gamma 69.61000
_space_group_name_H-M_alt      'P 1'


loop_
_space_group_symop_operation_xyz
  'x, y, z' 

loop_
_atom_site_label
_atom_site_fract_x
_atom_site_fract_y
_atom_site_fract_z
_atom_site_type_symbol
Cu         0.0      0.5      0.5    Cu
O       0.0016   0.4421   0.6706     O
H       0.0045   0.8371   0.6478     H
C       0.0247   0.3573   0.9045     C
C       0.0287   0.3248   0.0245     C
N       0.0421   0.0433   0.7143     N
O         0.05   0.1517   0.7264     O
O       0.0521   0.3184   0.4552     O
C       0.0691   0.0859   0.3641     C
C       0.0733   0.9622   0.3353     C
H       0.0835   0.6724   0.8006     H
C       0.0904   0.6497   0.8811     C
C       0.1065   0.5812   0.1232     C
H       0.1072   0.3388   0.8432     H
C       0.1128   0.5441   0.2533     C
O       0.1277   0.9375   0.7382     O
N       0.1679   0.2621   0.0529     N
C       0.1737   0.2312   0.4367     C
O       0.1739   0.2466   0.1599     O
C       0.1758   0.0942   0.4109     C
H       0.1762    0.761   0.3366     H
C       0.1767   0.8436   0.3559     C
C        0.222   0.5886   0.9095     C
C       0.2287   0.5555   0.0302     C
O       0.2301   0.5035     0.28     O
O       0.2713   0.2326    0.968     O
C       0.2817   0.8527   0.4065     C
C       0.2823   0.9773   0.4317     C
O        0.284   0.2492   0.4389     O
H        0.316   0.5156   0.0493     H
O       0.3415   0.6076   0.7021     O
C       0.3536    0.568   0.8099     C
H       0.3546   0.9827   0.4627     H
C       0.3905   0.7265   0.4386     C
O        0.396   0.6161   0.4055     O
Ho     0.41327  0.40329  0.36775    Ho
O       0.4708   0.5171   0.8358     O
O       0.4714   0.7408    0.498     O
O       0.5286   0.2592    0.502     O
O       0.5292   0.4829   0.1642     O
Ho     0.58673  0.59671  0.63225    Ho
O        0.604   0.3839   0.5945     O
C       0.6095   0.2735   0.5614     C
H       0.6454   0.0173   0.5373     H
C       0.6464    0.432   0.1901     C
O       0.6585   0.3924   0.2979     O
H        0.684   0.4844   0.9507     H
O        0.716   0.7508   0.5611     O
C       0.7177   0.0227   0.5683     C
C       0.7183   0.1473   0.5935     C
O       0.7287   0.7674    0.032     O
O       0.7699   0.4965     0.72     O
C       0.7713   0.4445   0.9698     C
C        0.778   0.4114   0.0905     C
C       0.8233   0.1564   0.6441     C
H       0.8238    0.239   0.6634     H
C       0.8242   0.9058   0.5891     C
O       0.8261   0.7534   0.8401     O
C       0.8263   0.7688   0.5633     C
N       0.8321   0.7379   0.9471     N
O       0.8723   0.0625   0.2618     O
C       0.8872   0.4559   0.7467     C
H       0.8928   0.6612   0.1568     H
C       0.8935   0.4188   0.8768     C
C       0.9096   0.3503   0.1189     C
H       0.9165   0.3276   0.1994     H
C       0.9267   0.0378   0.6647     C
C       0.9309   0.9141   0.6359     C
O       0.9479   0.6816   0.5448     O
O         0.95   0.8483   0.2736     O
N       0.9579   0.9567   0.2857     N
C       0.9713   0.6752   0.9755     C
C       0.9753   0.6427   0.0955     C
H       0.9955   0.1629   0.3522     H
O       0.9984   0.5579   0.3294     O
