data_I
_chemical_name_common  '/home/zhangsd/repos/MofS-CGCNN/ML/data/TSD/clean_cifs/SADLIU_clean'
_cell_length_a 10.24100
_cell_length_b 10.24100
_cell_length_c 14.40260
_cell_angle_alpha 90.00000
_cell_angle_beta  90.00000
_cell_angle_gamma 90.00000
_space_group_name_H-M_alt      'P 1'


loop_
_space_group_symop_operation_xyz
  'x, y, z' 

loop_
_atom_site_label
_atom_site_fract_x
_atom_site_fract_y
_atom_site_fract_z
_atom_site_type_symbol
H          0.0   0.1051      0.0     H
C          0.0   0.1959      0.0     C
C          0.0   0.3864      0.5     C
C          0.0   0.4658      0.0     C
C          0.0   0.5342      0.5     C
C          0.0   0.6136      0.0     C
C          0.0   0.8041      0.5     C
H          0.0   0.8949      0.5     H
C       0.0414   0.2617   0.9218     C
C       0.0414   0.7383   0.5782     C
C       0.0433   0.3981   0.9219     C
C       0.0433   0.6019   0.5781     C
O       0.0681   0.1113   0.4013     O
O       0.0681   0.8887   0.0987     O
O       0.0722   0.3323    0.558     O
O       0.0722   0.6677    0.942     O
H       0.0733   0.4435   0.8702     H
H       0.0733   0.5565   0.6298     H
C       0.0849   0.1842   0.8377     C
C       0.0849   0.8158   0.6623     C
O       0.0922   0.2416   0.7612     O
O       0.0922   0.7584   0.7388     O
H       0.1051      0.0     0.25     H
O       0.1113   0.0681   0.8487     O
O       0.1113   0.9319   0.6513     O
Yb     0.14713  0.14713    0.625    Yb
Yb     0.14713  0.85287    0.875    Yb
C       0.1842   0.0849   0.4123     C
C       0.1842   0.9151   0.0877     C
C       0.1959      0.0     0.25     C
O       0.2416   0.0922   0.4888     O
O       0.2416   0.9078   0.0112     O
C       0.2617   0.0414   0.3282     C
C       0.2617   0.9586   0.1718     C
O       0.3323   0.0722    0.692     O
O       0.3323   0.9278    0.808     O
C       0.3864      0.0     0.75     C
C       0.3981   0.0433   0.3281     C
C       0.3981   0.9567   0.1719     C
H       0.4435   0.0733   0.3798     H
H       0.4435   0.9267   0.1202     H
C       0.4658      0.0     0.25     C
C       0.5342      0.0     0.75     C
H       0.5565   0.0733   0.6202     H
H       0.5565   0.9267   0.8798     H
C       0.6019   0.0433   0.6719     C
C       0.6019   0.9567   0.8281     C
C       0.6136      0.0     0.25     C
O       0.6677   0.0722    0.308     O
O       0.6677   0.9278    0.192     O
C       0.7383   0.0414   0.6718     C
C       0.7383   0.9586   0.8282     C
O       0.7584   0.0922   0.5112     O
O       0.7584   0.9078   0.9888     O
C       0.8041      0.0     0.75     C
C       0.8158   0.0849   0.5877     C
C       0.8158   0.9151   0.9123     C
Yb     0.85287  0.14713    0.375    Yb
Yb     0.85287  0.85287    0.125    Yb
O       0.8887   0.0681   0.1513     O
O       0.8887   0.9319   0.3487     O
H       0.8949      0.0     0.75     H
O       0.9078   0.2416   0.2388     O
O       0.9078   0.7584   0.2612     O
C       0.9151   0.1842   0.1623     C
C       0.9151   0.8158   0.3377     C
H       0.9267   0.4435   0.1298     H
H       0.9267   0.5565   0.3702     H
O       0.9278   0.3323    0.442     O
O       0.9278   0.6677    0.058     O
O       0.9319   0.1113   0.5987     O
O       0.9319   0.8887   0.9013     O
C       0.9567   0.3981   0.0781     C
C       0.9567   0.6019   0.4219     C
C       0.9586   0.2617   0.0782     C
C       0.9586   0.7383   0.4218     C
