data_I
_chemical_name_common  '/home/zhangsd/repos/MofS-CGCNN/ML/data/TSD/clean_cifs/SADLEQ_clean'
_cell_length_a 10.42780
_cell_length_b 10.42780
_cell_length_c 14.26020
_cell_angle_alpha 90.00000
_cell_angle_beta  90.00000
_cell_angle_gamma 90.00000
_space_group_name_H-M_alt      'P 1'


loop_
_space_group_symop_operation_xyz
  'x, y, z' 

loop_
_atom_site_label
_atom_site_fract_x
_atom_site_fract_y
_atom_site_fract_z
_atom_site_type_symbol
C       0.0034   0.7893   0.5037     C
H        0.006   0.1222   0.0002     H
C       0.0148   0.4042    0.089     C
C       0.0215   0.2708   0.0887     C
C       0.0216   0.5285   0.5106     C
O        0.028    0.673   0.0792     O
C       0.0284   0.3791   0.5131     C
H       0.0353   0.4487   0.1435     H
O       0.0402   0.2585   0.2521     O
C       0.0407   0.7255   0.4259     C
C       0.0531   0.5926     0.43     C
C       0.0561   0.1999   0.1755     C
C        0.072   0.7958   0.3371     C
O       0.0757   0.9175   0.3371     O
O       0.0825   0.0757   0.5871     O
H       0.0827   0.5474   0.3781     H
O       0.0886   0.3268   0.4494     O
O       0.0906   0.8986   0.9226     O
O       0.0951    0.732   0.2643     O
O       0.1014   0.0906   0.1726     O
H       0.1222    0.994   0.7502     H
Nd     0.13114  0.86595  0.12473    Nd
Nd     0.13405  0.13114  0.37473    Nd
C       0.1999   0.9439   0.9255     C
C       0.2042    0.072   0.5871     C
C       0.2107   0.0034   0.7537     C
O       0.2585   0.9598   0.0021     O
O        0.268   0.0951   0.5143     O
C       0.2708   0.9785   0.8387     C
C       0.2745   0.0407   0.6759     C
O       0.3268   0.9114   0.1994     O
O        0.327    0.028   0.3292     O
C       0.3791   0.9716   0.2631     C
C       0.4042   0.9852    0.839     C
C       0.4074   0.0531     0.68     C
H       0.4487   0.9647   0.8935     H
H       0.4526   0.0827   0.6281     H
C       0.4715   0.0216   0.7606     C
C       0.5285   0.9784   0.2606     C
H       0.5474   0.9173   0.1281     H
H       0.5513   0.0353   0.3935     H
C       0.5926   0.9469     0.18     C
C       0.5958   0.0148    0.339     C
C       0.6209   0.0284   0.7631     C
O        0.673    0.972   0.8292     O
O       0.6732   0.0886   0.6994     O
C       0.7255   0.9593   0.1759     C
C       0.7292   0.0215   0.3387     C
O        0.732   0.9049   0.0143     O
O       0.7415   0.0402   0.5021     O
C       0.7893   0.9966   0.2537     C
C       0.7958    0.928   0.0871     C
C       0.8001   0.0561   0.4255     C
Nd     0.86595  0.86886  0.87473    Nd
Nd     0.86886  0.13405  0.62473    Nd
H       0.8778    0.006   0.2502     H
O       0.8986   0.9094   0.6726     O
O       0.9049    0.268   0.7643     O
O       0.9094   0.1014   0.4226     O
O       0.9114   0.6732   0.9494     O
H       0.9173   0.4526   0.8781     H
O       0.9175   0.9243   0.0871     O
O       0.9243   0.0825   0.8371     O
C        0.928   0.2042   0.8371     C
C       0.9439   0.8001   0.6755     C
C       0.9469   0.4074     0.93     C
C       0.9593   0.2745   0.9259     C
O       0.9598   0.7415   0.7521     O
H       0.9647   0.5513   0.6435     H
C       0.9716   0.6209   0.0131     C
O        0.972    0.327   0.5792     O
C       0.9784   0.4715   0.0106     C
C       0.9785   0.7292   0.5887     C
C       0.9852   0.5958    0.589     C
H        0.994   0.8778   0.5002     H
C       0.9966   0.2107   0.0037     C
