data_I
_chemical_name_common  '/home/zhangsd/repos/MofS-CGCNN/ML/data/TSD/clean_cifs/SAJDIT_clean'
_cell_length_a 30.77300
_cell_length_b  9.30880
_cell_length_c 30.41100
_cell_angle_alpha 90.00000
_cell_angle_beta  111.27200
_cell_angle_gamma 90.00000
_space_group_name_H-M_alt      'P 1'


loop_
_space_group_symop_operation_xyz
  'x, y, z' 

loop_
_atom_site_label
_atom_site_fract_x
_atom_site_fract_y
_atom_site_fract_z
_atom_site_type_symbol
C       0.0032    0.337   0.9026     C
C       0.0032    0.663   0.4026     C
C       0.0068   0.0306   0.6837     C
C       0.0068   0.9694   0.1837     C
H       0.0073   0.3934   0.0819     H
H       0.0073   0.6066   0.5819     H
H        0.009   0.0343   0.3415     H
H        0.009   0.9657   0.8415     H
C       0.0109   0.2079   0.8827     C
C       0.0109   0.7921   0.3827     C
H        0.012   0.0464   0.7975     H
H        0.012   0.9536   0.2975     H
H       0.0137   0.4421   0.9647     H
H       0.0137   0.5579   0.4647     H
C       0.0151    0.172   0.6636     C
C       0.0151    0.828   0.1636     C
H       0.0186   0.1644    0.491     H
H       0.0186   0.8356    0.991     H
C       0.0297   0.4348   0.6258     C
C       0.0297   0.5652   0.1258     C
C       0.0303   0.3712    0.954     C
C       0.0303   0.6288    0.454     C
O       0.0326   0.0101   0.9354     O
O       0.0326   0.9899   0.4354     O
H       0.0338   0.2855   0.9725     H
H       0.0338   0.7145   0.4725     H
C       0.0352   0.4192   0.1084     C
C       0.0352   0.5808   0.6084     C
H       0.0362   0.0102   0.2031     H
H       0.0362   0.9898   0.7031     H
H       0.0384   0.4478   0.3095     H
H       0.0384   0.5522   0.8095     H
H       0.0397   0.3489   0.1332     H
H       0.0397   0.6511   0.6332     H
C       0.0477   0.1811   0.4891     C
C       0.0477   0.8189   0.9891     C
C        0.048    0.272   0.6916     C
C        0.048    0.728   0.1916     C
H       0.0498   0.1512   0.1027     H
H       0.0498   0.8488   0.6027     H
C       0.0505    0.112   0.9117     C
C       0.0505    0.888   0.4117     C
O       0.0535   0.3415   0.7675     O
O       0.0535   0.6585   0.2675     O
C       0.0554      0.4   0.6731     C
C       0.0554      0.6   0.1731     C
H       0.0605   0.4077   0.9573     H
H       0.0605   0.5923   0.4573     H
C       0.0624   0.4971   0.8301     C
C       0.0624   0.5029   0.3301     C
H       0.0638   0.0632   0.8914     H
H       0.0638   0.9368   0.3914     H
C        0.064   0.0978   0.4606     C
C        0.064   0.9022   0.9606     C
H       0.0678   0.3476   0.5358     H
H       0.0678   0.6524   0.0358     H
H       0.0701   0.1439   0.7522     H
H       0.0701   0.8561   0.2522     H
H       0.0704    0.384   0.3869     H
H       0.0704    0.616   0.8869     H
C       0.0744   0.2426   0.7443     C
C       0.0744   0.7574   0.2443     C
H       0.0747   0.1689   0.9344     H
H       0.0747   0.8311   0.4344     H
O       0.0749   0.4205   0.0941     O
O       0.0749   0.5795   0.5941     O
C        0.075   0.1588   0.0928     C
C        0.075   0.8412   0.5928     C
C        0.077   0.2926   0.5151     C
C        0.077   0.7074   0.0151     C
C       0.0771   0.3746   0.8133     C
C       0.0771   0.6254   0.3133     C
H       0.0789    0.439   0.2224     H
H       0.0789    0.561   0.7224     H
C       0.0821    0.462   0.3756     C
C       0.0821    0.538   0.8756     C
H        0.087   0.0547   0.5882     H
H        0.087   0.9453   0.0882     H
C       0.0919   0.4943   0.2035     C
C       0.0919   0.5057   0.7035     C
C       0.0927   0.2933   0.0862     C
C       0.0927   0.7067   0.5862     C
C       0.0974   0.0359   0.0836     C
C       0.0974   0.9641   0.5836     C
H       0.1011    0.431   0.1835     H
H       0.1011    0.569   0.6835     H
C        0.107   0.1165   0.4583     C
C        0.107   0.8835   0.9583     C
H       0.1075   0.2613   0.7531     H
H       0.1075   0.7387   0.2531     H
C       0.1144   0.2943   0.8436     C
C       0.1144   0.7057   0.3436     C
H       0.1177   0.0539   0.4406     H
H       0.1177   0.9461   0.9406     H
H       0.1186   0.4537   0.7237     H
H       0.1186   0.5463   0.2237     H
C       0.1187   0.3205   0.5102     C
C       0.1187   0.6795   0.0102     C
C       0.1205   0.4606   0.9056     C
C       0.1205   0.5394   0.4056     C
H       0.1244   0.2116    0.833     H
H       0.1244   0.7884    0.333     H
C       0.1297    0.302   0.0718     C
C       0.1297    0.698   0.5718     C
C       0.1333   0.0456   0.0685     C
C       0.1333   0.9544   0.5685     C
C       0.1347   0.2301   0.4825     C
C       0.1347   0.7699   0.9825     C
H       0.1356   0.4917   0.9365     H
H       0.1356   0.5083   0.4365     H
C       0.1364   0.3406   0.8905     C
H       0.1364   0.3994   0.5252     H
H       0.1364   0.6006   0.0252     H
C       0.1364   0.6594   0.3905     C
H       0.1412   0.3918   0.0682     H
H       0.1412   0.6082   0.5682     H
H       0.1468   0.0374    0.562     H
H       0.1468   0.9626    0.062     H
C       0.1504   0.1792   0.0624     C
C       0.1504   0.8208   0.5624     C
C       0.1763   0.2517   0.9221     C
C       0.1763   0.7483   0.4221     C
O       0.1791   0.1263   0.9131     O
O       0.1791   0.8737   0.4131     O
C       0.1819   0.2564   0.4798     C
C       0.1819   0.7436   0.9798     C
C       0.1903   0.1957   0.0449     C
C       0.1903   0.8043   0.5449     C
O       0.1985   0.3783   0.4905     O
O       0.1985   0.6217   0.9905     O
O       0.1991   0.1563   0.4656     O
O       0.1991   0.8437   0.9656     O
O        0.201   0.0868   0.0259     O
O        0.201   0.9132   0.5259     O
O       0.2063    0.311    0.959     O
O       0.2063    0.689    0.459     O
O       0.2089   0.3135   0.0508     O
O       0.2089   0.6865   0.5508     O
Tb     0.24487  0.04529   0.9778    Tb
Tb     0.24487  0.95471   0.4778    Tb
Tb     0.25513  0.45471   0.0222    Tb
Tb     0.25513  0.54529   0.5222    Tb
O       0.2911   0.1865   0.9492     O
O       0.2911   0.8135   0.4492     O
O       0.2937    0.189    0.041     O
O       0.2937    0.811    0.541     O
O        0.299   0.4132   0.9741     O
O        0.299   0.5868   0.4741     O
O       0.3009   0.3437   0.5344     O
O       0.3009   0.6563   0.0344     O
O       0.3015   0.1217   0.5095     O
O       0.3015   0.8783   0.0095     O
C       0.3097   0.3043   0.9551     C
C       0.3097   0.6957   0.4551     C
C       0.3181   0.2436   0.5202     C
C       0.3181   0.7564   0.0202     C
O       0.3209   0.3737   0.0869     O
O       0.3209   0.6263   0.5869     O
C       0.3237   0.2483   0.0779     C
C       0.3237   0.7517   0.5779     C
C       0.3496   0.3208   0.9376     C
C       0.3496   0.6792   0.4376     C
H       0.3532   0.4626    0.438     H
H       0.3532   0.5374    0.938     H
H       0.3588   0.1082   0.9318     H
H       0.3588   0.8918   0.4318     H
H       0.3636   0.1006   0.4748     H
C       0.3636   0.1594   0.1095     C
C       0.3636   0.8406   0.6095     C
H       0.3636   0.8994   0.9748     H
H       0.3644   0.0083   0.0635     H
H       0.3644   0.9917   0.5635     H
C       0.3653   0.2699   0.5175     C
C       0.3653   0.7301   0.0175     C
C       0.3667   0.4544   0.9315     C
C       0.3667   0.5456   0.4315     C
C       0.3703    0.198   0.9282     C
C       0.3703    0.802   0.4282     C
H       0.3756   0.2884    0.167     H
H       0.3756   0.7116    0.667     H
C       0.3795   0.0394   0.0944     C
C       0.3795   0.9606   0.5944     C
C       0.3813   0.1795   0.4898     C
C       0.3813   0.8205   0.9898     C
H       0.3814   0.0463   0.2763     H
H       0.3814   0.9537   0.7763     H
H       0.3823   0.4461   0.5594     H
H       0.3823   0.5539   0.0594     H
C       0.3856   0.2057   0.1564     C
C       0.3856   0.7943   0.6564     C
H       0.3925   0.2387   0.2469     H
H       0.3925   0.7613   0.7469     H
C        0.393   0.3835   0.5417     C
C        0.393   0.6165   0.0417     C
H       0.3989    0.069   0.8165     H
H       0.3989    0.931   0.3165     H
C       0.4026   0.4641   0.9164     C
C       0.4026   0.5359   0.4164     C
C       0.4073   0.2067   0.9138     C
C       0.4073   0.7933   0.4138     C
C       0.4081   0.0057   0.7965     C
C       0.4081   0.9943   0.2965     C
H        0.413   0.4453   0.4118     H
H        0.413   0.5547   0.9118     H
C       0.4179    0.038   0.6244     C
C       0.4179    0.962   0.1244     C
H       0.4211    0.061   0.7776     H
H       0.4211    0.939   0.2776     H
C       0.4229   0.1254   0.1867     C
C       0.4229   0.8746   0.6867     C
C        0.423   0.2074   0.4849     C
C        0.423   0.7926   0.9849     C
C        0.425   0.3412   0.9072     C
C        0.425   0.6588   0.4072     C
O       0.4251   0.0795   0.9059     O
O       0.4251   0.9205   0.4059     O
H       0.4253   0.3311   0.0656     H
H       0.4253   0.6689   0.5656     H
C       0.4256   0.2574   0.2557     C
C       0.4256   0.7426   0.7557     C
H       0.4296    0.116   0.6131     H
H       0.4296    0.884   0.1131     H
H       0.4299   0.3561   0.2478     H
H       0.4299   0.6439   0.7478     H
H       0.4322   0.1524   0.4642     H
H       0.4322   0.8476   0.9642     H
C        0.436   0.4022   0.5394     C
C        0.436   0.5978   0.0394     C
H       0.4362   0.4368   0.1086     H
H       0.4362   0.5632   0.6086     H
C       0.4376   0.0029   0.1699     C
C       0.4376   0.9971   0.6699     C
H       0.4395   0.0923   0.0427     H
H       0.4395   0.9077   0.5427     H
C       0.4446      0.1   0.3269     C
C       0.4446      0.9   0.8269     C
O       0.4465   0.1585   0.2325     O
O       0.4465   0.8415   0.7325     O
C       0.4495    0.388   0.0883     C
C       0.4495    0.612   0.5883     C
H       0.4502   0.3488   0.8973     H
H       0.4502   0.6512   0.3973     H
C        0.452    0.228   0.3084     C
C        0.452    0.772   0.8084     C
C       0.4523   0.3189   0.5109     C
C       0.4523   0.6811   0.0109     C
H       0.4603   0.1511   0.8668     H
H       0.4603   0.8489   0.3668     H
H       0.4616   0.0522   0.6905     H
H       0.4616   0.9478   0.1905     H
H       0.4638   0.4898   0.7969     H
H       0.4638   0.5102   0.2969     H
C       0.4648   0.0808   0.8916     C
C       0.4648   0.9192   0.3916     C
H       0.4662   0.2145   0.0275     H
H       0.4662   0.7855   0.5275     H
O       0.4674   0.4899   0.0646     O
O       0.4674   0.5101   0.5646     O
C       0.4697   0.1288    0.046     C
C       0.4697   0.8712    0.546     C
C       0.4703   0.0652   0.3742     C
C       0.4703   0.9348   0.8742     C
H       0.4814   0.3356    0.509     H
H       0.4814   0.6644    0.009     H
C       0.4849    0.328   0.3364     C
C       0.4849    0.672   0.8364     C
H       0.4863   0.0579   0.0353     H
H       0.4863   0.9421   0.5353     H
H        0.488   0.4536   0.2025     H
H        0.488   0.5464   0.7025     H
C       0.4891   0.2921   0.1173     C
C       0.4891   0.7079   0.6173     C
H        0.491   0.4657   0.6585     H
H        0.491   0.5343   0.1585     H
H       0.4927   0.1066   0.9181     H
H       0.4927   0.8934   0.4181     H
C       0.4932   0.4694   0.3163     C
C       0.4932   0.5306   0.8163     C
C       0.4968    0.163   0.0974     C
C       0.4968    0.837   0.5974     C
C       0.5032    0.163   0.4026     C
C       0.5032    0.837   0.9026     C
C       0.5068   0.4694   0.1837     C
C       0.5068   0.5306   0.6837     C
H       0.5073   0.1066   0.5819     H
H       0.5073   0.8934   0.0819     H
H        0.509   0.4657   0.8415     H
H        0.509   0.5343   0.3415     H
C       0.5109   0.2921   0.3827     C
C       0.5109   0.7079   0.8827     C
H        0.512   0.4536   0.2975     H
H        0.512   0.5464   0.7975     H
H       0.5137   0.0579   0.4647     H
H       0.5137   0.9421   0.9647     H
C       0.5151    0.328   0.1636     C
C       0.5151    0.672   0.6636     C
H       0.5186   0.3356    0.991     H
H       0.5186   0.6644    0.491     H
C       0.5297   0.0652   0.1258     C
C       0.5297   0.9348   0.6258     C
C       0.5303   0.1288    0.454     C
C       0.5303   0.8712    0.954     C
O       0.5326   0.4899   0.4354     O
O       0.5326   0.5101   0.9354     O
H       0.5338   0.2145   0.4725     H
H       0.5338   0.7855   0.9725     H
C       0.5352   0.0808   0.6084     C
C       0.5352   0.9192   0.1084     C
H       0.5362   0.4898   0.7031     H
H       0.5362   0.5102   0.2031     H
H       0.5384   0.0522   0.8095     H
H       0.5384   0.9478   0.3095     H
H       0.5397   0.1511   0.6332     H
H       0.5397   0.8489   0.1332     H
C       0.5477   0.3189   0.9891     C
C       0.5477   0.6811   0.4891     C
C        0.548    0.228   0.1916     C
C        0.548    0.772   0.6916     C
H       0.5498   0.3488   0.6027     H
H       0.5498   0.6512   0.1027     H
C       0.5505    0.388   0.4117     C
C       0.5505    0.612   0.9117     C
O       0.5535   0.1585   0.2675     O
O       0.5535   0.8415   0.7675     O
C       0.5554      0.1   0.1731     C
C       0.5554      0.9   0.6731     C
H       0.5605   0.0923   0.4573     H
H       0.5605   0.9077   0.9573     H
C       0.5624   0.0029   0.3301     C
C       0.5624   0.9971   0.8301     C
H       0.5638   0.4368   0.3914     H
H       0.5638   0.5632   0.8914     H
C        0.564   0.4022   0.9606     C
C        0.564   0.5978   0.4606     C
H       0.5678   0.1524   0.0358     H
H       0.5678   0.8476   0.5358     H
H       0.5701   0.3561   0.2522     H
H       0.5701   0.6439   0.7522     H
H       0.5704    0.116   0.8869     H
H       0.5704    0.884   0.3869     H
C       0.5744   0.2574   0.2443     C
C       0.5744   0.7426   0.7443     C
H       0.5747   0.3311   0.4344     H
H       0.5747   0.6689   0.9344     H
O       0.5749   0.0795   0.5941     O
O       0.5749   0.9205   0.0941     O
C        0.575   0.3412   0.5928     C
C        0.575   0.6588   0.0928     C
C        0.577   0.2074   0.0151     C
C        0.577   0.7926   0.5151     C
C       0.5771   0.1254   0.3133     C
C       0.5771   0.8746   0.8133     C
H       0.5789    0.061   0.7224     H
H       0.5789    0.939   0.2224     H
C       0.5821    0.038   0.8756     C
C       0.5821    0.962   0.3756     C
H        0.587   0.4453   0.0882     H
H        0.587   0.5547   0.5882     H
C       0.5919   0.0057   0.7035     C
C       0.5919   0.9943   0.2035     C
C       0.5927   0.2067   0.5862     C
C       0.5927   0.7933   0.0862     C
C       0.5974   0.4641   0.5836     C
C       0.5974   0.5359   0.0836     C
H       0.6011    0.069   0.6835     H
H       0.6011    0.931   0.1835     H
C        0.607   0.3835   0.9583     C
C        0.607   0.6165   0.4583     C
H       0.6075   0.2387   0.2531     H
H       0.6075   0.7613   0.7531     H
C       0.6144   0.2057   0.3436     C
C       0.6144   0.7943   0.8436     C
H       0.6177   0.4461   0.9406     H
H       0.6177   0.5539   0.4406     H
H       0.6186   0.0463   0.2237     H
H       0.6186   0.9537   0.7237     H
C       0.6187   0.1795   0.0102     C
C       0.6187   0.8205   0.5102     C
C       0.6205   0.0394   0.4056     C
C       0.6205   0.9606   0.9056     C
H       0.6244   0.2884    0.333     H
H       0.6244   0.7116    0.833     H
C       0.6297    0.198   0.5718     C
C       0.6297    0.802   0.0718     C
C       0.6333   0.4544   0.5685     C
C       0.6333   0.5456   0.0685     C
C       0.6347   0.2699   0.9825     C
C       0.6347   0.7301   0.4825     C
H       0.6356   0.0083   0.4365     H
H       0.6356   0.9917   0.9365     H
H       0.6364   0.1006   0.0252     H
C       0.6364   0.1594   0.3905     C
C       0.6364   0.8406   0.8905     C
H       0.6364   0.8994   0.5252     H
H       0.6412   0.1082   0.5682     H
H       0.6412   0.8918   0.0682     H
H       0.6468   0.4626    0.062     H
H       0.6468   0.5374    0.562     H
C       0.6504   0.3208   0.5624     C
C       0.6504   0.6792   0.0624     C
C       0.6763   0.2483   0.4221     C
C       0.6763   0.7517   0.9221     C
O       0.6791   0.3737   0.4131     O
O       0.6791   0.6263   0.9131     O
C       0.6819   0.2436   0.9798     C
C       0.6819   0.7564   0.4798     C
C       0.6903   0.3043   0.5449     C
C       0.6903   0.6957   0.0449     C
O       0.6985   0.1217   0.9905     O
O       0.6985   0.8783   0.4905     O
O       0.6991   0.3437   0.9656     O
O       0.6991   0.6563   0.4656     O
O        0.701   0.4132   0.5259     O
O        0.701   0.5868   0.0259     O
O       0.7063    0.189    0.459     O
O       0.7063    0.811    0.959     O
O       0.7089   0.1865   0.5508     O
O       0.7089   0.8135   0.0508     O
Tb     0.74487  0.45471   0.4778    Tb
Tb     0.74487  0.54529   0.9778    Tb
Tb     0.75513  0.04529   0.5222    Tb
Tb     0.75513  0.95471   0.0222    Tb
O       0.7911   0.3135   0.4492     O
O       0.7911   0.6865   0.9492     O
O       0.7937    0.311    0.541     O
O       0.7937    0.689    0.041     O
O        0.799   0.0868   0.4741     O
O        0.799   0.9132   0.9741     O
O       0.8009   0.1563   0.0344     O
O       0.8009   0.8437   0.5344     O
O       0.8015   0.3783   0.0095     O
O       0.8015   0.6217   0.5095     O
C       0.8097   0.1957   0.4551     C
C       0.8097   0.8043   0.9551     C
C       0.8181   0.2564   0.0202     C
C       0.8181   0.7436   0.5202     C
O       0.8209   0.1263   0.5869     O
O       0.8209   0.8737   0.0869     O
C       0.8237   0.2517   0.5779     C
C       0.8237   0.7483   0.0779     C
C       0.8496   0.1792   0.4376     C
C       0.8496   0.8208   0.9376     C
H       0.8532   0.0374    0.938     H
H       0.8532   0.9626    0.438     H
H       0.8588   0.3918   0.4318     H
H       0.8588   0.6082   0.9318     H
C       0.8636   0.3406   0.6095     C
H       0.8636   0.3994   0.9748     H
H       0.8636   0.6006   0.4748     H
C       0.8636   0.6594   0.1095     C
H       0.8644   0.4917   0.5635     H
H       0.8644   0.5083   0.0635     H
C       0.8653   0.2301   0.0175     C
C       0.8653   0.7699   0.5175     C
C       0.8667   0.0456   0.4315     C
C       0.8667   0.9544   0.9315     C
C       0.8703    0.302   0.4282     C
C       0.8703    0.698   0.9282     C
H       0.8756   0.2116    0.667     H
H       0.8756   0.7884    0.167     H
C       0.8795   0.4606   0.5944     C
C       0.8795   0.5394   0.0944     C
C       0.8813   0.3205   0.9898     C
C       0.8813   0.6795   0.4898     C
H       0.8814   0.4537   0.7763     H
H       0.8814   0.5463   0.2763     H
H       0.8823   0.0539   0.0594     H
H       0.8823   0.9461   0.5594     H
C       0.8856   0.2943   0.6564     C
C       0.8856   0.7057   0.1564     C
H       0.8925   0.2613   0.7469     H
H       0.8925   0.7387   0.2469     H
C        0.893   0.1165   0.0417     C
C        0.893   0.8835   0.5417     C
H       0.8989    0.431   0.3165     H
H       0.8989    0.569   0.8165     H
C       0.9026   0.0359   0.4164     C
C       0.9026   0.9641   0.9164     C
C       0.9073   0.2933   0.4138     C
C       0.9073   0.7067   0.9138     C
C       0.9081   0.4943   0.2965     C
C       0.9081   0.5057   0.7965     C
H        0.913   0.0547   0.9118     H
H        0.913   0.9453   0.4118     H
C       0.9179    0.462   0.1244     C
C       0.9179    0.538   0.6244     C
H       0.9211    0.439   0.2776     H
H       0.9211    0.561   0.7776     H
C       0.9229   0.3746   0.6867     C
C       0.9229   0.6254   0.1867     C
C        0.923   0.2926   0.9849     C
C        0.923   0.7074   0.4849     C
C        0.925   0.1588   0.4072     C
C        0.925   0.8412   0.9072     C
O       0.9251   0.4205   0.4059     O
O       0.9251   0.5795   0.9059     O
H       0.9253   0.1689   0.5656     H
H       0.9253   0.8311   0.0656     H
C       0.9256   0.2426   0.7557     C
C       0.9256   0.7574   0.2557     C
H       0.9296    0.384   0.1131     H
H       0.9296    0.616   0.6131     H
H       0.9299   0.1439   0.7478     H
H       0.9299   0.8561   0.2478     H
H       0.9322   0.3476   0.9642     H
H       0.9322   0.6524   0.4642     H
C        0.936   0.0978   0.0394     C
C        0.936   0.9022   0.5394     C
H       0.9362   0.0632   0.6086     H
H       0.9362   0.9368   0.1086     H
C       0.9376   0.4971   0.6699     C
C       0.9376   0.5029   0.1699     C
H       0.9395   0.4077   0.5427     H
H       0.9395   0.5923   0.0427     H
C       0.9446      0.4   0.8269     C
C       0.9446      0.6   0.3269     C
O       0.9465   0.3415   0.7325     O
O       0.9465   0.6585   0.2325     O
C       0.9495    0.112   0.5883     C
C       0.9495    0.888   0.0883     C
H       0.9502   0.1512   0.3973     H
H       0.9502   0.8488   0.8973     H
C        0.952    0.272   0.8084     C
C        0.952    0.728   0.3084     C
C       0.9523   0.1811   0.0109     C
C       0.9523   0.8189   0.5109     C
H       0.9603   0.3489   0.3668     H
H       0.9603   0.6511   0.8668     H
H       0.9616   0.4478   0.1905     H
H       0.9616   0.5522   0.6905     H
H       0.9638   0.0102   0.2969     H
H       0.9638   0.9898   0.7969     H
C       0.9648   0.4192   0.3916     C
C       0.9648   0.5808   0.8916     C
H       0.9662   0.2855   0.5275     H
H       0.9662   0.7145   0.0275     H
O       0.9674   0.0101   0.5646     O
O       0.9674   0.9899   0.0646     O
C       0.9697   0.3712    0.546     C
C       0.9697   0.6288    0.046     C
C       0.9703   0.4348   0.8742     C
C       0.9703   0.5652   0.3742     C
H       0.9814   0.1644    0.009     H
H       0.9814   0.8356    0.509     H
C       0.9849    0.172   0.8364     C
C       0.9849    0.828   0.3364     C
H       0.9863   0.4421   0.5353     H
H       0.9863   0.5579   0.0353     H
H        0.988   0.0464   0.7025     H
H        0.988   0.9536   0.2025     H
C       0.9891   0.2079   0.6173     C
C       0.9891   0.7921   0.1173     C
H        0.991   0.0343   0.1585     H
H        0.991   0.9657   0.6585     H
H       0.9927   0.3934   0.4181     H
H       0.9927   0.6066   0.9181     H
C       0.9932   0.0306   0.8163     C
C       0.9932   0.9694   0.3163     C
C       0.9968    0.337   0.5974     C
C       0.9968    0.663   0.0974     C
