data_I
_chemical_name_common  '/home/zhangsd/repos/MofS-CGCNN/ML/data/TSD/clean_cifs/SAKDEQ_clean'
_cell_length_a 19.78220
_cell_length_b 19.78220
_cell_length_c 19.78220
_cell_angle_alpha 90.00000
_cell_angle_beta  90.00000
_cell_angle_gamma 90.00000
_space_group_name_H-M_alt      'P 1'


loop_
_space_group_symop_operation_xyz
  'x, y, z' 

loop_
_atom_site_label
_atom_site_fract_x
_atom_site_fract_y
_atom_site_fract_z
_atom_site_type_symbol
N      0.00069  0.74019  0.28106     N
N      0.00069  0.75981  0.78106     N
C       0.0021    0.236   0.0803     C
C       0.0021    0.264   0.5803     C
H       0.0028   0.2346   0.0333     H
H       0.0028   0.2654   0.5333     H
Gd     0.00883  0.74631  0.15387    Gd
Gd     0.00883  0.75369  0.65387    Gd
C       0.0262   0.6874   0.3144     C
C       0.0262   0.8126   0.8144     C
C       0.0264   0.6842   0.3842     C
C       0.0264   0.8158   0.8842     C
C       0.0274   0.2092   0.6837     C
C       0.0274   0.2908   0.1837     C
C         0.03   0.2093    0.614     C
C         0.03   0.2907    0.114     C
H       0.0333   0.0028   0.2346     H
H       0.0333   0.4972   0.7346     H
O      0.03998  0.15885  0.79011     O
O      0.03998  0.34115  0.29011     O
H       0.0456   0.6475   0.4065     H
H       0.0456   0.8525   0.9065     H
H       0.0499   0.1738   0.5904     H
H       0.0499   0.3262   0.0904     H
O      0.05046  0.64573  0.20569     O
O      0.05046  0.85427  0.70569     O
C       0.0547   0.1541    0.728     C
C       0.0547   0.3459    0.228     C
C       0.0555   0.6342    0.269     C
C       0.0555   0.8658    0.769     C
C       0.0803   0.0021    0.236     C
C       0.0803   0.4979    0.736     C
O       0.0825  0.58338  0.29399     O
O       0.0825  0.91662  0.79399     O
O      0.08338  0.20601   0.9175     O
O      0.08338  0.29399   0.4175     O
H       0.0904   0.0499   0.3262     H
H       0.0904   0.4501   0.8262     H
O      0.09073  0.10916   0.7031     O
O      0.09073  0.39084   0.2031     O
H       0.0935   0.5456   0.6475     H
H       0.0935   0.9544   0.1475     H
O      0.10916   0.7031  0.09073     O
O      0.10916   0.7969  0.59073     O
C        0.114     0.03   0.2907     C
C        0.114     0.47   0.7907     C
C       0.1158   0.5264   0.6842     C
C       0.1158   0.9736   0.1842     C
C       0.1342    0.231   0.9445     C
C       0.1342    0.269   0.4445     C
O      0.14573  0.20569  0.44954     O
O      0.14573  0.29431  0.94954     O
H       0.1475   0.0935   0.9544     H
H       0.1475   0.4065   0.4544     H
Gd     0.15387  0.00883  0.74631    Gd
Gd     0.15387  0.49117  0.24631    Gd
C       0.1541    0.728   0.0547     C
C       0.1541    0.772   0.5547     C
O      0.15885  0.70989  0.53998     O
O      0.15885  0.79011  0.03998     O
H       0.1738   0.5904   0.0499     H
H       0.1738   0.9096   0.5499     H
C       0.1837   0.0274   0.2908     C
C       0.1837   0.4726   0.7908     C
C       0.1842   0.1158   0.9736     C
C       0.1842   0.3842   0.4736     C
C       0.1856   0.5262   0.6874     C
C       0.1856   0.9738   0.1874     C
C       0.1874   0.1856   0.9738     C
C       0.1874   0.3144   0.4738     C
O       0.2031  0.09073  0.39084     O
O       0.2031  0.40927  0.89084     O
O      0.20569  0.05046  0.64573     O
O      0.20569  0.44954  0.14573     O
O      0.20601   0.5825  0.58338     O
O      0.20601   0.9175  0.08338     O
C       0.2092   0.6837   0.0274     C
C       0.2092   0.8163   0.5274     C
C       0.2093    0.614     0.03     C
C       0.2093    0.886     0.53     C
O      0.20989  0.53998  0.34115     O
O      0.20989  0.96002  0.84115     O
N      0.21894  0.50069  0.74019     N
N      0.21894  0.99931  0.24019     N
C        0.228   0.0547   0.3459     C
C        0.228   0.4453   0.8459     C
C        0.231   0.5555   0.6342     C
C        0.231   0.9445   0.1342     C
H       0.2346   0.0333   0.0028     H
H       0.2346   0.4667   0.5028     H
C        0.236   0.0803   0.0021     C
C        0.236   0.4197   0.5021     C
N      0.24019  0.21894  0.99931     N
N      0.24019  0.28106  0.49931     N
Gd     0.24631  0.15387  0.49117    Gd
Gd     0.24631  0.34613  0.99117    Gd
Gd     0.25369  0.65387  0.49117    Gd
Gd     0.25369  0.84613  0.99117    Gd
N      0.25981  0.71894  0.99931     N
N      0.25981  0.78106  0.49931     N
C        0.264   0.5803   0.0021     C
C        0.264   0.9197   0.5021     C
H       0.2654   0.5333   0.0028     H
H       0.2654   0.9667   0.5028     H
C        0.269   0.0555   0.6342     C
C        0.269   0.4445   0.1342     C
C        0.272   0.5547   0.3459     C
C        0.272   0.9453   0.8459     C
N      0.28106  0.00069  0.74019     N
N      0.28106  0.49931  0.24019     N
O      0.29011  0.03998  0.34115     O
O      0.29011  0.46002  0.84115     O
C       0.2907    0.114     0.03     C
C       0.2907    0.386     0.53     C
C       0.2908   0.1837   0.0274     C
C       0.2908   0.3163   0.5274     C
O      0.29399   0.0825  0.58338     O
O      0.29399   0.4175  0.08338     O
O      0.29431  0.55046  0.64573     O
O      0.29431  0.94954  0.14573     O
O       0.2969  0.59073  0.39084     O
O       0.2969  0.90927  0.89084     O
C       0.3126   0.6856   0.9738     C
C       0.3126   0.8144   0.4738     C
C       0.3144   0.0262   0.6874     C
C       0.3144   0.4738   0.1874     C
C       0.3158   0.6158   0.9736     C
C       0.3158   0.8842   0.4736     C
C       0.3163   0.5274   0.2908     C
C       0.3163   0.9726   0.7908     C
H       0.3262   0.0904   0.0499     H
H       0.3262   0.4096   0.5499     H
O      0.34115  0.20989  0.53998     O
O      0.34115  0.29011  0.03998     O
C       0.3459    0.228   0.0547     C
C       0.3459    0.272   0.5547     C
Gd     0.34613  0.50883  0.74631    Gd
Gd     0.34613  0.99117  0.24631    Gd
H       0.3525   0.5935   0.9544     H
H       0.3525   0.9065   0.4544     H
O      0.35427  0.70569  0.44954     O
O      0.35427  0.79431  0.94954     O
C       0.3658    0.731   0.9445     C
C       0.3658    0.769   0.4445     C
C       0.3842   0.0264   0.6842     C
C       0.3842   0.4736   0.1842     C
C        0.386     0.53   0.2907     C
C        0.386     0.97   0.7907     C
O      0.39084   0.2031  0.09073     O
O      0.39084   0.2969  0.59073     O
H       0.4065   0.0456   0.6475     H
H       0.4065   0.4544   0.1475     H
O      0.40927  0.60916   0.7031     O
O      0.40927  0.89084   0.2031     O
H       0.4096   0.5499   0.3262     H
H       0.4096   0.9501   0.8262     H
O      0.41662  0.70601   0.9175     O
O      0.41662  0.79399   0.4175     O
O       0.4175  0.08338  0.29399     O
O       0.4175  0.41662  0.79399     O
C       0.4197   0.5021    0.236     C
C       0.4197   0.9979    0.736     C
C       0.4445   0.1342    0.269     C
C       0.4445   0.3658    0.769     C
C       0.4453   0.6541    0.728     C
C       0.4453   0.8459    0.228     C
O      0.44954  0.14573  0.20569     O
O      0.44954  0.35427  0.70569     O
H       0.4501   0.6738   0.5904     H
H       0.4501   0.8262   0.0904     H
H       0.4544   0.1475   0.4065     H
H       0.4544   0.3525   0.9065     H
O      0.46002  0.65885  0.79011     O
O      0.46002  0.84115  0.29011     O
H       0.4667   0.5028   0.2346     H
H       0.4667   0.9972   0.7346     H
C         0.47   0.7093    0.614     C
C         0.47   0.7907    0.114     C
C       0.4726   0.7092   0.6837     C
C       0.4726   0.7908   0.1837     C
C       0.4736   0.1842   0.3842     C
C       0.4736   0.3158   0.8842     C
C       0.4738   0.1874   0.3144     C
C       0.4738   0.3126   0.8144     C
Gd     0.49117  0.24631  0.15387    Gd
Gd     0.49117  0.25369  0.65387    Gd
H       0.4972   0.7346   0.0333     H
H       0.4972   0.7654   0.5333     H
C       0.4979    0.736   0.0803     C
C       0.4979    0.764   0.5803     C
N      0.49931  0.24019  0.28106     N
N      0.49931  0.25981  0.78106     N
N      0.50069  0.74019  0.21894     N
N      0.50069  0.75981  0.71894     N
C       0.5021    0.236   0.4197     C
C       0.5021    0.264   0.9197     C
H       0.5028   0.2346   0.4667     H
H       0.5028   0.2654   0.9667     H
Gd     0.50883  0.74631  0.34613    Gd
Gd     0.50883  0.75369  0.84613    Gd
C       0.5262   0.6874   0.1856     C
C       0.5262   0.8126   0.6856     C
C       0.5264   0.6842   0.1158     C
C       0.5264   0.8158   0.6158     C
C       0.5274   0.2092   0.8163     C
C       0.5274   0.2908   0.3163     C
C         0.53   0.2093    0.886     C
C         0.53   0.2907    0.386     C
H       0.5333   0.0028   0.2654     H
H       0.5333   0.4972   0.7654     H
O      0.53998  0.15885  0.70989     O
O      0.53998  0.34115  0.20989     O
H       0.5456   0.6475   0.0935     H
H       0.5456   0.8525   0.5935     H
H       0.5499   0.1738   0.9096     H
H       0.5499   0.3262   0.4096     H
O      0.55046  0.64573  0.29431     O
O      0.55046  0.85427  0.79431     O
C       0.5547   0.1541    0.772     C
C       0.5547   0.3459    0.272     C
C       0.5555   0.6342    0.231     C
C       0.5555   0.8658    0.731     C
C       0.5803   0.0021    0.264     C
C       0.5803   0.4979    0.764     C
O       0.5825  0.58338  0.20601     O
O       0.5825  0.91662  0.70601     O
O      0.58338  0.20601   0.5825     O
O      0.58338  0.29399   0.0825     O
H       0.5904   0.0499   0.1738     H
H       0.5904   0.4501   0.6738     H
O      0.59073  0.10916   0.7969     O
O      0.59073  0.39084   0.2969     O
H       0.5935   0.5456   0.8525     H
H       0.5935   0.9544   0.3525     H
O      0.60916   0.7031  0.40927     O
O      0.60916   0.7969  0.90927     O
C        0.614     0.03   0.2093     C
C        0.614     0.47   0.7093     C
C       0.6158   0.5264   0.8158     C
C       0.6158   0.9736   0.3158     C
C       0.6342    0.231   0.5555     C
C       0.6342    0.269   0.0555     C
O      0.64573  0.20569  0.05046     O
O      0.64573  0.29431  0.55046     O
H       0.6475   0.0935   0.5456     H
H       0.6475   0.4065   0.0456     H
Gd     0.65387  0.00883  0.75369    Gd
Gd     0.65387  0.49117  0.25369    Gd
C       0.6541    0.728   0.4453     C
C       0.6541    0.772   0.9453     C
O      0.65885  0.70989  0.96002     O
O      0.65885  0.79011  0.46002     O
H       0.6738   0.5904   0.4501     H
H       0.6738   0.9096   0.9501     H
C       0.6837   0.0274   0.2092     C
C       0.6837   0.4726   0.7092     C
C       0.6842   0.1158   0.5264     C
C       0.6842   0.3842   0.0264     C
C       0.6856   0.5262   0.8126     C
C       0.6856   0.9738   0.3126     C
C       0.6874   0.1856   0.5262     C
C       0.6874   0.3144   0.0262     C
O       0.7031  0.09073  0.10916     O
O       0.7031  0.40927  0.60916     O
O      0.70569  0.05046  0.85427     O
O      0.70569  0.44954  0.35427     O
O      0.70601   0.5825  0.91662     O
O      0.70601   0.9175  0.41662     O
C       0.7092   0.6837   0.4726     C
C       0.7092   0.8163   0.9726     C
C       0.7093    0.614     0.47     C
C       0.7093    0.886     0.97     C
O      0.70989  0.53998  0.15885     O
O      0.70989  0.96002  0.65885     O
N      0.71894  0.50069  0.75981     N
N      0.71894  0.99931  0.25981     N
C        0.728   0.0547   0.1541     C
C        0.728   0.4453   0.6541     C
C        0.731   0.5555   0.8658     C
C        0.731   0.9445   0.3658     C
H       0.7346   0.0333   0.4972     H
H       0.7346   0.4667   0.9972     H
C        0.736   0.0803   0.4979     C
C        0.736   0.4197   0.9979     C
N      0.74019  0.21894  0.50069     N
N      0.74019  0.28106  0.00069     N
Gd     0.74631  0.15387  0.00883    Gd
Gd     0.74631  0.34613  0.50883    Gd
Gd     0.75369  0.65387  0.00883    Gd
Gd     0.75369  0.84613  0.50883    Gd
N      0.75981  0.71894  0.50069     N
N      0.75981  0.78106  0.00069     N
C        0.764   0.5803   0.4979     C
C        0.764   0.9197   0.9979     C
H       0.7654   0.5333   0.4972     H
H       0.7654   0.9667   0.9972     H
C        0.769   0.0555   0.8658     C
C        0.769   0.4445   0.3658     C
C        0.772   0.5547   0.1541     C
C        0.772   0.9453   0.6541     C
N      0.78106  0.00069  0.75981     N
N      0.78106  0.49931  0.25981     N
O      0.79011  0.03998  0.15885     O
O      0.79011  0.46002  0.65885     O
C       0.7907    0.114     0.47     C
C       0.7907    0.386     0.97     C
C       0.7908   0.1837   0.4726     C
C       0.7908   0.3163   0.9726     C
O      0.79399   0.0825  0.91662     O
O      0.79399   0.4175  0.41662     O
O      0.79431  0.55046  0.85427     O
O      0.79431  0.94954  0.35427     O
O       0.7969  0.59073  0.10916     O
O       0.7969  0.90927  0.60916     O
C       0.8126   0.6856   0.5262     C
C       0.8126   0.8144   0.0262     C
C       0.8144   0.0262   0.8126     C
C       0.8144   0.4738   0.3126     C
C       0.8158   0.6158   0.5264     C
C       0.8158   0.8842   0.0264     C
C       0.8163   0.5274   0.2092     C
C       0.8163   0.9726   0.7092     C
H       0.8262   0.0904   0.4501     H
H       0.8262   0.4096   0.9501     H
O      0.84115  0.20989  0.96002     O
O      0.84115  0.29011  0.46002     O
C       0.8459    0.228   0.4453     C
C       0.8459    0.272   0.9453     C
Gd     0.84613  0.50883  0.75369    Gd
Gd     0.84613  0.99117  0.25369    Gd
H       0.8525   0.5935   0.5456     H
H       0.8525   0.9065   0.0456     H
O      0.85427  0.70569  0.05046     O
O      0.85427  0.79431  0.55046     O
C       0.8658    0.731   0.5555     C
C       0.8658    0.769   0.0555     C
C       0.8842   0.0264   0.8158     C
C       0.8842   0.4736   0.3158     C
C        0.886     0.53   0.2093     C
C        0.886     0.97   0.7093     C
O      0.89084   0.2031  0.40927     O
O      0.89084   0.2969  0.90927     O
H       0.9065   0.0456   0.8525     H
H       0.9065   0.4544   0.3525     H
O      0.90927  0.60916   0.7969     O
O      0.90927  0.89084   0.2969     O
H       0.9096   0.5499   0.1738     H
H       0.9096   0.9501   0.6738     H
O      0.91662  0.70601   0.5825     O
O      0.91662  0.79399   0.0825     O
O       0.9175  0.08338  0.20601     O
O       0.9175  0.41662  0.70601     O
C       0.9197   0.5021    0.264     C
C       0.9197   0.9979    0.764     C
C       0.9445   0.1342    0.231     C
C       0.9445   0.3658    0.731     C
C       0.9453   0.6541    0.772     C
C       0.9453   0.8459    0.272     C
O      0.94954  0.14573  0.29431     O
O      0.94954  0.35427  0.79431     O
H       0.9501   0.6738   0.9096     H
H       0.9501   0.8262   0.4096     H
H       0.9544   0.1475   0.0935     H
H       0.9544   0.3525   0.5935     H
O      0.96002  0.65885  0.70989     O
O      0.96002  0.84115  0.20989     O
H       0.9667   0.5028   0.2654     H
H       0.9667   0.9972   0.7654     H
C         0.97   0.7093    0.886     C
C         0.97   0.7907    0.386     C
C       0.9726   0.7092   0.8163     C
C       0.9726   0.7908   0.3163     C
C       0.9736   0.1842   0.1158     C
C       0.9736   0.3158   0.6158     C
C       0.9738   0.1874   0.1856     C
C       0.9738   0.3126   0.6856     C
Gd     0.99117  0.24631  0.34613    Gd
Gd     0.99117  0.25369  0.84613    Gd
H       0.9972   0.7346   0.4667     H
H       0.9972   0.7654   0.9667     H
C       0.9979    0.736   0.4197     C
C       0.9979    0.764   0.9197     C
N      0.99931  0.24019  0.21894     N
N      0.99931  0.25981  0.71894     N
