data_I
_chemical_name_common  '/home/zhangsd/repos/MofS-CGCNN/ML/data/TSD/clean_cifs/SALXIP_clean'
_cell_length_a 25.86270
_cell_length_b 25.86270
_cell_length_c 25.45910
_cell_angle_alpha 90.00000
_cell_angle_beta  90.00000
_cell_angle_gamma 120.00000
_space_group_name_H-M_alt      'P 1'


loop_
_space_group_symop_operation_xyz
  'x, y, z' 

loop_
_atom_site_label
_atom_site_fract_x
_atom_site_fract_y
_atom_site_fract_z
_atom_site_type_symbol
O       0.0007   0.4413  0.65422     O
O       0.0007   0.4413  0.84578     O
O       0.0007   0.5594  0.65422     O
O       0.0007   0.5594  0.84578     O
O       0.0183   0.4365   0.5474     O
O       0.0183   0.4365   0.9526     O
O       0.0183   0.5818   0.5474     O
O       0.0183   0.5818   0.9526     O
Ce     0.03994  0.51997  0.59957    Ce
Ce     0.03994  0.51997  0.90043    Ce
O       0.0474   0.4332     0.25     O
O       0.0474   0.6142     0.25     O
C       0.0494   0.4415    0.155     C
C       0.0494   0.4415    0.345     C
C       0.0494   0.6079    0.155     C
C       0.0494   0.6079    0.345     C
O        0.065   0.5325   0.0756     O
O        0.065   0.5325   0.4244     O
C       0.0771   0.4322   0.2043     C
C       0.0771   0.4322   0.2957     C
C       0.0771   0.6449   0.2043     C
C       0.0771   0.6449   0.2957     C
O       0.0815   0.4527  0.11266     O
O       0.0815   0.4527  0.38734     O
O       0.0815   0.6288  0.11266     O
O       0.0815   0.6288  0.38734     O
Ce     0.08357  0.46705   0.0243    Ce
Ce     0.08357  0.46705   0.4757    Ce
Ce     0.08357  0.61652   0.0243    Ce
Ce     0.08357  0.61652   0.4757    Ce
O       0.1006   0.5503   0.5255     O
O       0.1006   0.5503   0.9745     O
O      0.11783   0.4968  0.60917     O
O      0.11783   0.4968  0.89083     O
O      0.11783  0.62103  0.60917     O
O      0.11783  0.62103  0.89083     O
C       0.1248   0.4284   0.2226     C
C       0.1248   0.4284   0.2774     C
C       0.1248   0.6964   0.2226     C
C       0.1248   0.6964   0.2774     C
O       0.1507   0.4748  0.53667     O
O       0.1507   0.4748  0.96333     O
O       0.1507   0.6759  0.53667     O
O       0.1507   0.6759  0.96333     O
C       0.1575   0.4889  0.58485     C
C       0.1575   0.4889  0.91515     C
C       0.1575   0.6686  0.58485     C
C       0.1575   0.6686  0.91515     C
C       0.2035   0.5004  0.62635     C
C       0.2035   0.5004  0.87365     C
C       0.2035   0.7031  0.62635     C
C       0.2035   0.7031  0.87365     C
C       0.2255   0.5034   0.6774     C
C       0.2255   0.5034   0.8226     C
C       0.2255   0.7221   0.6774     C
C       0.2255   0.7221   0.8226     C
O       0.2462   0.4924   0.5981     O
O       0.2462   0.4924   0.9019     O
O       0.2462   0.7538   0.5981     O
O       0.2462   0.7538   0.9019     O
C       0.2779   0.5034   0.6774     C
C       0.2779   0.5034   0.8226     C
C       0.2779   0.7745   0.6774     C
C       0.2779   0.7745   0.8226     C
C       0.2969   0.5004  0.62635     C
C       0.2969   0.5004  0.87365     C
C       0.2969   0.7965  0.62635     C
C       0.2969   0.7965  0.87365     C
C       0.3036   0.4284   0.2226     C
C       0.3036   0.4284   0.2774     C
C       0.3036   0.8752   0.2226     C
C       0.3036   0.8752   0.2774     C
O       0.3241   0.4748  0.53667     O
O       0.3241   0.4748  0.96333     O
O       0.3241   0.8493  0.53667     O
O       0.3241   0.8493  0.96333     O
C       0.3314   0.4889  0.58485     C
C       0.3314   0.4889  0.91515     C
C       0.3314   0.8425  0.58485     C
C       0.3314   0.8425  0.91515     C
C       0.3551   0.4322   0.2043     C
C       0.3551   0.4322   0.2957     C
C       0.3551   0.9229   0.2043     C
C       0.3551   0.9229   0.2957     C
O       0.3712   0.4527  0.11266     O
O       0.3712   0.4527  0.38734     O
O       0.3712   0.9185  0.11266     O
O       0.3712   0.9185  0.38734     O
O      0.37897   0.4968  0.60917     O
O      0.37897   0.4968  0.89083     O
O      0.37897  0.88217  0.60917     O
O      0.37897  0.88217  0.89083     O
Ce     0.38348  0.46705   0.0243    Ce
Ce     0.38348  0.46705   0.4757    Ce
Ce     0.38348  0.91643   0.0243    Ce
Ce     0.38348  0.91643   0.4757    Ce
O       0.3858   0.4332     0.25     O
O       0.3858   0.9526     0.25     O
C       0.3921   0.4415    0.155     C
C       0.3921   0.4415    0.345     C
C       0.3921   0.9506    0.155     C
C       0.3921   0.9506    0.345     C
O       0.4182   0.4365   0.5474     O
O       0.4182   0.4365   0.9526     O
O       0.4182   0.9817   0.5474     O
O       0.4182   0.9817   0.9526     O
C       0.4284   0.1248   0.7226     C
C       0.4284   0.1248   0.7774     C
C       0.4284   0.3036   0.7226     C
C       0.4284   0.3036   0.7774     C
C       0.4322   0.0771   0.7043     C
C       0.4322   0.0771   0.7957     C
C       0.4322   0.3551   0.7043     C
C       0.4322   0.3551   0.7957     C
O       0.4332   0.0474     0.75     O
O       0.4332   0.3858     0.75     O
O       0.4365   0.0183   0.0474     O
O       0.4365   0.0183   0.4526     O
O       0.4365   0.4182   0.0474     O
O       0.4365   0.4182   0.4526     O
O       0.4406   0.4413  0.65422     O
O       0.4406   0.4413  0.84578     O
O       0.4406   0.9993  0.65422     O
O       0.4406   0.9993  0.84578     O
O       0.4413   0.0007  0.15422     O
O       0.4413   0.0007  0.34578     O
O       0.4413   0.4406  0.15422     O
O       0.4413   0.4406  0.34578     O
C       0.4415   0.0494    0.655     C
C       0.4415   0.0494    0.845     C
C       0.4415   0.3921    0.655     C
C       0.4415   0.3921    0.845     C
O       0.4497   0.5503   0.5255     O
O       0.4497   0.5503   0.9745     O
O       0.4497   0.8994   0.5255     O
O       0.4497   0.8994   0.9745     O
O       0.4527   0.0815  0.61266     O
O       0.4527   0.0815  0.88734     O
O       0.4527   0.3712  0.61266     O
O       0.4527   0.3712  0.88734     O
Ce     0.46705  0.08357   0.5243    Ce
Ce     0.46705  0.08357   0.9757    Ce
Ce     0.46705  0.38348   0.5243    Ce
Ce     0.46705  0.38348   0.9757    Ce
O       0.4675   0.5325   0.0756     O
O       0.4675   0.5325   0.4244     O
O       0.4675    0.935   0.0756     O
O       0.4675    0.935   0.4244     O
O       0.4748   0.1507  0.03667     O
O       0.4748   0.1507  0.46333     O
O       0.4748   0.3241  0.03667     O
O       0.4748   0.3241  0.46333     O
Ce     0.48003  0.51997  0.59957    Ce
Ce     0.48003  0.51997  0.90043    Ce
Ce     0.48003  0.96006  0.59957    Ce
Ce     0.48003  0.96006  0.90043    Ce
C       0.4889   0.1575  0.08485     C
C       0.4889   0.1575  0.41515     C
C       0.4889   0.3314  0.08485     C
C       0.4889   0.3314  0.41515     C
O       0.4924   0.2462   0.0981     O
O       0.4924   0.2462   0.4019     O
C       0.4966   0.7221   0.6774     C
C       0.4966   0.7221   0.8226     C
C       0.4966   0.7745   0.6774     C
C       0.4966   0.7745   0.8226     C
O       0.4968  0.11783  0.10917     O
O       0.4968  0.11783  0.39083     O
O       0.4968  0.37897  0.10917     O
O       0.4968  0.37897  0.39083     O
C       0.4996   0.7031  0.62635     C
C       0.4996   0.7031  0.87365     C
C       0.4996   0.7965  0.62635     C
C       0.4996   0.7965  0.87365     C
C       0.5004   0.2035  0.12635     C
C       0.5004   0.2035  0.37365     C
C       0.5004   0.2969  0.12635     C
C       0.5004   0.2969  0.37365     C
O       0.5032  0.62103  0.60917     O
O       0.5032  0.62103  0.89083     O
O       0.5032  0.88217  0.60917     O
O       0.5032  0.88217  0.89083     O
C       0.5034   0.2255   0.1774     C
C       0.5034   0.2255   0.3226     C
C       0.5034   0.2779   0.1774     C
C       0.5034   0.2779   0.3226     C
O       0.5076   0.7538   0.5981     O
O       0.5076   0.7538   0.9019     O
C       0.5111   0.6686  0.58485     C
C       0.5111   0.6686  0.91515     C
C       0.5111   0.8425  0.58485     C
C       0.5111   0.8425  0.91515     C
Ce     0.51997  0.03994  0.09957    Ce
Ce     0.51997  0.03994  0.40043    Ce
Ce     0.51997  0.48003  0.09957    Ce
Ce     0.51997  0.48003  0.40043    Ce
O       0.5252   0.6759  0.53667     O
O       0.5252   0.6759  0.96333     O
O       0.5252   0.8493  0.53667     O
O       0.5252   0.8493  0.96333     O
O       0.5325    0.065   0.5756     O
O       0.5325    0.065   0.9244     O
O       0.5325   0.4675   0.5756     O
O       0.5325   0.4675   0.9244     O
Ce     0.53295  0.61652   0.0243    Ce
Ce     0.53295  0.61652   0.4757    Ce
Ce     0.53295  0.91643   0.0243    Ce
Ce     0.53295  0.91643   0.4757    Ce
O       0.5473   0.6288  0.11266     O
O       0.5473   0.6288  0.38734     O
O       0.5473   0.9185  0.11266     O
O       0.5473   0.9185  0.38734     O
O       0.5503   0.1006   0.0255     O
O       0.5503   0.1006   0.4745     O
O       0.5503   0.4497   0.0255     O
O       0.5503   0.4497   0.4745     O
C       0.5585   0.6079    0.155     C
C       0.5585   0.6079    0.345     C
C       0.5585   0.9506    0.155     C
C       0.5585   0.9506    0.345     C
O       0.5587   0.5594  0.65422     O
O       0.5587   0.5594  0.84578     O
O       0.5587   0.9993  0.65422     O
O       0.5587   0.9993  0.84578     O
O       0.5594   0.0007  0.15422     O
O       0.5594   0.0007  0.34578     O
O       0.5594   0.5587  0.15422     O
O       0.5594   0.5587  0.34578     O
O       0.5635   0.5818   0.5474     O
O       0.5635   0.5818   0.9526     O
O       0.5635   0.9817   0.5474     O
O       0.5635   0.9817   0.9526     O
O       0.5668   0.6142     0.25     O
O       0.5668   0.9526     0.25     O
C       0.5678   0.6449   0.2043     C
C       0.5678   0.6449   0.2957     C
C       0.5678   0.9229   0.2043     C
C       0.5678   0.9229   0.2957     C
C       0.5716   0.6964   0.2226     C
C       0.5716   0.6964   0.2774     C
C       0.5716   0.8752   0.2226     C
C       0.5716   0.8752   0.2774     C
O       0.5818   0.0183   0.0474     O
O       0.5818   0.0183   0.4526     O
O       0.5818   0.5635   0.0474     O
O       0.5818   0.5635   0.4526     O
C       0.6079   0.0494    0.655     C
C       0.6079   0.0494    0.845     C
C       0.6079   0.5585    0.655     C
C       0.6079   0.5585    0.845     C
O       0.6142   0.0474     0.75     O
O       0.6142   0.5668     0.75     O
Ce     0.61652  0.08357   0.5243    Ce
Ce     0.61652  0.08357   0.9757    Ce
Ce     0.61652  0.53295   0.5243    Ce
Ce     0.61652  0.53295   0.9757    Ce
O      0.62103  0.11783  0.10917     O
O      0.62103  0.11783  0.39083     O
O      0.62103   0.5032  0.10917     O
O      0.62103   0.5032  0.39083     O
O       0.6288   0.0815  0.61266     O
O       0.6288   0.0815  0.88734     O
O       0.6288   0.5473  0.61266     O
O       0.6288   0.5473  0.88734     O
C       0.6449   0.0771   0.7043     C
C       0.6449   0.0771   0.7957     C
C       0.6449   0.5678   0.7043     C
C       0.6449   0.5678   0.7957     C
C       0.6686   0.1575  0.08485     C
C       0.6686   0.1575  0.41515     C
C       0.6686   0.5111  0.08485     C
C       0.6686   0.5111  0.41515     C
O       0.6759   0.1507  0.03667     O
O       0.6759   0.1507  0.46333     O
O       0.6759   0.5252  0.03667     O
O       0.6759   0.5252  0.46333     O
C       0.6964   0.1248   0.7226     C
C       0.6964   0.1248   0.7774     C
C       0.6964   0.5716   0.7226     C
C       0.6964   0.5716   0.7774     C
C       0.7031   0.2035  0.12635     C
C       0.7031   0.2035  0.37365     C
C       0.7031   0.4996  0.12635     C
C       0.7031   0.4996  0.37365     C
C       0.7221   0.2255   0.1774     C
C       0.7221   0.2255   0.3226     C
C       0.7221   0.4966   0.1774     C
C       0.7221   0.4966   0.3226     C
O       0.7538   0.2462   0.0981     O
O       0.7538   0.2462   0.4019     O
O       0.7538   0.5076   0.0981     O
O       0.7538   0.5076   0.4019     O
C       0.7745   0.2779   0.1774     C
C       0.7745   0.2779   0.3226     C
C       0.7745   0.4966   0.1774     C
C       0.7745   0.4966   0.3226     C
C       0.7965   0.2969  0.12635     C
C       0.7965   0.2969  0.37365     C
C       0.7965   0.4996  0.12635     C
C       0.7965   0.4996  0.37365     C
C       0.8425   0.3314  0.08485     C
C       0.8425   0.3314  0.41515     C
C       0.8425   0.5111  0.08485     C
C       0.8425   0.5111  0.41515     C
O       0.8493   0.3241  0.03667     O
O       0.8493   0.3241  0.46333     O
O       0.8493   0.5252  0.03667     O
O       0.8493   0.5252  0.46333     O
C       0.8752   0.3036   0.7226     C
C       0.8752   0.3036   0.7774     C
C       0.8752   0.5716   0.7226     C
C       0.8752   0.5716   0.7774     C
O      0.88217  0.37897  0.10917     O
O      0.88217  0.37897  0.39083     O
O      0.88217   0.5032  0.10917     O
O      0.88217   0.5032  0.39083     O
O       0.8994   0.4497   0.0255     O
O       0.8994   0.4497   0.4745     O
Ce     0.91643  0.38348   0.5243    Ce
Ce     0.91643  0.38348   0.9757    Ce
Ce     0.91643  0.53295   0.5243    Ce
Ce     0.91643  0.53295   0.9757    Ce
O       0.9185   0.3712  0.61266     O
O       0.9185   0.3712  0.88734     O
O       0.9185   0.5473  0.61266     O
O       0.9185   0.5473  0.88734     O
C       0.9229   0.3551   0.7043     C
C       0.9229   0.3551   0.7957     C
C       0.9229   0.5678   0.7043     C
C       0.9229   0.5678   0.7957     C
O        0.935   0.4675   0.5756     O
O        0.935   0.4675   0.9244     O
C       0.9506   0.3921    0.655     C
C       0.9506   0.3921    0.845     C
C       0.9506   0.5585    0.655     C
C       0.9506   0.5585    0.845     C
O       0.9526   0.3858     0.75     O
O       0.9526   0.5668     0.75     O
Ce     0.96006  0.48003  0.09957    Ce
Ce     0.96006  0.48003  0.40043    Ce
O       0.9817   0.4182   0.0474     O
O       0.9817   0.4182   0.4526     O
O       0.9817   0.5635   0.0474     O
O       0.9817   0.5635   0.4526     O
O       0.9993   0.4406  0.15422     O
O       0.9993   0.4406  0.34578     O
O       0.9993   0.5587  0.15422     O
O       0.9993   0.5587  0.34578     O
