data_I
_chemical_name_common  '/home/zhangsd/repos/MofS-CGCNN/ML/data/TSD/clean_cifs/SAMLAV_manual'
_cell_length_a  7.44660
_cell_length_b 14.38210
_cell_length_c 20.91400
_cell_angle_alpha 90.00000
_cell_angle_beta  90.00000
_cell_angle_gamma 90.00000
_space_group_name_H-M_alt      'P 1'


loop_
_space_group_symop_operation_xyz
  'x, y, z' 

loop_
_atom_site_label
_atom_site_fract_x
_atom_site_fract_y
_atom_site_fract_z
_atom_site_type_symbol
C      0.08246  0.97356  0.91094     C
C      0.08292  0.82306  0.95301     C
C      0.08492  0.03553  0.09288     C
C        0.086  0.17869  0.04005     C
C      0.08766  0.53512  0.40809     C
C      0.08885   0.6791  0.45985     C
C      0.09449  0.31981  0.54092     C
C      0.09471   0.4641  0.59232     C
H      0.15201  0.03399  0.89305     H
H      0.15394  0.76173  0.96902     H
H       0.1545  0.97819  0.11508     H
H       0.1571  0.23727  0.01979     H
H      0.15721  0.47736  0.38638     H
H      0.16004  0.73796  0.47969     H
H      0.16517  0.52148  0.61434     H
H      0.16518  0.26068  0.52125     H
N      0.17912  0.89818   0.9317     N
N       0.1819  0.10733  0.06704     N
N      0.18468  0.60726  0.43342     N
N      0.19092  0.39168  0.56703     N
O      0.21223  0.91567  0.74196     O
N      0.33885  0.89808  0.70081     N
O      0.36713  0.95675  0.65453     O
H      0.38033  0.79646  0.59617     H
H      0.38082  0.05575  0.81346     H
H      0.39262  0.13355  0.70979     H
H      0.39286    0.946  0.18794     H
H      0.39348  0.44579  0.31274     H
H       0.4022  0.36802  0.20931     H
H       0.4047  0.86825  0.29133     H
C      0.41847  0.80724  0.69851     C
C       0.4282  0.76099  0.63857     C
C       0.4357  0.12491  0.81131     C
C      0.44181  0.87567  0.18952     C
C      0.44184  0.17017  0.75147     C
C      0.44335  0.37565  0.31091     C
C      0.44735  0.33027  0.25113     C
C      0.44761  0.83031   0.2493     C
C      0.47875  0.76209  0.75527     C
C      0.48344  0.80993  0.81992     C
O      0.48531  0.76696  0.87305     O
Cd     0.48697  0.89034  0.92446    Cd
O      0.48744  0.89742  0.82654     O
O      0.48811  0.03197  0.93674     O
O      0.48859  0.83198  0.01599     O
C      0.48891  0.87914  0.06834     C
O      0.48896  0.96804  0.06407     O
C      0.48948  0.12078  0.93205     C
Cd     0.49001  0.11007  0.07558    Cd
O      0.49007  0.23305  0.12745     O
C      0.49065  0.66888  0.63301     C
O      0.49118  0.16825  0.98418     O
O      0.49215  0.66746   0.5165     O
C      0.49218  0.83022  0.13265     C
O      0.49256  0.73294  0.37285     O
Cd     0.49269  0.60996  0.42482    Cd
C      0.49341  0.16923  0.86768     C
O      0.49406  0.46804   0.4362     O
C      0.49435  0.62013  0.56872     C
C      0.49521  0.37917  0.43181     C
O      0.49628  0.53127  0.56432     O
C      0.49671  0.33038  0.36749     C
O      0.49732  0.10236  0.17337     O
C      0.49762  0.18976  0.18037     C
O      0.49824  0.33188  0.48405     O
O      0.49829  0.60222  0.32697     O
O       0.4983  0.39702   0.6737     O
Cd     0.49848  0.38937  0.57575    Cd
C      0.49862  0.68962  0.31991     C
O      0.49958  0.26634  0.62752     O
C      0.50169  0.30955  0.68054     C
C      0.50342  0.73703  0.25504     C
C      0.50421   0.2372  0.24515     C
C      0.50594  0.26194  0.74528     C
C       0.5416  0.67007  0.74928     C
C      0.54734  0.73679  0.13793     C
C       0.5474  0.62459  0.68953     C
C      0.55297  0.23717  0.36197     C
C      0.55628  0.69042  0.19787     C
C      0.55702   0.2611  0.86193     C
C      0.56008   0.1908  0.30203     C
C      0.56706   0.3071  0.80192     C
O      0.58455  0.53882  0.15461     O
H      0.58959  0.70012  0.09527     H
H      0.59008  0.63342  0.79106     H
O       0.5923  0.03932  0.34513     O
H      0.59749  0.20067  0.40441     H
H      0.60115  0.55522  0.68761     H
H      0.60558  0.29653  0.90424     H
O      0.62076  0.45653  0.84566     O
N      0.62635  0.59746  0.19959     N
N      0.63141  0.09812  0.29994     N
N      0.64781  0.39767  0.79941     N
O      0.75666  0.57685  0.23855     O
O      0.76032  0.07798  0.26028     O
O      0.77419  0.41475  0.75807     O
N      0.79456  0.89777   0.9314     N
N      0.79732   0.1073  0.06642     N
N       0.8001   0.6075  0.43387     N
N      0.80635  0.39219  0.56682     N
H      0.82035  0.76149    0.969     H
H      0.82054  0.03316  0.89196     H
H       0.8227  0.97878  0.11533     H
H      0.82325  0.23731  0.01931     H
H      0.82551  0.47823  0.38586     H
H       0.8261  0.73816  0.48009     H
H      0.83122    0.261  0.52124     H
H      0.83355  0.52246  0.61338     H
C      0.89071  0.97324  0.91057     C
C      0.89108  0.82289  0.95294     C
C       0.8934  0.03564  0.09275     C
C      0.89384  0.17867  0.03971     C
C      0.89616  0.53539  0.40809     C
C      0.89667   0.6792  0.46011     C
C      0.90231  0.32003  0.54088     C
C      0.90322   0.4645  0.59199     C
