data_I
_chemical_name_common  '/home/zhangsd/repos/MofS-CGCNN/ML/data/TSD/clean_cifs/SAQQAD_clean'
_cell_length_a 15.29940
_cell_length_b 15.29940
_cell_length_c 18.49040
_cell_angle_alpha 75.71840
_cell_angle_beta  75.71840
_cell_angle_gamma 68.13240
_space_group_name_H-M_alt      'P 1'


loop_
_space_group_symop_operation_xyz
  'x, y, z' 

loop_
_atom_site_label
_atom_site_fract_x
_atom_site_fract_y
_atom_site_fract_z
_atom_site_type_symbol
C       0.0058   0.5462   0.4997     C
C       0.0083   0.8333   0.0845     C
O      0.00939  0.12299   0.8624     O
O      0.01114  0.87534    0.017     O
C       0.0119   0.2895   0.5574     C
C      0.01466  0.15286   0.2128     C
H       0.0157   0.7131   0.2153     H
C       0.0167   0.5955   0.7711     C
C       0.0172   0.7304   0.1031     C
C       0.0179   0.6819   0.1773     C
H       0.0192   0.5578    0.245     H
C       0.0216   0.5882   0.1947     C
C       0.0219   0.3755   0.5574     C
C       0.0222   0.6866   0.7536     C
O      0.02279  0.87279   0.7209     O
C       0.0235   0.7237    0.499     C
C       0.0239   0.2497   0.1954     C
O      0.02478  0.87738   0.4402     O
C       0.0268   0.6804   0.0479     C
C       0.0289   0.5375   0.1401     C
H       0.0297   0.2389   0.5968     H
H       0.0307   0.7105   0.9976     H
C       0.0308   0.5872   0.0657     C
C      0.03147  0.81787   0.4997     C
C       0.0329   0.4363   0.1588     C
H       0.0349   0.5559   0.0273     H
Tb     0.03858  0.95646  0.89596    Tb
O      0.04066  0.10446   0.1596     O
Tb     0.04354  0.96142  0.60404    Tb
O      0.04357  0.83057   0.5607     O
H       0.0463   0.5547   0.7359     H
C        0.047   0.5572   0.5541     C
H       0.0474   0.3814    0.596     H
C       0.0538   0.6444   0.5544     C
H       0.0571   0.7057   0.7075     H
H       0.0702   0.5052   0.5909     H
C       0.0749   0.2807   0.1264     C
C       0.0795   0.3735   0.1088     C
H       0.0795   0.6505   0.5929     H
O      0.10446  0.04066   0.6596     O
H       0.1063   0.2393   0.0917     H
H       0.1143   0.3929   0.0628     H
O      0.12262  0.97522   0.0598     O
O      0.12299  0.00939   0.3624     O
O      0.12466  0.98886    0.483     O
O      0.12721  0.97721   0.7791     O
C      0.15286  0.01466   0.7128     C
C       0.1667   0.9917   0.4155     C
O      0.16943  0.95643   0.9393     O
C      0.18213  0.96853   0.0003     C
H       0.2389   0.0297   0.0968     H
H       0.2393   0.1063   0.5917     H
C       0.2497   0.0239   0.6954     C
C       0.2696   0.9828   0.3969     C
C       0.2763   0.9765    0.001     C
C       0.2807   0.0749   0.6264     C
H       0.2869   0.9843   0.2847     H
C       0.2895   0.0119   0.0574     C
H       0.2895   0.9693   0.5024     H
H       0.2943   0.9429   0.7925     H
C       0.3134   0.9778   0.7464     C
C       0.3181   0.9821   0.3227     C
C       0.3196   0.9732   0.4521     C
H       0.3495   0.9205   0.9071     H
C       0.3556   0.9462   0.9456     C
C       0.3735   0.0795   0.6088     C
C       0.3755   0.0219   0.0574     C
H       0.3814   0.0474    0.096     H
H       0.3929   0.1143   0.5628     H
C       0.4045   0.9833   0.7289     C
C       0.4118   0.9784   0.3053     C
C       0.4128   0.9692   0.4343     C
C       0.4363   0.0329   0.6588     C
H       0.4422   0.9808    0.255     H
C       0.4428    0.953   0.9459     C
H       0.4441   0.9651   0.4727     H
H       0.4453   0.9537   0.7641     H
C       0.4538   0.9942   0.0003     C
C       0.4625   0.9711   0.3599     C
H       0.4948   0.9298   0.9091     H
H       0.5052   0.0702   0.0909     H
C       0.5375   0.0289   0.6401     C
C       0.5462   0.0058   0.9997     C
H       0.5547   0.0463   0.2359     H
H       0.5559   0.0349   0.5273     H
C       0.5572    0.047   0.0541     C
H       0.5578   0.0192    0.745     H
C       0.5637   0.9671   0.3412     C
C       0.5872   0.0308   0.5657     C
C       0.5882   0.0216   0.6947     C
C       0.5955   0.0167   0.2711     C
H       0.6071   0.8857   0.4372     H
H       0.6186   0.9526    0.904     H
C       0.6245   0.9781   0.9426     C
C       0.6265   0.9205   0.3912     C
C       0.6444   0.0538   0.0544     C
H       0.6505   0.0795   0.0929     H
C       0.6804   0.0268   0.5479     C
C       0.6819   0.0179   0.6773     C
C       0.6866   0.0222   0.2536     C
H       0.7057   0.0571   0.2075     H
H       0.7105   0.0307   0.4976     H
C       0.7105   0.9881   0.9426     C
H       0.7131   0.0157   0.7153     H
C       0.7193   0.9251   0.3736     C
C       0.7237   0.0235    0.999     C
C       0.7304   0.0172   0.6031     C
C       0.7503   0.9761   0.3046     C
H       0.7607   0.8937   0.4083     H
H       0.7611   0.9703   0.9032     H
C      0.81787  0.03147   0.9997     C
O      0.83057  0.04357   0.0607     O
C       0.8333   0.0083   0.5845     C
C      0.84714  0.98534   0.2872     C
O      0.87279  0.02279   0.2209     O
O      0.87534  0.01114    0.517     O
O      0.87701  0.99061   0.6376     O
O      0.87738  0.02478   0.9402     O
H       0.8857   0.6071   0.9372     H
H       0.8937   0.7607   0.9083     H
O      0.89554  0.95934   0.3404     O
H       0.9205   0.3495   0.4071     H
C       0.9205   0.6265   0.8912     C
C       0.9251   0.7193   0.8736     C
H       0.9298   0.4948   0.4091     H
H       0.9429   0.2943   0.2925     H
C       0.9462   0.3556   0.4456     C
H       0.9526   0.6186    0.404     H
C        0.953   0.4428   0.4459     C
H       0.9537   0.4453   0.2641     H
O      0.95643  0.16943   0.4393     O
Tb     0.95646  0.03858  0.39596    Tb
O      0.95934  0.89554   0.8404     O
Tb     0.96142  0.04354  0.10404    Tb
H       0.9651   0.4441   0.9727     H
C       0.9671   0.5637   0.8412     C
C      0.96853  0.18213   0.5003     C
C       0.9692   0.4128   0.9343     C
H       0.9693   0.2895   0.0024     H
H       0.9703   0.7611   0.4032     H
C       0.9711   0.4625   0.8599     C
C       0.9732   0.3196   0.9521     C
O      0.97522  0.12262   0.5598     O
C       0.9761   0.7503   0.8046     C
C       0.9765   0.2763    0.501     C
O      0.97721  0.12721   0.2791     O
C       0.9778   0.3134   0.2464     C
C       0.9781   0.6245   0.4426     C
C       0.9784   0.4118   0.8053     C
H       0.9808   0.4422    0.755     H
C       0.9821   0.3181   0.8227     C
C       0.9828   0.2696   0.8969     C
C       0.9833   0.4045   0.2289     C
H       0.9843   0.2869   0.7847     H
C      0.98534  0.84714   0.7872     C
C       0.9881   0.7105   0.4426     C
O      0.98886  0.12466    0.983     O
O      0.99061  0.87701   0.1376     O
C       0.9917   0.1667   0.9155     C
C       0.9942   0.4538   0.5003     C
