data_I
_chemical_name_common  '/home/zhangsd/repos/MofS-CGCNN/ML/data/TSD/clean_cifs/SAQZOB_clean'
_cell_length_a 15.55000
_cell_length_b 24.92100
_cell_length_c 25.28200
_cell_angle_alpha 90.00000
_cell_angle_beta  90.00500
_cell_angle_gamma 90.00000
_space_group_name_H-M_alt      'P 1'


loop_
_space_group_symop_operation_xyz
  'x, y, z' 

loop_
_atom_site_label
_atom_site_fract_x
_atom_site_fract_y
_atom_site_fract_z
_atom_site_type_symbol
H       0.0036   0.5947   0.8859     H
H       0.0036   0.9053   0.3859     H
C       0.0048   0.5158    0.114     C
C       0.0048   0.9842    0.614     C
C       0.0094   0.5546   0.2022     C
C       0.0094   0.9454   0.7022     C
H       0.0132   0.5285   0.0773     H
H       0.0132   0.9715   0.5773     H
H       0.0158   0.6731   0.5437     H
H       0.0158   0.8269   0.0437     H
O       0.0163    0.063  0.34932     O
O       0.0163    0.437  0.84932     O
C       0.0192   0.2487    0.446     C
C       0.0192   0.2513    0.946     C
C       0.0277   0.0357   0.2076     C
C       0.0277   0.4643   0.7076     C
O       0.0297  0.51382  0.39585     O
O       0.0297  0.98618  0.89585     O
C       0.0308   0.1958   0.9469     C
C       0.0308   0.3042   0.4469     C
H       0.0444   0.5788   0.9419     H
H       0.0444   0.9212   0.4419     H
H       0.0451   0.1625   0.5112     H
H       0.0451   0.3375   0.0112     H
H       0.0465    0.103   0.4867     H
H       0.0465    0.397   0.9867     H
C       0.0539   0.0459    0.259     C
C       0.0539   0.4541    0.759     C
C        0.055   0.5801   0.9036     C
C        0.055   0.9199   0.4036     C
H       0.0581   0.0024   0.6258     H
H       0.0581   0.4976   0.1258     H
C       0.0587   0.5347   0.3057     C
C       0.0587   0.9653   0.8057     C
O       0.0597  0.08388   0.9486     O
O       0.0597  0.41612   0.4486     O
H       0.0664   0.6941   0.0227     H
H       0.0664   0.8059   0.5227     H
Cd     0.06843  0.55258  0.58414    Cd
Cd     0.06843  0.94742  0.08414    Cd
C       0.0691    0.725   0.0473     C
C       0.0691    0.775   0.5473     C
H       0.0696   0.0292    0.181     H
H       0.0696   0.4708    0.681     H
C       0.0723    0.523    0.883     C
C       0.0723    0.977    0.383     C
C        0.077   0.1379   0.4876     C
C        0.077   0.3621   0.9876     C
O       0.0819  0.16155  0.43202     O
O       0.0819  0.33845  0.93202     O
C       0.0861   0.5214   0.3599     C
C       0.0861   0.9786   0.8599     C
C       0.0906   0.2163   0.4329     C
C       0.0906   0.2837   0.9329     C
H       0.0912   0.5255   0.8457     H
H       0.0912   0.9745   0.3457     H
C        0.096   0.5576   0.2148     C
C        0.096   0.9424   0.7148     C
H       0.0977   0.7193   0.6356     H
H       0.0977   0.7807   0.1356     H
C        0.104   0.7066   0.1004     C
C        0.104   0.7934   0.6004     C
H       0.1042    0.603   0.8962     H
H       0.1042    0.897   0.3962     H
H       0.1082   0.7478   0.5318     H
H       0.1082   0.7522   0.0318     H
C       0.1095   0.7439   0.1421     C
C       0.1095   0.7561   0.6421     C
C       0.1102   0.1734   0.9343     C
C       0.1102   0.3266   0.4343     C
H       0.1204   0.5075   0.9036     H
H       0.1204   0.9925   0.4036     H
C       0.1205   0.5471   0.2668     C
C       0.1205   0.9529   0.7668     C
O       0.1218  0.57283  0.49493     O
O       0.1218  0.92717  0.99493     O
C       0.1237   0.1144   0.9392     C
C       0.1237   0.3856   0.4392     C
O       0.1268  0.61728  0.06941     O
C       0.1268   0.6538   0.1103     C
C       0.1268   0.8462   0.6103     C
O       0.1268  0.88272  0.56941     O
H       0.1282   0.1366   0.2088     H
H       0.1282   0.3634   0.7088     H
C       0.1317   0.7275   0.1916     C
C       0.1317   0.7725   0.6916     C
H       0.1321   0.0698     0.56     H
H       0.1321   0.4302     0.06     H
H        0.133   0.1279   0.5871     H
H        0.133   0.3721   0.0871     H
H       0.1355   0.7472   0.7196     H
H       0.1355   0.7528   0.2196     H
O       0.1407  0.03576   0.0443     O
O       0.1407  0.46424   0.5443     O
C       0.1465   0.6362   0.1615     C
C       0.1465   0.8638   0.6615     C
C       0.1488   0.0521   0.2717     C
C       0.1488   0.4479   0.7717     C
C       0.1489   0.6734    0.201     C
C       0.1489   0.8266    0.701     C
C       0.1503   0.1481    0.242     C
C       0.1503   0.3519    0.742     C
H       0.1515   0.2265   0.2235     H
H       0.1515   0.2735   0.7235     H
Cd     0.15318  0.00752  0.95733    Cd
Cd     0.15318  0.49248  0.45733    Cd
H       0.1544   0.5558   0.1413     H
H       0.1544   0.9442   0.6413     H
O       0.1558  0.62464   0.5622     O
O       0.1558  0.87536   0.0622     O
C       0.1605   0.5772    0.174     C
C       0.1605   0.9228    0.674     C
H       0.1627   0.6622   0.2359     H
H       0.1627   0.8378   0.7359     H
H       0.1631    0.031   0.3037     H
H       0.1631    0.469   0.8037     H
C       0.1633   0.2015    0.251     C
C       0.1633   0.2985    0.751     C
C       0.1634   0.1039   0.5628     C
C       0.1634   0.3961   0.0628     C
C       0.1638   0.6121   0.5144     C
C       0.1638   0.8879   0.0144     C
O        0.165  0.51872  0.36998     O
O        0.165  0.98128  0.86998     O
C       0.1677   0.2384   0.4157     C
C       0.1677   0.2616   0.9157     C
C       0.1688   0.1302   0.5078     C
C       0.1688   0.3698   0.0078     C
C       0.1694   0.1103    0.281     C
C       0.1694   0.3897    0.781     C
O       0.1771  0.50394  0.61912     O
O       0.1771  0.99606  0.11912     O
C       0.1773   0.2056   0.9163     C
C       0.1773   0.2944   0.4163     C
H       0.1797   0.5483   0.2761     H
H       0.1797   0.9517   0.7761     H
C       0.1822   0.0346   0.0871     C
C       0.1822   0.4654   0.5871     C
H       0.1838   0.0383    0.242     H
H       0.1838   0.4617    0.742     H
H       0.1863   0.6403   0.0041     H
H       0.1863   0.8597   0.5041     H
C        0.193   0.2203   0.2988     C
C        0.193   0.2797   0.7988     C
O       0.1979  0.09574  0.93458     O
O       0.1979  0.40426  0.43458     O
H       0.1984   0.1653   0.5103     H
H       0.1984   0.3347   0.0103     H
H       0.1985   0.6057   0.4112     H
H       0.1985   0.8943   0.9112     H
H        0.199   0.2423   0.8047     H
H        0.199   0.2577   0.3047     H
C       0.2011     0.62   0.0365     C
C       0.2011     0.88   0.5365     C
H       0.2016    0.107   0.4832     H
H       0.2016    0.393   0.9832     H
H       0.2029   0.5489   0.9918     H
H       0.2029   0.9511   0.4918     H
C        0.205   0.1287   0.3281     C
C        0.205   0.3713   0.8281     C
H       0.2073   0.6509    0.832     H
H       0.2073   0.8491    0.332     H
H       0.2106   0.1268   0.0379     H
H       0.2106   0.3732   0.5379     H
C       0.2145   0.1832   0.3391     C
C       0.2145   0.3168   0.8391     C
H       0.2195    0.572   0.1877     H
H       0.2195    0.928   0.6877     H
H       0.2216   0.0971   0.5761     H
H       0.2216   0.4029   0.0761     H
C        0.222  0.64484  0.48076     C
C        0.222  0.85516  0.98076     C
O       0.2279  0.09192  0.36682     O
O       0.2279  0.40808  0.86682     O
H       0.2294   0.1897   0.9044     H
H       0.2294   0.3103   0.4044     H
C       0.2299   0.6345  0.42645     C
C       0.2299   0.8655  0.92645     C
C       0.2377   0.5652   0.0204     C
C       0.2377   0.9348   0.5204     C
C       0.2382   0.0813  0.10176     C
C       0.2382   0.4187  0.60176     C
H       0.2391   0.5404    0.051     H
H       0.2391   0.9596    0.551     H
H       0.2399   0.6336   0.3236     H
H       0.2399   0.8664   0.8236     H
H       0.2402   0.6028   0.8688     H
H       0.2402   0.8972   0.3688     H
C       0.2405   0.2033   0.3926     C
C       0.2405   0.2967   0.8926     C
C        0.243   0.1261   0.0698     C
C        0.243   0.3739   0.5698     C
H       0.2463   0.6404   0.0554     H
H       0.2463   0.8596   0.5554     H
H        0.249   0.2219   0.0255     H
H        0.249   0.2781   0.5255     H
H       0.2519   0.1725   0.4164     H
H       0.2519   0.3275   0.9164     H
C        0.258   0.6336   0.8473     C
C        0.258   0.8664   0.3473     C
H       0.2655   0.6931   0.5394     H
H       0.2655   0.8069   0.0394     H
H       0.2682   0.6858   0.9114     H
H       0.2682   0.8142   0.4114     H
C       0.2703  0.68595   0.5026     C
C       0.2703  0.81405   0.0026     C
H       0.2813   0.5021   0.8883     H
H       0.2813   0.9979   0.3883     H
C       0.2825   0.6657   0.3947     C
C       0.2825   0.8343   0.8947     C
H       0.2839   0.0485   0.1693     H
H       0.2839   0.4515   0.6693     H
C       0.2862   0.0797   0.1477     C
C       0.2862   0.4203   0.6477     C
H       0.2877    0.742   0.8354     H
H       0.2877    0.758   0.3354     H
C        0.293   0.6513   0.3364     C
C        0.293   0.8487   0.8364     C
C       0.2939   0.1703   0.0826     C
C       0.2939   0.3297   0.5826     C
H        0.294   0.2246   0.3897     H
H        0.294   0.2754   0.8897     H
H       0.2961   0.6213   0.8189     H
H       0.2961   0.8787   0.3189     H
H       0.3015   0.6845   0.3156     H
H       0.3015   0.8155   0.8156     H
C       0.3021   0.2181   0.0469     C
C       0.3021   0.2819   0.5469     C
H       0.3051   0.2357    0.659     H
H       0.3051   0.2643    0.159     H
C       0.3066   0.6741   0.8824     C
C       0.3066   0.8259   0.3824     C
H       0.3088    0.249   0.5685     H
H       0.3088    0.251   0.0685     H
H       0.3115   0.5499    0.363     H
H       0.3115   0.9501    0.863     H
C       0.3133   0.0726   0.3565     C
C       0.3133   0.4274   0.8565     C
H       0.3163   0.6885   0.2164     H
H       0.3163   0.8115   0.7164     H
H       0.3188   0.0609   0.3193     H
H       0.3188   0.4391   0.8193     H
H        0.319   0.6913   0.1306     H
H        0.319   0.8087   0.6306     H
H       0.3218   0.0375   0.4314     H
H       0.3218   0.4625   0.9314     H
C       0.3252  0.71675   0.4724     C
C       0.3252  0.78325   0.9724     C
H       0.3263   0.6028    0.971     H
H       0.3263   0.8972    0.471     H
C       0.3268   0.0249   0.3944     C
C       0.3268   0.4751   0.8944     C
H       0.3273   0.1532   0.9645     H
H       0.3273   0.3468   0.4645     H
C       0.3287   0.7081    0.418     C
C       0.3287   0.7919    0.918     C
C       0.3293    0.578    0.001     C
C       0.3293    0.922    0.501     C
H       0.3333   0.2292   0.2093     H
H       0.3333   0.2708   0.7093     H
C       0.3374   0.1219   0.1632     C
C       0.3374   0.3781   0.6632     C
C       0.3376   0.7238   0.8518     C
C       0.3376   0.7762   0.3518     C
H       0.3381   0.1509    0.716     H
H       0.3381   0.3491    0.216     H
C       0.3406   0.1675   0.1304     C
C       0.3406   0.3325   0.6304     C
C       0.3545   0.2472    0.177     C
C       0.3545   0.2528    0.677     C
H       0.3559   0.0713   0.5161     H
H       0.3559   0.4287   0.0161     H
H       0.3562   0.1011   0.3635     H
H       0.3562   0.3989   0.8635     H
H       0.3569    0.656   0.8985     H
H       0.3569    0.844   0.3985     H
H       0.3576   0.5447   0.9898     H
H       0.3576   0.9553   0.4898     H
H        0.358    0.194   0.7614     H
H        0.358    0.306   0.2614     H
H       0.3588   0.7297   0.0322     H
H       0.3588   0.7703   0.5322     H
H       0.3622   0.5945   0.0297     H
H       0.3622   0.9055   0.5297     H
C       0.3628   0.5616   0.3461     C
C       0.3628   0.9384   0.8461     C
H       0.3651   0.0942   0.2379     H
H       0.3651   0.4058   0.7379     H
H       0.3698   0.1696   0.5091     H
H       0.3698   0.3304   0.0091     H
C       0.3698   0.6137    0.328     C
C       0.3698   0.8863    0.828     C
C       0.3719   0.7037   0.2045     C
C       0.3719   0.7963   0.7045     C
C       0.3736    0.705   0.1444     C
C       0.3736    0.795   0.6444     C
H       0.3757   0.7409   0.2181     H
H       0.3757   0.7591   0.7181     H
H       0.3771   0.7125   0.8232     H
H       0.3771   0.7875   0.3232     H
C       0.3784   0.1732   0.9703     C
C       0.3784   0.3268   0.4703     C
C       0.3794   0.2121   0.0101     C
C       0.3794   0.2879   0.5101     C
O       0.3819  0.73903  0.38717     O
O       0.3819  0.76097  0.88717     O
H        0.382    0.742   0.1324     H
H        0.382    0.758   0.6324     H
C        0.383   0.1727   0.7326     C
C        0.383   0.3273   0.2326     C
C       0.3856   0.7432   0.9993     C
C       0.3856   0.7568   0.4993     C
H       0.3883   0.1278   0.5914     H
H       0.3883   0.3722   0.0914     H
C       0.3925   0.1184   0.2118     C
C       0.3925   0.3816   0.7118     C
O       0.3938  0.20947   0.1431     O
O       0.3938  0.29053   0.6431     O
H       0.3957   0.7122   0.9755     H
H       0.3957   0.7878   0.4755     H
H       0.3967   0.0407   0.5658     H
H       0.3967   0.4593   0.0658     H
H       0.3981   0.1544    0.228     H
H       0.3981   0.3456    0.728     H
C       0.4075   0.0672    0.538     C
C       0.4075   0.4328    0.038     C
C       0.4155   0.5013   0.8862     C
C       0.4155   0.9987   0.3862     C
H       0.4175   0.5356   0.9051     H
H       0.4175   0.9644   0.4051     H
H       0.4209   0.6826   0.1315     H
H       0.4209   0.8174   0.6315     H
H       0.4211   0.6379   0.2163     H
H       0.4211   0.8621   0.7163     H
C       0.4224   0.2104   0.6913     C
C       0.4224   0.2896   0.1913     C
H       0.4245   0.6815   0.5691     H
H       0.4245   0.8185   0.0691     H
H       0.4251   0.5074   0.8484     H
H       0.4251   0.9926   0.3484     H
H       0.4261    0.011   0.8481     H
H       0.4261    0.489   0.3481     H
H       0.4279   0.1492   0.7469     H
H       0.4279   0.3508   0.2469     H
C       0.4285   0.1653   0.5238     C
C       0.4285   0.3347   0.0238     C
C       0.4298   0.1201   0.5627     C
C       0.4298   0.3799   0.0627     C
C       0.4322   0.5258   0.3393     C
C       0.4322   0.9742   0.8393     C
C       0.4329   0.6761    0.224     C
C       0.4329   0.8239    0.724     C
H       0.4392   0.1899   0.6594     H
H       0.4392   0.3101   0.1594     H
H       0.4429   0.0214   0.1823     H
H       0.4429   0.4786   0.6823     H
C       0.4456   0.6309  0.30422     C
C       0.4456   0.8691  0.80422     C
H       0.4465    0.138   0.9113     H
H       0.4465    0.362   0.4113     H
C       0.4493   0.1631   0.9395     C
C       0.4493   0.3369   0.4395     C
O       0.4504  0.68101  0.28281     O
O       0.4504  0.81899  0.78281     O
C       0.4544   0.2426   0.0161     C
C       0.4544   0.2574   0.5161     C
O       0.4545  0.21386  0.55002     O
O       0.4545  0.28614  0.05002     O
H       0.4555   0.0551   0.5158     H
H       0.4555   0.4449   0.0158     H
H       0.4603   0.0226      0.4     H
H       0.4603   0.4774      0.9     H
H       0.4682   0.1574   0.4942     H
H       0.4682   0.3426   0.9942     H
C       0.4709  0.72989   0.5122     C
C       0.4709  0.77011   0.0122     C
H       0.4744    0.228   0.7058     H
H       0.4744    0.272   0.2058     H
C        0.475   0.6904   0.5498     C
C        0.475   0.8096   0.0498     C
C       0.4824   0.0967    0.197     C
C       0.4824   0.4033    0.697     C
H       0.4863   0.6859    0.205     H
H       0.4863   0.8141    0.705     H
H       0.4878   0.1177   0.5787     H
H       0.4878   0.3823   0.0787     H
C        0.491   0.0449   0.1804     C
C        0.491   0.4551   0.6804     C
C        0.509   0.5449   0.3196     C
C        0.509   0.9551   0.8196     C
H       0.5122   0.6177   0.9213     H
H       0.5122   0.8823   0.4213     H
H       0.5137   0.1859    0.295     H
H       0.5137   0.3141    0.795     H
C       0.5176   0.5967    0.303     C
C       0.5176   0.9033    0.803     C
C        0.525   0.1904   0.9502     C
C        0.525   0.3096   0.4502     C
H       0.5256    0.728   0.7942     H
H       0.5256    0.772   0.2942     H
C       0.5291  0.22989   0.9878     C
C       0.5291  0.27011   0.4878     C
H       0.5318   0.6574   0.0058     H
H       0.5318   0.8426   0.5058     H
H       0.5397   0.5226      0.1     H
H       0.5397   0.9774      0.6     H
H       0.5445   0.5551   0.9842     H
H       0.5445   0.9449   0.4842     H
O       0.5455  0.71386  0.94998     O
O       0.5455  0.78614  0.44998     O
C       0.5456   0.7426   0.4839     C
C       0.5456   0.7574   0.9839     C
O       0.5496  0.18101  0.21719     O
O       0.5496  0.31899  0.71719     O
C       0.5507   0.6631   0.5605     C
C       0.5507   0.8369   0.0605     C
H       0.5535    0.638   0.5887     H
H       0.5535    0.862   0.0887     H
C       0.5544   0.1309  0.19578     C
C       0.5544   0.3691  0.69578     C
H       0.5571   0.5214   0.3177     H
H       0.5571   0.9786   0.8177     H
H       0.5608   0.6899   0.8406     H
H       0.5608   0.8101   0.3406     H
C       0.5671   0.1761    0.276     C
C       0.5671   0.3239    0.776     C
C       0.5678   0.0258   0.1607     C
C       0.5678   0.4742   0.6607     C
C       0.5702   0.6201   0.9373     C
C       0.5702   0.8799   0.4373     C
C       0.5715   0.6653   0.9762     C
C       0.5715   0.8347   0.4762     C
H       0.5721   0.6492   0.7531     H
H       0.5721   0.8508   0.2531     H
H       0.5739    0.511   0.6519     H
H       0.5739    0.989   0.1519     H
H       0.5749   0.0074   0.6516     H
H       0.5749   0.4926   0.1516     H
H       0.5755   0.1815   0.9309     H
H       0.5755   0.3185   0.4309     H
C       0.5776   0.7104   0.8087     C
C       0.5776   0.7896   0.3087     C
H       0.5789   0.1379   0.2837     H
H       0.5789   0.3621   0.7837     H
H       0.5791   0.1826   0.3685     H
H       0.5791   0.3174   0.8685     H
H       0.5825   0.0356   0.5949     H
H       0.5825   0.4644   0.0949     H
C       0.5845   0.0013   0.6138     C
C       0.5845   0.4987   0.1138     C
C       0.5925   0.5672    0.962     C
C       0.5925   0.9328    0.462     C
H       0.6019   0.6544    0.272     H
H       0.6019   0.8456    0.772     H
H       0.6033   0.5407   0.9342     H
H       0.6033   0.9593   0.4342     H
H       0.6043   0.2122   0.5245     H
H       0.6043   0.2878   0.0245     H
O       0.6062  0.70947   0.3569     O
O       0.6062  0.79053   0.8569     O
C       0.6075   0.6184   0.2882     C
C       0.6075   0.8816   0.7882     C
H       0.6117   0.6278   0.9086     H
H       0.6117   0.8722   0.4086     H
C       0.6144   0.2432   0.5007     C
C       0.6144   0.2568   0.0007     C
C        0.617   0.6727   0.7674     C
C        0.617   0.8273   0.2674     C
H        0.618    0.242   0.3676     H
H        0.618    0.258   0.8676     H
O       0.6181  0.23903  0.11283     O
O       0.6181  0.26097  0.61283     O
C       0.6206   0.7121   0.4899     C
C       0.6206   0.7879   0.9899     C
C       0.6216   0.6732   0.5297     C
C       0.6216   0.8268   0.0297     C
H       0.6229   0.2125   0.6768     H
H       0.6229   0.2875   0.1768     H
H       0.6243   0.2409   0.2819     H
H       0.6243   0.2591   0.7819     H
C       0.6264    0.205   0.3556     C
C       0.6264    0.295   0.8556     C
C       0.6281   0.2037   0.2955     C
C       0.6281   0.2963   0.7955     C
C       0.6302   0.1137    0.172     C
C       0.6302   0.3863    0.672     C
H       0.6302   0.6696   0.9909     H
H       0.6302   0.8304   0.4909     H
H       0.6349   0.5942   0.2621     H
H       0.6349   0.9058   0.7621     H
C       0.6372   0.0616   0.1539     C
C       0.6372   0.4384   0.6539     C
H       0.6378   0.0945   0.4703     H
H       0.6378   0.4055   0.9703     H
H       0.6412   0.2297   0.4678     H
H       0.6412   0.2703   0.9678     H
H        0.642    0.694   0.7386     H
H        0.642    0.806   0.2386     H
H       0.6424   0.0447   0.5102     H
H       0.6424   0.4553   0.0102     H
H       0.6431    0.156   0.6015     H
H       0.6431    0.344   0.1015     H
H       0.6438   0.6011   0.1365     H
H       0.6438   0.8989   0.6365     H
H       0.6441   0.5713   0.9839     H
H       0.6441   0.9287   0.4839     H
C       0.6455   0.7472    0.323     C
C       0.6455   0.7528    0.823     C
C       0.6594   0.6675   0.3696     C
C       0.6594   0.8325   0.8696     C
H       0.6619   0.6509    0.784     H
H       0.6619   0.8491    0.284     H
C       0.6624   0.2238   0.6482     C
C       0.6624   0.2762   0.1482     C
C       0.6626   0.6219   0.3368     C
C       0.6626   0.8781   0.8368     C
H       0.6667   0.7292   0.2907     H
H       0.6667   0.7708   0.7907     H
C       0.6707    0.078    0.499     C
C       0.6707    0.422    0.999     C
C       0.6713   0.2081    0.082     C
C       0.6713   0.2919    0.582     C
H       0.6727   0.6532   0.5355     H
H       0.6727   0.8468   0.0355     H
C       0.6732   0.5249   0.1056     C
C       0.6732   0.9751   0.6056     C
H       0.6737   0.1028    0.529     H
H       0.6737   0.3972    0.029     H
C       0.6748  0.21675   0.0276     C
C       0.6748  0.28325   0.5276     C
H       0.6782   0.5375   0.0686     H
H       0.6782   0.9625   0.5686     H
H        0.681   0.1913   0.3694     H
H        0.681   0.3087   0.8694     H
H       0.6812   0.5609   0.1807     H
H       0.6812   0.9391   0.6807     H
H       0.6837   0.1885   0.2836     H
H       0.6837   0.3115   0.7836     H
C       0.6867   0.5726   0.1435     C
C       0.6867   0.9274   0.6435     C
H       0.6885   0.0499    0.137     H
H       0.6885   0.4501    0.637     H
H       0.6912    0.749   0.9315     H
H       0.6912    0.751   0.4315     H
C       0.6934   0.1741   0.6176     C
C       0.6934   0.3259   0.1176     C
H       0.6949   0.7357    0.841     H
H       0.6949   0.7643    0.341     H
C       0.6979   0.7181   0.4531     C
C       0.6979   0.7819   0.9531     C
H       0.6985   0.1845   0.1844     H
H       0.6985   0.3155   0.6844     H
H       0.7039   0.1213   0.6811     H
H       0.7039   0.3787   0.1811     H
H        0.706   0.7246   0.1103     H
H        0.706   0.7754   0.6103     H
C       0.7061   0.6703   0.4174     C
C       0.7061   0.8297   0.9174     C
C        0.707   0.1513   0.1636     C
C        0.707   0.3487   0.6636     C
H       0.7123    0.242   0.6646     H
H       0.7123    0.258   0.1646     H
C       0.7138   0.5797   0.3523     C
C       0.7138   0.9203   0.8523     C
H       0.7161   0.5485   0.3307     H
H       0.7161   0.9515   0.8307     H
C       0.7175   0.1657   0.1053     C
C       0.7175   0.3343   0.6053     C
H       0.7187   0.0021   0.6117     H
H       0.7187   0.4979   0.1117     H
C       0.7297  0.18595   0.9974     C
C       0.7297  0.31405   0.4974     C
H       0.7318   0.1858   0.5886     H
H       0.7318   0.3142   0.0886     H
H       0.7345   0.1931   0.9606     H
H       0.7345   0.3069   0.4606     H
C        0.742   0.1336   0.6527     C
C        0.742   0.3664   0.1527     C
H       0.7481   0.6725   0.0836     H
H       0.7481   0.8275   0.5836     H
H        0.751   0.7219   0.4745     H
H        0.751   0.7781   0.9745     H
H       0.7537   0.1404   0.4446     H
H       0.7537   0.3596   0.9446     H
C        0.757   0.6261   0.4302     C
C        0.757   0.8739   0.9302     C
C       0.7595   0.7033   0.1074     C
C       0.7595   0.7967   0.6074     C
H       0.7598   0.1028   0.6312     H
H       0.7598   0.3972   0.1312     H
H       0.7601   0.1336   0.1764     H
H       0.7601   0.3664   0.6764     H
H       0.7609   0.0404    0.449     H
H       0.7609   0.4596    0.949     H
C       0.7618   0.5813  0.39824     C
C       0.7618   0.9187  0.89824     C
C       0.7623   0.0652   0.4796     C
C       0.7623   0.4348   0.9796     C
C       0.7701   0.1345  0.07355     C
C       0.7701   0.3655  0.57355     C
H       0.7706   0.6897   0.5956     H
H       0.7706   0.8103   0.0956     H
O       0.7721  0.59192  0.13318     O
O       0.7721  0.90808  0.63318     O
C        0.778  0.14484  0.01924     C
C        0.778  0.35516  0.51924     C
H       0.7784   0.5971   0.9239     H
H       0.7784   0.9029   0.4239     H
H       0.7805    0.072   0.3123     H
H       0.7805    0.428   0.8123     H
C       0.7855   0.6832   0.1609     C
C       0.7855   0.8168   0.6609     C
H       0.7894   0.6268   0.4621     H
H       0.7894   0.8732   0.9621     H
H       0.7927   0.1509    0.668     H
H       0.7927   0.3491    0.168     H
C        0.795   0.6287   0.1719     C
C        0.795   0.8713   0.6719     C
H       0.7971   0.0489   0.5082     H
H       0.7971   0.4511   0.0082     H
H       0.7984    0.607   0.0168     H
H       0.7984    0.893   0.5168     H
C       0.7989     0.12   0.4635     C
C       0.7989     0.38   0.9635     C
H        0.801   0.7423   0.6953     H
H        0.801   0.7577   0.1953     H
H       0.8015   0.1057   0.0888     H
H       0.8015   0.3943   0.5888     H
H       0.8016   0.6653   0.9897     H
H       0.8016   0.8347   0.4897     H
O       0.8021  0.59574  0.56542     O
O       0.8021  0.90426  0.06542     O
C        0.807   0.7203   0.2012     C
C        0.807   0.7797   0.7012     C
H       0.8137   0.1403   0.4959     H
H       0.8137   0.3597   0.9959     H
H       0.8162   0.5383    0.258     H
H       0.8162   0.9617    0.758     H
C       0.8178   0.5346   0.4129     C
C       0.8178   0.9654   0.9129     C
H       0.8203   0.0483   0.2239     H
H       0.8203   0.4517   0.7239     H
C       0.8227   0.7056   0.5837     C
C       0.8227   0.7944   0.0837     C
O       0.8229  0.00394  0.88088     O
O       0.8229  0.49606  0.38088     O
C       0.8306   0.6103    0.219     C
C       0.8306   0.8897    0.719     C
C       0.8312   0.6302   0.9922     C
C       0.8312   0.8698   0.4922     C
C       0.8323   0.7384   0.0843     C
C       0.8323   0.7616   0.5843     C
O        0.835  0.01872  0.13002     O
O        0.835  0.48128  0.63002     O
C       0.8362   0.1121   0.9856     C
C       0.8362   0.3879   0.4856     C
C       0.8366   0.6039   0.9372     C
C       0.8366   0.8961   0.4372     C
C       0.8367   0.7015    0.249     C
C       0.8367   0.7985    0.749     C
H       0.8369    0.531   0.1963     H
H       0.8369    0.969   0.6963     H
H       0.8373   0.1622   0.2641     H
H       0.8373   0.3378   0.7641     H
C       0.8395   0.0772    0.326     C
C       0.8395   0.4228    0.826     C
O       0.8442  0.12464   0.9378     O
O       0.8442  0.37536   0.4378     O
H       0.8456   0.0558   0.3587     H
H       0.8456   0.4442   0.8587     H
Cd     0.84682  0.50752  0.54267    Cd
Cd     0.84682  0.99248  0.04267    Cd
H       0.8485   0.7265   0.2765     H
H       0.8485   0.7735   0.7765     H
C       0.8497   0.6481    0.258     C
C       0.8497   0.8519    0.758     C
C       0.8511   0.1734    0.299     C
C       0.8511   0.3266    0.799     C
C       0.8512   0.5521   0.2283     C
C       0.8512   0.9479   0.7283     C
C       0.8535   0.1362   0.3385     C
C       0.8535   0.3638   0.8385     C
O       0.8593  0.53576   0.4557     O
O       0.8593  0.96424   0.9557     O
H       0.8645   0.2472   0.7804     H
H       0.8645   0.2528   0.2804     H
H        0.867   0.6279   0.9129     H
H        0.867   0.8721   0.4129     H
H       0.8679   0.5698     0.94     H
H       0.8679   0.9302     0.44     H
C       0.8683   0.2275   0.3084     C
C       0.8683   0.2725   0.8084     C
H       0.8718   0.6366   0.2912     H
H       0.8718   0.8634   0.7912     H
O       0.8732  0.11728  0.43059     O
C       0.8732   0.1538   0.3897     C
C       0.8732   0.3462   0.8897     C
O       0.8732  0.38272  0.93059     O
C       0.8763   0.6144   0.5608     C
C       0.8763   0.8856   0.0608     C
O       0.8782  0.07283  0.00507     O
O       0.8782  0.42717  0.50507     O
C       0.8795   0.0471   0.2332     C
C       0.8795   0.4529   0.7332     C
H       0.8796   0.0075   0.5964     H
H       0.8796   0.4925   0.0964     H
C       0.8898   0.6734   0.5657     C
C       0.8898   0.8266   0.0657     C
C       0.8905   0.2439   0.3579     C
C       0.8905   0.2561   0.8579     C
H       0.8918   0.2478   0.9682     H
H       0.8918   0.2522   0.4682     H
H       0.8958    0.103   0.6038     H
H       0.8958    0.397   0.1038     H
C        0.896   0.2066   0.3996     C
C        0.896   0.2934   0.8996     C
H       0.9023   0.2193   0.8644     H
H       0.9023   0.2807   0.3644     H
C        0.904   0.0576   0.2852     C
C        0.904   0.4424   0.7852     C
H       0.9088   0.0255   0.6543     H
H       0.9088   0.4745   0.1543     H
C       0.9094   0.7163   0.0671     C
C       0.9094   0.7837   0.5671     C
C       0.9139   0.0214   0.1401     C
C       0.9139   0.4786   0.6401     C
O       0.9181  0.66155  0.06798     O
O       0.9181  0.83845  0.56798     O
C        0.923   0.6379   0.0124     C
C        0.923   0.8621   0.5124     C
C       0.9277    0.023    0.617     C
C       0.9277    0.477    0.117     C
H       0.9304   0.5292    0.319     H
H       0.9304   0.9708    0.819     H
C       0.9309    0.225   0.4527     C
C       0.9309    0.275   0.9527     C
Cd     0.93157  0.05258  0.91586    Cd
Cd     0.93157  0.44742  0.41586    Cd
H       0.9336   0.1941   0.4773     H
H       0.9336   0.3059   0.9773     H
O       0.9403  0.58388   0.5514     O
O       0.9403  0.91612   0.0514     O
C       0.9413   0.0347   0.1943     C
C       0.9413   0.4653   0.6943     C
H       0.9419   0.5024   0.8742     H
H       0.9419   0.9976   0.3742     H
C        0.945   0.0801   0.5964     C
C        0.945   0.4199   0.0964     C
C       0.9461   0.5459    0.241     C
C       0.9461   0.9541    0.741     C
H       0.9535    0.603   0.0133     H
H       0.9535    0.897   0.5133     H
H       0.9549   0.6625   0.9888     H
H       0.9549   0.8375   0.4888     H
H       0.9556   0.0788   0.5581     H
H       0.9556   0.4212   0.0581     H
C       0.9692   0.6958   0.5531     C
C       0.9692   0.8042   0.0531     C
O       0.9703  0.01382  0.10415     O
O       0.9703  0.48618  0.60415     O
C       0.9723   0.5357   0.2924     C
C       0.9723   0.9643   0.7924     C
C       0.9808   0.7487    0.054     C
C       0.9808   0.7513    0.554     C
O       0.9837    0.563  0.15068     O
O       0.9837    0.937  0.65068     O
H       0.9842   0.1731   0.9563     H
H       0.9842   0.3269   0.4563     H
H       0.9868   0.0285   0.4227     H
H       0.9868   0.4715   0.9227     H
C       0.9906   0.0546   0.2978     C
C       0.9906   0.4454   0.7978     C
C       0.9952   0.0158    0.386     C
C       0.9952   0.4842    0.886     C
H       0.9964   0.0947   0.6141     H
H       0.9964   0.4053   0.1141     H
