data_I
_chemical_name_common  '/home/zhangsd/repos/MofS-CGCNN/ML/data/TSD/clean_cifs/SARNOQ_clean'
_cell_length_a 14.62060
_cell_length_b 14.62060
_cell_length_c 14.62060
_cell_angle_alpha 109.38000
_cell_angle_beta  109.38000
_cell_angle_gamma 109.38000
_space_group_name_H-M_alt      'P 1'


loop_
_space_group_symop_operation_xyz
  'x, y, z' 

loop_
_atom_site_label
_atom_site_fract_x
_atom_site_fract_y
_atom_site_fract_z
_atom_site_type_symbol
N      0.00321  0.22973  0.58146     N
N       0.0153   0.6223   0.6499     N
N      0.03822  0.54651  0.66707     N
N      0.03878  0.33755  0.60937     N
C      0.05048  0.55048  0.41724     C
C      0.05206  0.65391  0.42923     C
H         0.06   0.6928   0.6943     H
N      0.07966  0.41771  0.43893     N
N      0.10467  0.82499  0.47164     N
C      0.12411  0.52857  0.48372     C
N      0.14262  0.75296  0.48022     N
N      0.17501  0.52836  0.89533     N
Zn     0.19922  0.44964  0.69352    Zn
N      0.22973  0.58146  0.00321     N
C      0.22995  0.60152  0.58813     C
N      0.24704  0.51978  0.85738     N
N       0.2538   0.6318   0.3405     N
N       0.2627   0.2797   0.6069     N
N      0.26541   0.5728  0.66479     N
N       0.2797   0.6069   0.2627     N
N      0.29633  0.37894  0.69303     N
H       0.3057     0.94   0.3072     H
Zn     0.30648  0.80078  0.55036    Zn
N      0.30697  0.70367  0.62106     N
H       0.3072   0.3057     0.94     H
N      0.33293  0.96178  0.45349     N
N      0.33521  0.73459   0.4272     N
N      0.33755  0.60937  0.03878     N
N       0.3405   0.2538   0.6318     N
C      0.34609  0.57077  0.94794     C
N       0.3501   0.9847   0.3777     N
N       0.3682   0.6595   0.7462     N
N       0.3777   0.3501   0.9847     N
N      0.37894  0.69303  0.29633     N
N      0.39063  0.96122  0.66245     N
N       0.3931   0.7373   0.7203     N
C      0.39848  0.41187  0.77005     C
C      0.41187  0.77005  0.39848     C
C      0.41724  0.05048  0.55048     C
N      0.41771  0.43893  0.07966     N
N      0.41854  0.99679  0.77027     N
N       0.4272  0.33521  0.73459     N
C      0.42923  0.05206  0.65391     C
N      0.43893  0.07966  0.41771     N
C      0.44952  0.58276  0.94952     C
Zn     0.44964  0.69352  0.19922    Zn
N      0.45349  0.33293  0.96178     N
C      0.47143  0.51628  0.87589     C
N      0.47164  0.10467  0.82499     N
N      0.48022  0.14262  0.75296     N
C      0.48372  0.12411  0.52857     C
C      0.51628  0.87589  0.47143     C
N      0.51978  0.85738  0.24704     N
N      0.52836  0.89533  0.17501     N
C      0.52857  0.48372  0.12411     C
N      0.54651  0.66707  0.03822     N
Zn     0.55036  0.30648  0.80078    Zn
C      0.55048  0.41724  0.05048     C
N      0.56107  0.92034  0.58229     N
C      0.57077  0.94794  0.34609     C
N       0.5728  0.66479  0.26541     N
N      0.58146  0.00321  0.22973     N
N      0.58229  0.56107  0.92034     N
C      0.58276  0.94952  0.44952     C
C      0.58813  0.22995  0.60152     C
C      0.60152  0.58813  0.22995     C
N       0.6069   0.2627   0.2797     N
N      0.60937  0.03878  0.33755     N
N      0.62106  0.30697  0.70367     N
N       0.6223   0.6499   0.0153     N
N       0.6318   0.3405   0.2538     N
N       0.6499   0.0153   0.6223     N
C      0.65391  0.42923  0.05206     C
N       0.6595   0.7462   0.3682     N
N      0.66245  0.39063  0.96122     N
N      0.66479  0.26541   0.5728     N
N      0.66707  0.03822  0.54651     N
H       0.6928   0.6943     0.06     H
N      0.69303  0.29633  0.37894     N
Zn     0.69352  0.19922  0.44964    Zn
H       0.6943     0.06   0.6928     H
N      0.70367  0.62106  0.30697     N
N       0.7203   0.3931   0.7373     N
N      0.73459   0.4272  0.33521     N
N       0.7373   0.7203   0.3931     N
N       0.7462   0.3682   0.6595     N
N      0.75296  0.48022  0.14262     N
C      0.77005  0.39848  0.41187     C
N      0.77027  0.41854  0.99679     N
Zn     0.80078  0.55036  0.30648    Zn
N      0.82499  0.47164  0.10467     N
N      0.85738  0.24704  0.51978     N
C      0.87589  0.47143  0.51628     C
N      0.89533  0.17501  0.52836     N
N      0.92034  0.58229  0.56107     N
H         0.94   0.3072   0.3057     H
C      0.94794  0.34609  0.57077     C
C      0.94952  0.44952  0.58276     C
N      0.96122  0.66245  0.39063     N
N      0.96178  0.45349  0.33293     N
N       0.9847   0.3777   0.3501     N
N      0.99679  0.77027  0.41854     N
