data_I
_chemical_name_common  '/home/zhangsd/repos/MofS-CGCNN/ML/data/TSD/clean_cifs/SAYTOD_clean'
_cell_length_a 17.04610
_cell_length_b 21.62290
_cell_length_c  9.85050
_cell_angle_alpha 90.00000
_cell_angle_beta  90.00000
_cell_angle_gamma 90.00000
_space_group_name_H-M_alt      'P 1'


loop_
_space_group_symop_operation_xyz
  'x, y, z' 

loop_
_atom_site_label
_atom_site_fract_x
_atom_site_fract_y
_atom_site_fract_z
_atom_site_type_symbol
C       0.0138   0.0114   0.9555     C
N       0.0138   0.4886   0.9555     N
C        0.027   0.6255   0.2624     C
C        0.027   0.8745   0.2624     C
Br     0.03354     0.25  0.98423    Br
Cu     0.05964  0.04798  0.79558    Cu
Cu     0.05964  0.45202  0.79558    Cu
Cu     0.06775  0.16455   0.8148    Cu
Cu     0.06775  0.33545   0.8148    Cu
N       0.0786   0.6106   0.3083     N
N       0.0786   0.8894   0.3083     N
C       0.1045   0.0052   0.6475     C
C       0.1045   0.4948   0.6475     C
Br     0.11294     0.25  0.62957    Br
N       0.1311   0.5249   0.5664     N
N       0.1311   0.9751   0.5664     N
C       0.1665   0.1221   0.8645     C
C       0.1665   0.3779   0.8645     C
Cu     0.16837  0.57816  0.42015    Cu
Cu     0.16837  0.92184  0.42015    Cu
N       0.2223    0.105   0.8817     N
N       0.2223    0.395   0.8817     N
N       0.2777    0.605   0.3817     N
N       0.2777    0.895   0.3817     N
Cu     0.33163  0.07816  0.92015    Cu
Cu     0.33163  0.42184  0.92015    Cu
C       0.3335   0.6221   0.3645     C
C       0.3335   0.8779   0.3645     C
N       0.3689   0.0249   0.0664     N
N       0.3689   0.4751   0.0664     N
Br     0.38706     0.75  0.12957    Br
C       0.3955   0.5052   0.1475     C
C       0.3955   0.9948   0.1475     C
N       0.4214   0.1106   0.8083     N
N       0.4214   0.3894   0.8083     N
Cu     0.43225  0.66455   0.3148    Cu
Cu     0.43225  0.83545   0.3148    Cu
Cu     0.44036  0.54798  0.29558    Cu
Cu     0.44036  0.95202  0.29558    Cu
Br     0.46646     0.75  0.48423    Br
C        0.473   0.1255   0.7624     C
C        0.473   0.3745   0.7624     C
N       0.4862   0.5114   0.4555     N
C       0.4862   0.9886   0.4555     C
N       0.5138   0.0114   0.5445     N
C       0.5138   0.4886   0.5445     C
C        0.527   0.6255   0.2376     C
C        0.527   0.8745   0.2376     C
Br     0.53354     0.25  0.51577    Br
Cu     0.55964  0.04798  0.70442    Cu
Cu     0.55964  0.45202  0.70442    Cu
Cu     0.56775  0.16455   0.6852    Cu
Cu     0.56775  0.33545   0.6852    Cu
N       0.5786   0.6106   0.1917     N
N       0.5786   0.8894   0.1917     N
C       0.6045   0.0052   0.8525     C
C       0.6045   0.4948   0.8525     C
Br     0.61294     0.25  0.87043    Br
N       0.6311   0.5249   0.9336     N
N       0.6311   0.9751   0.9336     N
C       0.6665   0.1221   0.6355     C
C       0.6665   0.3779   0.6355     C
Cu     0.66837  0.57816  0.07985    Cu
Cu     0.66837  0.92184  0.07985    Cu
N       0.7223    0.105   0.6183     N
N       0.7223    0.395   0.6183     N
N       0.7777    0.605   0.1183     N
N       0.7777    0.895   0.1183     N
Cu     0.83163  0.07816  0.57985    Cu
Cu     0.83163  0.42184  0.57985    Cu
C       0.8335   0.6221   0.1355     C
C       0.8335   0.8779   0.1355     C
N       0.8689   0.0249   0.4336     N
N       0.8689   0.4751   0.4336     N
Br     0.88706     0.75  0.37043    Br
C       0.8955   0.5052   0.3525     C
C       0.8955   0.9948   0.3525     C
N       0.9214   0.1106   0.6917     N
N       0.9214   0.3894   0.6917     N
Cu     0.93225  0.66455   0.1852    Cu
Cu     0.93225  0.83545   0.1852    Cu
Cu     0.94036  0.54798  0.20442    Cu
Cu     0.94036  0.95202  0.20442    Cu
Br     0.96646     0.75  0.01577    Br
C        0.973   0.1255   0.7376     C
C        0.973   0.3745   0.7376     C
C       0.9862   0.5114   0.0445     C
N       0.9862   0.9886   0.0445     N
