data_I
_chemical_name_common  '/home/zhangsd/repos/MofS-CGCNN/ML/data/TSD/clean_cifs/SAYTUJ_clean'
_cell_length_a  7.09620
_cell_length_b 12.45490
_cell_length_c 13.15800
_cell_angle_alpha 68.16000
_cell_angle_beta  83.11500
_cell_angle_gamma 81.83400
_space_group_name_H-M_alt      'P 1'


loop_
_space_group_symop_operation_xyz
  'x, y, z' 

loop_
_atom_site_label
_atom_site_fract_x
_atom_site_fract_y
_atom_site_fract_z
_atom_site_type_symbol
N       0.0685   0.0581    0.798     N
C       0.0772   0.9506   0.2233     C
Cu     0.31399    0.067  0.83775    Cu
Cu     0.31771  0.97902  0.25108    Cu
N       0.4122   0.1223   0.2379     N
C       0.4488   0.2114   0.2269     C
N       0.4622   0.0169   0.9625     N
Cu     0.48033  0.36916  0.19657    Cu
Br     0.48796  0.20856  0.66195    Br
C       0.4931   0.4715   0.0445     C
C       0.4953   0.5518   0.6127     C
N       0.4955   0.4187   0.3155     N
Cu         0.5      0.5      0.5    Cu
N       0.5045   0.5813   0.6845     N
C       0.5047   0.4482   0.3873     C
N       0.5069   0.5285   0.9555     N
Br     0.51204  0.79144  0.33805    Br
Cu     0.51967  0.63084  0.80343    Cu
C       0.5378   0.9831   0.0375     C
C       0.5512   0.7886   0.7731     C
N       0.5878   0.8777   0.7621     N
Cu     0.68229  0.02098  0.74892    Cu
Cu     0.68601    0.933  0.16225    Cu
C       0.9228   0.0494   0.7767     C
N       0.9315   0.9419    0.202     N
