data_I
_chemical_name_common  '/home/zhangsd/repos/MofS-CGCNN/ML/data/TSD/clean_cifs/SEHLEY_clean'
_cell_length_a 12.28400
_cell_length_b 22.73300
_cell_length_c 34.40000
_cell_angle_alpha 90.00000
_cell_angle_beta  90.00000
_cell_angle_gamma 90.00000
_space_group_name_H-M_alt      'P 1'


loop_
_space_group_symop_operation_xyz
  'x, y, z' 

loop_
_atom_site_label
_atom_site_fract_x
_atom_site_fract_y
_atom_site_fract_z
_atom_site_type_symbol
C       0.0045   0.2899   0.3521     C
C       0.0045   0.4601   0.3979     C
C       0.0045   0.7899   0.8521     C
C       0.0045   0.9601   0.8979     C
Zn     0.00715  0.32511   0.5019    Zn
Zn     0.00715  0.42489   0.2481    Zn
Zn     0.00715  0.82511   0.0019    Zn
Zn     0.00715  0.92489   0.7481    Zn
H        0.013   0.3286   0.3604     H
H        0.013   0.4214   0.3896     H
H        0.013   0.8286   0.8604     H
H        0.013   0.9214   0.8896     H
C       0.0167   0.3242   0.1697     C
C       0.0167   0.4258   0.5803     C
C       0.0167   0.8242   0.6697     C
C       0.0167   0.9258   0.0803     C
O       0.0187   0.3461  0.83361     O
O       0.0187   0.4039  0.91639     O
O       0.0187   0.8461  0.33361     O
O       0.0187   0.9039  0.41639     O
H       0.0249   0.3634   0.1767     H
H       0.0249   0.3866   0.5733     H
H       0.0249   0.8634   0.6767     H
H       0.0249   0.8866   0.0733     H
C       0.0302   0.2925  0.96908     C
C       0.0302   0.4575  0.78092     C
C       0.0302   0.7925  0.46908     C
C       0.0302   0.9575  0.28092     C
C       0.0375   0.0123   0.6892     C
C       0.0375   0.2377   0.5608     C
C       0.0375   0.5123   0.1892     C
C       0.0375   0.7377   0.0608     C
N       0.0427   0.0612  0.88792     N
N       0.0427   0.1888  0.36208     N
N       0.0427   0.5612  0.38792     N
N       0.0427   0.6888  0.86208     N
C       0.0509   0.0055   0.8774     C
C       0.0509   0.2445   0.3726     C
C       0.0509   0.5055   0.3774     C
C       0.0509   0.7445   0.8726     C
C       0.0551   0.0272   0.0691     C
C       0.0551   0.2228   0.1809     C
C       0.0551   0.5272   0.5691     C
C       0.0551   0.7228   0.6809     C
O        0.062   0.0366  0.65831     O
O        0.062   0.2134  0.59169     O
O        0.062   0.5366  0.15831     O
O        0.062   0.7134  0.09169     O
N       0.0626   0.2602   0.0008     N
N       0.0626   0.4898   0.7492     N
N       0.0626   0.7602   0.5008     N
N       0.0626   0.9898   0.2492     N
O        0.063   0.2912  0.55313     O
O        0.063   0.4588  0.19687     O
O        0.063   0.7912  0.05313     O
O        0.063   0.9588  0.69687     O
C       0.0665   0.2812   0.1926     C
C       0.0665   0.4688   0.5574     C
C       0.0665   0.7812   0.6926     C
C       0.0665   0.9688   0.0574     C
C       0.0769   0.3475  0.97091     C
C       0.0769   0.4025  0.77909     C
C       0.0769   0.8475  0.47091     C
C       0.0769   0.9025  0.27909     C
C       0.0798   0.3512  0.80538     C
C       0.0798   0.3988  0.94462     C
C       0.0798   0.8512  0.30538     C
C       0.0798   0.8988  0.44462     C
H       0.0872   0.0573   0.0549     H
H       0.0872   0.1927   0.1951     H
H       0.0872   0.5573   0.5549     H
H       0.0872   0.6927   0.6951     H
H       0.0901   0.2534    0.395     H
H       0.0901   0.4966    0.355     H
H       0.0901   0.7534    0.895     H
H       0.0901   0.9966    0.855     H
O       0.0974   0.3124  0.45323     O
O       0.0974   0.4376  0.29677     O
O       0.0974   0.8124  0.95323     O
O       0.0974   0.9376  0.79677     O
N       0.1112   0.3499  0.24546     N
N       0.1112   0.4001  0.50454     N
N       0.1112   0.8499  0.74546     N
N       0.1112   0.9001  0.00454     N
C        0.123   0.2974    0.229     C
C        0.123   0.4526    0.521     C
C        0.123   0.7974    0.729     C
C        0.123   0.9526    0.021     C
Cl       0.125    0.125   0.2542    Cl
Zn       0.125    0.125  0.39347    Zn
Eu       0.125    0.125    0.625    Eu
Zn       0.125    0.125  0.85653    Zn
Cl       0.125    0.125   0.9958    Cl
Eu       0.125    0.625    0.125    Eu
Zn       0.125    0.625  0.35653    Zn
Cl       0.125    0.625   0.4958    Cl
Cl       0.125    0.625   0.7542    Cl
Zn       0.125    0.625  0.89347    Zn
C        0.127   0.2974    0.021     C
C        0.127   0.4526    0.729     C
C        0.127   0.7974    0.521     C
C        0.127   0.9526    0.229     C
N       0.1388   0.3499  0.00454     N
N       0.1388   0.4001  0.74546     N
N       0.1388   0.8499  0.50454     N
N       0.1388   0.9001  0.24546     N
O       0.1526   0.3124  0.79677     O
O       0.1526   0.4376  0.95323     O
O       0.1526   0.8124  0.29677     O
O       0.1526   0.9376  0.45323     O
H       0.1599   0.2534    0.855     H
H       0.1599   0.4966    0.895     H
H       0.1599   0.7534    0.355     H
H       0.1599   0.9966    0.395     H
H       0.1628   0.0573   0.1951     H
H       0.1628   0.1927   0.0549     H
H       0.1628   0.5573   0.6951     H
H       0.1628   0.6927   0.5549     H
C       0.1702   0.3512  0.44462     C
C       0.1702   0.3988  0.30538     C
C       0.1702   0.8512  0.94462     C
C       0.1702   0.8988  0.80538     C
C       0.1731   0.3475  0.27909     C
C       0.1731   0.4025  0.47091     C
C       0.1731   0.8475  0.77909     C
C       0.1731   0.9025  0.97091     C
C       0.1835   0.2812   0.0574     C
C       0.1835   0.4688   0.6926     C
C       0.1835   0.7812   0.5574     C
C       0.1835   0.9688   0.1926     C
O        0.187   0.2912  0.69687     O
O        0.187   0.4588  0.05313     O
O        0.187   0.7912  0.19687     O
O        0.187   0.9588  0.55313     O
N       0.1874   0.2602   0.2492     N
N       0.1874   0.4898   0.5008     N
N       0.1874   0.7602   0.7492     N
N       0.1874   0.9898   0.0008     N
O        0.188   0.0366  0.59169     O
O        0.188   0.2134  0.65831     O
O        0.188   0.5366  0.09169     O
O        0.188   0.7134  0.15831     O
C       0.1949   0.0272   0.1809     C
C       0.1949   0.2228   0.0691     C
C       0.1949   0.5272   0.6809     C
C       0.1949   0.7228   0.5691     C
C       0.1991   0.0055   0.3726     C
C       0.1991   0.2445   0.8774     C
C       0.1991   0.5055   0.8726     C
C       0.1991   0.7445   0.3774     C
N       0.2073   0.0612  0.36208     N
N       0.2073   0.1888  0.88792     N
N       0.2073   0.5612  0.86208     N
N       0.2073   0.6888  0.38792     N
C       0.2125   0.0123   0.5608     C
C       0.2125   0.2377   0.6892     C
C       0.2125   0.5123   0.0608     C
C       0.2125   0.7377   0.1892     C
C       0.2198   0.2925  0.28092     C
C       0.2198   0.4575  0.46908     C
C       0.2198   0.7925  0.78092     C
C       0.2198   0.9575  0.96908     C
H       0.2251   0.3634   0.0733     H
H       0.2251   0.3866   0.6767     H
H       0.2251   0.8634   0.5733     H
H       0.2251   0.8866   0.1767     H
O       0.2313   0.3461  0.41639     O
O       0.2313   0.4039  0.33361     O
O       0.2313   0.8461  0.91639     O
O       0.2313   0.9039  0.83361     O
C       0.2333   0.3242   0.0803     C
C       0.2333   0.4258   0.6697     C
C       0.2333   0.8242   0.5803     C
C       0.2333   0.9258   0.1697     C
H        0.237   0.3286   0.8896     H
H        0.237   0.4214   0.8604     H
H        0.237   0.8286   0.3896     H
H        0.237   0.9214   0.3604     H
Zn     0.24285  0.32511   0.7481    Zn
Zn     0.24285  0.42489   0.0019    Zn
Zn     0.24285  0.82511   0.2481    Zn
Zn     0.24285  0.92489   0.5019    Zn
C       0.2455   0.2899   0.8979     C
C       0.2455   0.4601   0.8521     C
C       0.2455   0.7899   0.3979     C
C       0.2455   0.9601   0.3521     C
C       0.2545   0.0399   0.1479     C
C       0.2545   0.2101   0.1021     C
C       0.2545   0.5399   0.6479     C
C       0.2545   0.7101   0.6021     C
Zn     0.25715  0.07511   0.9981    Zn
Zn     0.25715  0.17489   0.2519    Zn
Zn     0.25715  0.57511   0.4981    Zn
Zn     0.25715  0.67489   0.7519    Zn
H        0.263   0.0786   0.1396     H
H        0.263   0.1714   0.1104     H
H        0.263   0.5786   0.6396     H
H        0.263   0.6714   0.6104     H
C       0.2667   0.0742   0.3303     C
C       0.2667   0.1758   0.9197     C
C       0.2667   0.5742   0.8303     C
C       0.2667   0.6758   0.4197     C
O       0.2687   0.0961  0.66639     O
O       0.2687   0.1539  0.58361     O
O       0.2687   0.5961  0.16639     O
O       0.2687   0.6539  0.08361     O
H       0.2749   0.1134   0.3233     H
H       0.2749   0.1366   0.9267     H
H       0.2749   0.6134   0.8233     H
H       0.2749   0.6366   0.4267     H
C       0.2802   0.0425  0.53092     C
C       0.2802   0.2075  0.71908     C
C       0.2802   0.5425  0.03092     C
C       0.2802   0.7075  0.21908     C
C       0.2875   0.2623   0.3108     C
C       0.2875   0.4877   0.4392     C
C       0.2875   0.7623   0.8108     C
C       0.2875   0.9877   0.9392     C
N       0.2927   0.3112  0.11208     N
N       0.2927   0.4388  0.63792     N
N       0.2927   0.8112  0.61208     N
N       0.2927   0.9388  0.13792     N
C       0.3009   0.2555   0.1226     C
C       0.3009   0.4945   0.6274     C
C       0.3009   0.7555   0.6226     C
C       0.3009   0.9945   0.1274     C
C       0.3051   0.2772   0.9309     C
C       0.3051   0.4728   0.8191     C
C       0.3051   0.7772   0.4309     C
C       0.3051   0.9728   0.3191     C
O        0.312   0.2866  0.34169     O
O        0.312   0.4634  0.40831     O
O        0.312   0.7866  0.84169     O
O        0.312   0.9634  0.90831     O
N       0.3126   0.0102   0.4992     N
N       0.3126   0.2398   0.7508     N
N       0.3126   0.5102   0.9992     N
N       0.3126   0.7398   0.2508     N
O        0.313   0.0412  0.94687     O
O        0.313   0.2088  0.30313     O
O        0.313   0.5412  0.44687     O
O        0.313   0.7088  0.80313     O
C       0.3165   0.0312   0.3074     C
C       0.3165   0.2188   0.9426     C
C       0.3165   0.5312   0.8074     C
C       0.3165   0.7188   0.4426     C
C       0.3269   0.0975  0.52909     C
C       0.3269   0.1525  0.72091     C
C       0.3269   0.5975  0.02909     C
C       0.3269   0.6525  0.22091     C
C       0.3298   0.1012  0.69462     C
C       0.3298   0.1488  0.55538     C
C       0.3298   0.6012  0.19462     C
C       0.3298   0.6488  0.05538     C
H       0.3372   0.3073   0.9451     H
H       0.3372   0.4427   0.8049     H
H       0.3372   0.8073   0.4451     H
H       0.3372   0.9427   0.3049     H
H       0.3401   0.0034    0.105     H
H       0.3401   0.2466    0.145     H
H       0.3401   0.5034    0.605     H
H       0.3401   0.7466    0.645     H
O       0.3474   0.0624  0.04677     O
O       0.3474   0.1876  0.20323     O
O       0.3474   0.5624  0.54677     O
O       0.3474   0.6876  0.70323     O
N       0.3612   0.0999  0.25454     N
N       0.3612   0.1501  0.99546     N
N       0.3612   0.5999  0.75454     N
N       0.3612   0.6501  0.49546     N
C        0.373   0.0474    0.271     C
C        0.373   0.2026    0.979     C
C        0.373   0.5474    0.771     C
C        0.373   0.7026    0.479     C
Cl       0.375    0.375   0.0042    Cl
Zn       0.375    0.375  0.14347    Zn
Eu       0.375    0.375    0.375    Eu
Zn       0.375    0.375  0.60653    Zn
Cl       0.375    0.375   0.7458    Cl
Zn       0.375    0.875  0.10653    Zn
Cl       0.375    0.875   0.2458    Cl
Cl       0.375    0.875   0.5042    Cl
Zn       0.375    0.875  0.64347    Zn
Eu       0.375    0.875    0.875    Eu
C        0.377   0.0474    0.479     C
C        0.377   0.2026    0.771     C
C        0.377   0.5474    0.979     C
C        0.377   0.7026    0.271     C
N       0.3888   0.0999  0.49546     N
N       0.3888   0.1501  0.75454     N
N       0.3888   0.5999  0.99546     N
N       0.3888   0.6501  0.25454     N
O       0.4026   0.0624  0.70323     O
O       0.4026   0.1876  0.54677     O
O       0.4026   0.5624  0.20323     O
O       0.4026   0.6876  0.04677     O
H       0.4099   0.0034    0.645     H
H       0.4099   0.2466    0.605     H
H       0.4099   0.5034    0.145     H
H       0.4099   0.7466    0.105     H
H       0.4128   0.3073   0.8049     H
H       0.4128   0.4427   0.9451     H
H       0.4128   0.8073   0.3049     H
H       0.4128   0.9427   0.4451     H
C       0.4202   0.1012  0.05538     C
C       0.4202   0.1488  0.19462     C
C       0.4202   0.6012  0.55538     C
C       0.4202   0.6488  0.69462     C
C       0.4231   0.0975  0.22091     C
C       0.4231   0.1525  0.02909     C
C       0.4231   0.5975  0.72091     C
C       0.4231   0.6525  0.52909     C
C       0.4335   0.0312   0.4426     C
C       0.4335   0.2188   0.8074     C
C       0.4335   0.5312   0.9426     C
C       0.4335   0.7188   0.3074     C
O        0.437   0.0412  0.80313     O
O        0.437   0.2088  0.44687     O
O        0.437   0.5412  0.30313     O
O        0.437   0.7088  0.94687     O
N       0.4374   0.0102   0.2508     N
N       0.4374   0.2398   0.9992     N
N       0.4374   0.5102   0.7508     N
N       0.4374   0.7398   0.4992     N
O        0.438   0.2866  0.40831     O
O        0.438   0.4634  0.34169     O
O        0.438   0.7866  0.90831     O
O        0.438   0.9634  0.84169     O
C       0.4449   0.2772   0.8191     C
C       0.4449   0.4728   0.9309     C
C       0.4449   0.7772   0.3191     C
C       0.4449   0.9728   0.4309     C
C       0.4491   0.2555   0.6274     C
C       0.4491   0.4945   0.1226     C
C       0.4491   0.7555   0.1274     C
C       0.4491   0.9945   0.6226     C
N       0.4573   0.3112  0.63792     N
N       0.4573   0.4388  0.11208     N
N       0.4573   0.8112  0.13792     N
N       0.4573   0.9388  0.61208     N
C       0.4625   0.2623   0.4392     C
C       0.4625   0.4877   0.3108     C
C       0.4625   0.7623   0.9392     C
C       0.4625   0.9877   0.8108     C
C       0.4698   0.0425  0.21908     C
C       0.4698   0.2075  0.03092     C
C       0.4698   0.5425  0.71908     C
C       0.4698   0.7075  0.53092     C
H       0.4751   0.1134   0.4267     H
H       0.4751   0.1366   0.8233     H
H       0.4751   0.6134   0.9267     H
H       0.4751   0.6366   0.3233     H
O       0.4813   0.0961  0.08361     O
O       0.4813   0.1539  0.16639     O
O       0.4813   0.5961  0.58361     O
O       0.4813   0.6539  0.66639     O
C       0.4833   0.0742   0.4197     C
C       0.4833   0.1758   0.8303     C
C       0.4833   0.5742   0.9197     C
C       0.4833   0.6758   0.3303     C
H        0.487   0.0786   0.6104     H
H        0.487   0.1714   0.6396     H
H        0.487   0.5786   0.1104     H
H        0.487   0.6714   0.1396     H
Zn     0.49285  0.07511   0.7519    Zn
Zn     0.49285  0.17489   0.4981    Zn
Zn     0.49285  0.57511   0.2519    Zn
Zn     0.49285  0.67489   0.9981    Zn
C       0.4955   0.0399   0.6021     C
C       0.4955   0.2101   0.6479     C
C       0.4955   0.5399   0.1021     C
C       0.4955   0.7101   0.1479     C
C       0.5045   0.2899   0.8521     C
C       0.5045   0.4601   0.8979     C
C       0.5045   0.7899   0.3521     C
C       0.5045   0.9601   0.3979     C
Zn     0.50715  0.32511   0.0019    Zn
Zn     0.50715  0.42489   0.7481    Zn
Zn     0.50715  0.82511   0.5019    Zn
Zn     0.50715  0.92489   0.2481    Zn
H        0.513   0.3286   0.8604     H
H        0.513   0.4214   0.8896     H
H        0.513   0.8286   0.3604     H
H        0.513   0.9214   0.3896     H
C       0.5167   0.3242   0.6697     C
C       0.5167   0.4258   0.0803     C
C       0.5167   0.8242   0.1697     C
C       0.5167   0.9258   0.5803     C
O       0.5187   0.3461  0.33361     O
O       0.5187   0.4039  0.41639     O
O       0.5187   0.8461  0.83361     O
O       0.5187   0.9039  0.91639     O
H       0.5249   0.3634   0.6767     H
H       0.5249   0.3866   0.0733     H
H       0.5249   0.8634   0.1767     H
H       0.5249   0.8866   0.5733     H
C       0.5302   0.2925  0.46908     C
C       0.5302   0.4575  0.28092     C
C       0.5302   0.7925  0.96908     C
C       0.5302   0.9575  0.78092     C
C       0.5375   0.0123   0.1892     C
C       0.5375   0.2377   0.0608     C
C       0.5375   0.5123   0.6892     C
C       0.5375   0.7377   0.5608     C
N       0.5427   0.0612  0.38792     N
N       0.5427   0.1888  0.86208     N
N       0.5427   0.5612  0.88792     N
N       0.5427   0.6888  0.36208     N
C       0.5509   0.0055   0.3774     C
C       0.5509   0.2445   0.8726     C
C       0.5509   0.5055   0.8774     C
C       0.5509   0.7445   0.3726     C
C       0.5551   0.0272   0.5691     C
C       0.5551   0.2228   0.6809     C
C       0.5551   0.5272   0.0691     C
C       0.5551   0.7228   0.1809     C
O        0.562   0.0366  0.15831     O
O        0.562   0.2134  0.09169     O
O        0.562   0.5366  0.65831     O
O        0.562   0.7134  0.59169     O
N       0.5626   0.2602   0.5008     N
N       0.5626   0.4898   0.2492     N
N       0.5626   0.7602   0.0008     N
N       0.5626   0.9898   0.7492     N
O        0.563   0.2912  0.05313     O
O        0.563   0.4588  0.69687     O
O        0.563   0.7912  0.55313     O
O        0.563   0.9588  0.19687     O
C       0.5665   0.2812   0.6926     C
C       0.5665   0.4688   0.0574     C
C       0.5665   0.7812   0.1926     C
C       0.5665   0.9688   0.5574     C
C       0.5769   0.3475  0.47091     C
C       0.5769   0.4025  0.27909     C
C       0.5769   0.8475  0.97091     C
C       0.5769   0.9025  0.77909     C
C       0.5798   0.3512  0.30538     C
C       0.5798   0.3988  0.44462     C
C       0.5798   0.8512  0.80538     C
C       0.5798   0.8988  0.94462     C
H       0.5872   0.0573   0.5549     H
H       0.5872   0.1927   0.6951     H
H       0.5872   0.5573   0.0549     H
H       0.5872   0.6927   0.1951     H
H       0.5901   0.2534    0.895     H
H       0.5901   0.4966    0.855     H
H       0.5901   0.7534    0.395     H
H       0.5901   0.9966    0.355     H
O       0.5974   0.3124  0.95323     O
O       0.5974   0.4376  0.79677     O
O       0.5974   0.8124  0.45323     O
O       0.5974   0.9376  0.29677     O
N       0.6112   0.3499  0.74546     N
N       0.6112   0.4001  0.00454     N
N       0.6112   0.8499  0.24546     N
N       0.6112   0.9001  0.50454     N
C        0.623   0.2974    0.729     C
C        0.623   0.4526    0.021     C
C        0.623   0.7974    0.229     C
C        0.623   0.9526    0.521     C
Eu       0.625    0.125    0.125    Eu
Zn       0.625    0.125  0.35653    Zn
Cl       0.625    0.125   0.4958    Cl
Cl       0.625    0.125   0.7542    Cl
Zn       0.625    0.125  0.89347    Zn
Cl       0.625    0.625   0.2542    Cl
Zn       0.625    0.625  0.39347    Zn
Eu       0.625    0.625    0.625    Eu
Zn       0.625    0.625  0.85653    Zn
Cl       0.625    0.625   0.9958    Cl
C        0.627   0.2974    0.521     C
C        0.627   0.4526    0.229     C
C        0.627   0.7974    0.021     C
C        0.627   0.9526    0.729     C
N       0.6388   0.3499  0.50454     N
N       0.6388   0.4001  0.24546     N
N       0.6388   0.8499  0.00454     N
N       0.6388   0.9001  0.74546     N
O       0.6526   0.3124  0.29677     O
O       0.6526   0.4376  0.45323     O
O       0.6526   0.8124  0.79677     O
O       0.6526   0.9376  0.95323     O
H       0.6599   0.2534    0.355     H
H       0.6599   0.4966    0.395     H
H       0.6599   0.7534    0.855     H
H       0.6599   0.9966    0.895     H
H       0.6628   0.0573   0.6951     H
H       0.6628   0.1927   0.5549     H
H       0.6628   0.5573   0.1951     H
H       0.6628   0.6927   0.0549     H
C       0.6702   0.3512  0.94462     C
C       0.6702   0.3988  0.80538     C
C       0.6702   0.8512  0.44462     C
C       0.6702   0.8988  0.30538     C
C       0.6731   0.3475  0.77909     C
C       0.6731   0.4025  0.97091     C
C       0.6731   0.8475  0.27909     C
C       0.6731   0.9025  0.47091     C
C       0.6835   0.2812   0.5574     C
C       0.6835   0.4688   0.1926     C
C       0.6835   0.7812   0.0574     C
C       0.6835   0.9688   0.6926     C
O        0.687   0.2912  0.19687     O
O        0.687   0.4588  0.55313     O
O        0.687   0.7912  0.69687     O
O        0.687   0.9588  0.05313     O
N       0.6874   0.2602   0.7492     N
N       0.6874   0.4898   0.0008     N
N       0.6874   0.7602   0.2492     N
N       0.6874   0.9898   0.5008     N
O        0.688   0.0366  0.09169     O
O        0.688   0.2134  0.15831     O
O        0.688   0.5366  0.59169     O
O        0.688   0.7134  0.65831     O
C       0.6949   0.0272   0.6809     C
C       0.6949   0.2228   0.5691     C
C       0.6949   0.5272   0.1809     C
C       0.6949   0.7228   0.0691     C
C       0.6991   0.0055   0.8726     C
C       0.6991   0.2445   0.3774     C
C       0.6991   0.5055   0.3726     C
C       0.6991   0.7445   0.8774     C
N       0.7073   0.0612  0.86208     N
N       0.7073   0.1888  0.38792     N
N       0.7073   0.5612  0.36208     N
N       0.7073   0.6888  0.88792     N
C       0.7125   0.0123   0.0608     C
C       0.7125   0.2377   0.1892     C
C       0.7125   0.5123   0.5608     C
C       0.7125   0.7377   0.6892     C
C       0.7198   0.2925  0.78092     C
C       0.7198   0.4575  0.96908     C
C       0.7198   0.7925  0.28092     C
C       0.7198   0.9575  0.46908     C
H       0.7251   0.3634   0.5733     H
H       0.7251   0.3866   0.1767     H
H       0.7251   0.8634   0.0733     H
H       0.7251   0.8866   0.6767     H
O       0.7313   0.3461  0.91639     O
O       0.7313   0.4039  0.83361     O
O       0.7313   0.8461  0.41639     O
O       0.7313   0.9039  0.33361     O
C       0.7333   0.3242   0.5803     C
C       0.7333   0.4258   0.1697     C
C       0.7333   0.8242   0.0803     C
C       0.7333   0.9258   0.6697     C
H        0.737   0.3286   0.3896     H
H        0.737   0.4214   0.3604     H
H        0.737   0.8286   0.8896     H
H        0.737   0.9214   0.8604     H
Zn     0.74285  0.32511   0.2481    Zn
Zn     0.74285  0.42489   0.5019    Zn
Zn     0.74285  0.82511   0.7481    Zn
Zn     0.74285  0.92489   0.0019    Zn
C       0.7455   0.2899   0.3979     C
C       0.7455   0.4601   0.3521     C
C       0.7455   0.7899   0.8979     C
C       0.7455   0.9601   0.8521     C
C       0.7545   0.0399   0.6479     C
C       0.7545   0.2101   0.6021     C
C       0.7545   0.5399   0.1479     C
C       0.7545   0.7101   0.1021     C
Zn     0.75715  0.07511   0.4981    Zn
Zn     0.75715  0.17489   0.7519    Zn
Zn     0.75715  0.57511   0.9981    Zn
Zn     0.75715  0.67489   0.2519    Zn
H        0.763   0.0786   0.6396     H
H        0.763   0.1714   0.6104     H
H        0.763   0.5786   0.1396     H
H        0.763   0.6714   0.1104     H
C       0.7667   0.0742   0.8303     C
C       0.7667   0.1758   0.4197     C
C       0.7667   0.5742   0.3303     C
C       0.7667   0.6758   0.9197     C
O       0.7687   0.0961  0.16639     O
O       0.7687   0.1539  0.08361     O
O       0.7687   0.5961  0.66639     O
O       0.7687   0.6539  0.58361     O
H       0.7749   0.1134   0.8233     H
H       0.7749   0.1366   0.4267     H
H       0.7749   0.6134   0.3233     H
H       0.7749   0.6366   0.9267     H
C       0.7802   0.0425  0.03092     C
C       0.7802   0.2075  0.21908     C
C       0.7802   0.5425  0.53092     C
C       0.7802   0.7075  0.71908     C
C       0.7875   0.2623   0.8108     C
C       0.7875   0.4877   0.9392     C
C       0.7875   0.7623   0.3108     C
C       0.7875   0.9877   0.4392     C
N       0.7927   0.3112  0.61208     N
N       0.7927   0.4388  0.13792     N
N       0.7927   0.8112  0.11208     N
N       0.7927   0.9388  0.63792     N
C       0.8009   0.2555   0.6226     C
C       0.8009   0.4945   0.1274     C
C       0.8009   0.7555   0.1226     C
C       0.8009   0.9945   0.6274     C
C       0.8051   0.2772   0.4309     C
C       0.8051   0.4728   0.3191     C
C       0.8051   0.7772   0.9309     C
C       0.8051   0.9728   0.8191     C
O        0.812   0.2866  0.84169     O
O        0.812   0.4634  0.90831     O
O        0.812   0.7866  0.34169     O
O        0.812   0.9634  0.40831     O
N       0.8126   0.0102   0.9992     N
N       0.8126   0.2398   0.2508     N
N       0.8126   0.5102   0.4992     N
N       0.8126   0.7398   0.7508     N
O        0.813   0.0412  0.44687     O
O        0.813   0.2088  0.80313     O
O        0.813   0.5412  0.94687     O
O        0.813   0.7088  0.30313     O
C       0.8165   0.0312   0.8074     C
C       0.8165   0.2188   0.4426     C
C       0.8165   0.5312   0.3074     C
C       0.8165   0.7188   0.9426     C
C       0.8269   0.0975  0.02909     C
C       0.8269   0.1525  0.22091     C
C       0.8269   0.5975  0.52909     C
C       0.8269   0.6525  0.72091     C
C       0.8298   0.1012  0.19462     C
C       0.8298   0.1488  0.05538     C
C       0.8298   0.6012  0.69462     C
C       0.8298   0.6488  0.55538     C
H       0.8372   0.3073   0.4451     H
H       0.8372   0.4427   0.3049     H
H       0.8372   0.8073   0.9451     H
H       0.8372   0.9427   0.8049     H
H       0.8401   0.0034    0.605     H
H       0.8401   0.2466    0.645     H
H       0.8401   0.5034    0.105     H
H       0.8401   0.7466    0.145     H
O       0.8474   0.0624  0.54677     O
O       0.8474   0.1876  0.70323     O
O       0.8474   0.5624  0.04677     O
O       0.8474   0.6876  0.20323     O
N       0.8612   0.0999  0.75454     N
N       0.8612   0.1501  0.49546     N
N       0.8612   0.5999  0.25454     N
N       0.8612   0.6501  0.99546     N
C        0.873   0.0474    0.771     C
C        0.873   0.2026    0.479     C
C        0.873   0.5474    0.271     C
C        0.873   0.7026    0.979     C
Zn       0.875    0.375  0.10653    Zn
Cl       0.875    0.375   0.2458    Cl
Cl       0.875    0.375   0.5042    Cl
Zn       0.875    0.375  0.64347    Zn
Eu       0.875    0.375    0.875    Eu
Cl       0.875    0.875   0.0042    Cl
Zn       0.875    0.875  0.14347    Zn
Eu       0.875    0.875    0.375    Eu
Zn       0.875    0.875  0.60653    Zn
Cl       0.875    0.875   0.7458    Cl
C        0.877   0.0474    0.979     C
C        0.877   0.2026    0.271     C
C        0.877   0.5474    0.479     C
C        0.877   0.7026    0.771     C
N       0.8888   0.0999  0.99546     N
N       0.8888   0.1501  0.25454     N
N       0.8888   0.5999  0.49546     N
N       0.8888   0.6501  0.75454     N
O       0.9026   0.0624  0.20323     O
O       0.9026   0.1876  0.04677     O
O       0.9026   0.5624  0.70323     O
O       0.9026   0.6876  0.54677     O
H       0.9099   0.0034    0.145     H
H       0.9099   0.2466    0.105     H
H       0.9099   0.5034    0.645     H
H       0.9099   0.7466    0.605     H
H       0.9128   0.3073   0.3049     H
H       0.9128   0.4427   0.4451     H
H       0.9128   0.8073   0.8049     H
H       0.9128   0.9427   0.9451     H
C       0.9202   0.1012  0.55538     C
C       0.9202   0.1488  0.69462     C
C       0.9202   0.6012  0.05538     C
C       0.9202   0.6488  0.19462     C
C       0.9231   0.0975  0.72091     C
C       0.9231   0.1525  0.52909     C
C       0.9231   0.5975  0.22091     C
C       0.9231   0.6525  0.02909     C
C       0.9335   0.0312   0.9426     C
C       0.9335   0.2188   0.3074     C
C       0.9335   0.5312   0.4426     C
C       0.9335   0.7188   0.8074     C
O        0.937   0.0412  0.30313     O
O        0.937   0.2088  0.94687     O
O        0.937   0.5412  0.80313     O
O        0.937   0.7088  0.44687     O
N       0.9374   0.0102   0.7508     N
N       0.9374   0.2398   0.4992     N
N       0.9374   0.5102   0.2508     N
N       0.9374   0.7398   0.9992     N
O        0.938   0.2866  0.90831     O
O        0.938   0.4634  0.84169     O
O        0.938   0.7866  0.40831     O
O        0.938   0.9634  0.34169     O
C       0.9449   0.2772   0.3191     C
C       0.9449   0.4728   0.4309     C
C       0.9449   0.7772   0.8191     C
C       0.9449   0.9728   0.9309     C
C       0.9491   0.2555   0.1274     C
C       0.9491   0.4945   0.6226     C
C       0.9491   0.7555   0.6274     C
C       0.9491   0.9945   0.1226     C
N       0.9573   0.3112  0.13792     N
N       0.9573   0.4388  0.61208     N
N       0.9573   0.8112  0.63792     N
N       0.9573   0.9388  0.11208     N
C       0.9625   0.2623   0.9392     C
C       0.9625   0.4877   0.8108     C
C       0.9625   0.7623   0.4392     C
C       0.9625   0.9877   0.3108     C
C       0.9698   0.0425  0.71908     C
C       0.9698   0.2075  0.53092     C
C       0.9698   0.5425  0.21908     C
C       0.9698   0.7075  0.03092     C
H       0.9751   0.1134   0.9267     H
H       0.9751   0.1366   0.3233     H
H       0.9751   0.6134   0.4267     H
H       0.9751   0.6366   0.8233     H
O       0.9813   0.0961  0.58361     O
O       0.9813   0.1539  0.66639     O
O       0.9813   0.5961  0.08361     O
O       0.9813   0.6539  0.16639     O
C       0.9833   0.0742   0.9197     C
C       0.9833   0.1758   0.3303     C
C       0.9833   0.5742   0.4197     C
C       0.9833   0.6758   0.8303     C
H        0.987   0.0786   0.1104     H
H        0.987   0.1714   0.1396     H
H        0.987   0.5786   0.6104     H
H        0.987   0.6714   0.6396     H
Zn     0.99285  0.07511   0.2519    Zn
Zn     0.99285  0.17489   0.9981    Zn
Zn     0.99285  0.57511   0.7519    Zn
Zn     0.99285  0.67489   0.4981    Zn
C       0.9955   0.0399   0.1021     C
C       0.9955   0.2101   0.1479     C
C       0.9955   0.5399   0.6021     C
C       0.9955   0.7101   0.6479     C
