data_I
_chemical_name_common  '/home/zhangsd/repos/MofS-CGCNN/ML/data/TSD/clean_cifs/SEHSII_clean'
_cell_length_a 10.87240
_cell_length_b 15.62180
_cell_length_c 10.99240
_cell_angle_alpha 90.00000
_cell_angle_beta  100.70200
_cell_angle_gamma 90.00000
_space_group_name_H-M_alt      'P 1'


loop_
_space_group_symop_operation_xyz
  'x, y, z' 

loop_
_atom_site_label
_atom_site_fract_x
_atom_site_fract_y
_atom_site_fract_z
_atom_site_type_symbol
C       0.0035   0.3627   0.7988     C
C       0.0172   0.2982   0.7156     C
O       0.0489   0.1639   0.5588     O
H       0.0524   0.7336   0.3207     H
O        0.065    0.938   0.6646     O
H       0.0996   0.4531   0.9093     H
C       0.1077   0.4099   0.8533     C
C       0.1227   0.6226   0.1686     C
C       0.1327   0.2803   0.6857     C
O        0.135   0.5646   0.0932     O
Tb     0.14243  0.10175  0.39562    Tb
C       0.1429   0.2103   0.5953     C
C       0.1622   0.9439   0.6186     C
O       0.1718   0.9891   0.5268     O
H       0.1856   0.8151   0.7789     H
O        0.211   0.6699   0.2148     O
C       0.2251   0.3921   0.8235     C
C       0.2365   0.3272   0.7404     C
O       0.2423   0.2012    0.553     O
O       0.2577   0.7012    0.947     O
C       0.2635   0.8272   0.7596     C
C       0.2749   0.8921   0.6765     C
O        0.289   0.1699   0.2852     O
H       0.3144   0.3151   0.7211     H
O       0.3282   0.4891   0.9732     O
C       0.3378   0.4439   0.8814     C
C       0.3571   0.7103   0.9047     C
Tb     0.35757  0.60175  0.10438    Tb
O        0.365   0.0646   0.4068     O
C       0.3673   0.7803   0.8143     C
C       0.3773   0.1226   0.3314     C
C       0.3923   0.9099   0.6467     C
H       0.4004   0.9531   0.5907     H
O        0.435    0.438   0.8354     O
H       0.4476   0.2336   0.1793     H
O       0.4511   0.6639   0.9412     O
C       0.4828   0.7982   0.7844     C
C       0.4965   0.8627   0.7012     C
C       0.5035   0.1373   0.2988     C
C       0.5172   0.2018   0.2156     C
O       0.5489   0.3361   0.0588     O
H       0.5524   0.7664   0.8207     H
O        0.565    0.562   0.1646     O
H       0.5996   0.0469   0.4093     H
C       0.6077   0.0901   0.3533     C
C       0.6227   0.8774   0.6686     C
C       0.6327   0.2197   0.1857     C
O        0.635   0.9354   0.5932     O
Tb     0.64243  0.39825  0.89562    Tb
C       0.6429   0.2897   0.0953     C
C       0.6622   0.5561   0.1186     C
O       0.6718   0.5109   0.0268     O
H       0.6856   0.6849   0.2789     H
O        0.711   0.8301   0.7148     O
C       0.7251   0.1079   0.3235     C
C       0.7365   0.1728   0.2404     C
O       0.7423   0.2988    0.053     O
O       0.7577   0.7988    0.447     O
C       0.7635   0.6728   0.2596     C
C       0.7749   0.6079   0.1765     C
O        0.789   0.3301   0.7852     O
H       0.8144   0.1849   0.2211     H
O       0.8282   0.0109   0.4732     O
C       0.8378   0.0561   0.3814     C
C       0.8571   0.7897   0.4047     C
Tb     0.85757  0.89825  0.60438    Tb
O        0.865   0.4354   0.9068     O
C       0.8673   0.7197   0.3143     C
C       0.8773   0.3774   0.8314     C
C       0.8923   0.5901   0.1467     C
H       0.9004   0.5469   0.0907     H
O        0.935    0.062   0.3354     O
H       0.9476   0.2664   0.6793     H
O       0.9511   0.8361   0.4412     O
C       0.9828   0.7018   0.2844     C
C       0.9965   0.6373   0.2012     C
