data_I
_chemical_name_common  '/home/zhangsd/repos/MofS-CGCNN/ML/data/TSD/clean_cifs/SEHZUB_clean'
_cell_length_a  8.32000
_cell_length_b 11.37500
_cell_length_c 12.93470
_cell_angle_alpha 104.39500
_cell_angle_beta  108.76100
_cell_angle_gamma 90.00000
_space_group_name_H-M_alt      'P 1'


loop_
_space_group_symop_operation_xyz
  'x, y, z' 

loop_
_atom_site_label
_atom_site_fract_x
_atom_site_fract_y
_atom_site_fract_z
_atom_site_type_symbol
H       0.0441   0.2739   0.5828     H
O      0.06021   0.0505  0.59562     O
H       0.0662   0.4746   0.5748     H
C       0.0742   0.8467   0.8978     C
H       0.0977   0.2819   0.2116     H
H       0.0994   0.8137   0.9596     H
C       0.1236   0.9987   0.8076     C
H       0.1398   0.1863   0.0404     H
H       0.1458   0.6068   0.4778     H
H       0.1466   0.8022   0.4716     H
C       0.1507   0.3142   0.6008     C
C       0.1519   0.2103   0.2056     C
O      0.15807     0.21  0.86354     O
C       0.1584   0.9508   0.9036     C
C        0.164   0.4345   0.5962     C
C       0.1764   0.1533   0.1022     C
H       0.1918   0.2051   0.3636     H
C       0.2049   0.1636   0.2956     C
C       0.2176   0.6655   0.5392     C
C       0.2183   0.7825   0.5356     C
C       0.2232   0.1173    0.829     C
C       0.2548   0.0492   0.0964     C
O      0.26728   0.0348  0.45676     O
C         0.28   0.0523   0.2876     C
O      0.29453     0.79  0.13646     O
N       0.2967   0.2542   0.6326     N
O       0.2982      0.0     -0.0     O
C        0.316   0.0013   0.1924     C
N       0.3187   0.8717    0.621     N
C       0.3206   0.6293   0.6318     C
Co     0.32291  0.06344   0.6296    Co
C       0.3233   0.4947   0.6232     C
C       0.3405   0.0057   0.3902     C
O      0.35947   0.1112  0.80254     O
C       0.3942   0.8827    0.171     C
C       0.4199   0.7189   0.7212     C
C       0.4221   0.8415   0.7166     C
C       0.4563   0.3144   0.6598     C
H       0.4613   0.7261   0.4172     H
O      0.46459   0.9495  0.40438     O
C       0.4693   0.4346    0.655     C
H       0.4872   0.6989   0.7862     H
H       0.4914   0.5254   0.4252     H
H       0.4933   0.9012   0.7776     H
C       0.5499   0.6858   0.3992     C
H       0.5541   0.2742    0.681     H
O      0.55693   0.8888  0.19746     O
C       0.5678   0.5655   0.4038     C
H        0.576   0.4749   0.6732     H
N       0.6641   0.7458   0.3674     N
H        0.668   0.3932   0.5222     H
H        0.675   0.1978   0.5284     H
C       0.6784   0.3345   0.4608     C
C       0.6827   0.2175   0.4644     C
C       0.6888   0.3707   0.3682     C
Co     0.69331  0.93656   0.3704    Co
N       0.6977   0.1283    0.379     N
C       0.6987   0.2811   0.2788     C
C       0.7001   0.5053   0.3768     C
H        0.701   0.3011   0.2138     H
C       0.7055   0.1585   0.2834     C
H       0.7157   0.0988   0.2224     H
C       0.7965   0.6856   0.3402     C
O      0.81052   0.9652  0.54324     O
C       0.8143   0.5654    0.345     C
H       0.8282   0.7949   0.6364     H
H       0.8731   0.7258    0.319     H
H       0.8861   0.7181   0.7884     H
H       0.9028   0.5251   0.3268     H
C       0.9093   0.8364   0.7044     C
C       0.9463   0.7897   0.7944     C
C       0.9503   0.9943   0.6098     C
C       0.9924   0.9477   0.7124     C
