data_I
_chemical_name_common  '/home/zhangsd/repos/MofS-CGCNN/ML/data/TSD/clean_cifs/SEQTEP_clean'
_cell_length_a 16.46740
_cell_length_b 18.17050
_cell_length_c 20.44560
_cell_angle_alpha 64.16700
_cell_angle_beta  70.66800
_cell_angle_gamma 70.11900
_space_group_name_H-M_alt      'P 1'


loop_
_space_group_symop_operation_xyz
  'x, y, z' 

loop_
_atom_site_label
_atom_site_fract_x
_atom_site_fract_y
_atom_site_fract_z
_atom_site_type_symbol
H       0.0113   0.8693   0.2915     H
O       0.0161   0.6583   0.7319     O
O       0.0188   0.3555   0.3551     O
C        0.028   0.3689    0.287     C
H       0.0313   0.2005   0.8129     H
H       0.0439   0.7979   0.4055     H
H       0.0502   0.0174    0.858     H
H       0.0572   0.9218   0.8135     H
H        0.058    0.276    0.861     H
C       0.0648   0.8683   0.2984     C
H       0.0681   0.1521   0.0979     H
H       0.0686   0.2788   0.9337     H
H       0.0778   0.8528   0.7371     H
H       0.0787   0.4736   0.2312     H
H       0.0794   0.9306   0.9202     H
H       0.0824    0.394   0.7915     H
C       0.0842   0.8261   0.3664     C
H       0.0851   0.8742    0.039     H
C       0.0866   0.1596   0.8146     C
H       0.0873   0.1196   0.7955     H
Mn     0.09031  0.72052  0.62149    Mn
H       0.0924   0.4243   0.1803     H
C       0.0938   0.4188   0.2288     C
C       0.0941   0.2512   0.8977     C
C       0.0961    0.983    0.886     C
C       0.0977   0.1144    0.895     C
O       0.0988   0.9527   0.1713     O
C          0.1   0.1589   0.9354     C
H       0.1007   0.2235   0.0248     H
C       0.1058   0.0272   0.9278     C
O       0.1087   0.2191   0.5175     O
C       0.1131   0.1642   0.0532     C
C       0.1133   0.9074   0.7856     C
C       0.1147   0.1162   0.0071     C
H       0.1185   0.5162   0.7066     H
O       0.1207   0.7522    0.507     O
Mn     0.12131  0.33133  0.41362    Mn
C       0.1241   0.9103   0.2383     C
C       0.1248   0.9839   0.9987     C
C        0.126   0.8662   0.7397     C
C       0.1323    0.028   0.0373     C
H       0.1342   0.1873   0.7849     H
C       0.1378   0.8894   0.0341     C
C         0.14   0.3996   0.7807     C
H         0.15   0.8702   0.0825     H
H       0.1506    0.596   0.2927     H
H       0.1521   0.3902   0.2379     H
O       0.1521   0.7773   0.6534     O
H       0.1587   0.1958   0.2773     H
C       0.1616   0.4733   0.7301     C
C       0.1625   0.8236   0.3796     C
H       0.1647   0.1062   0.6248     H
C       0.1669   0.9808   0.1077     C
H       0.1696   0.1473   0.0658     H
O       0.1756   0.4374    0.354     O
H       0.1778    0.722   0.2078     H
C       0.1795   0.2108   0.5334     C
O       0.1795   0.9664    0.836     O
H       0.1802   0.1298   0.1975     H
C       0.1825   0.7831   0.4554     C
O       0.1839   0.2594   0.8626     O
C        0.184   0.9275   0.7904     C
H       0.1866   0.8638   0.0034     H
H       0.1918    0.017   0.1153     H
O       0.1972   0.2581   0.3474     O
C        0.198    0.337   0.8143     C
C       0.2025   0.9085   0.2497     C
C        0.206   0.5984   0.2609     C
C       0.2066   0.1411   0.6009     C
C        0.208   0.8437    0.697     C
H       0.2085   0.1639   0.6346     H
O       0.2104   0.6212   0.6206     O
H       0.2139   0.9327   0.1024     H
C       0.2158    0.171    0.258     C
C       0.2197   0.7966   0.6502     C
C       0.2218   0.6731   0.2103     C
C        0.222   0.8659   0.3191     C
O       0.2268   0.2633   0.4925     O
C       0.2286   0.1321   0.2099     C
C       0.2426   0.4855   0.7132     C
H       0.2427   0.9363   0.2102     H
O        0.254   0.7811   0.4647     O
C        0.256   0.4402   0.3253     C
H       0.2641   0.1081   0.5869     H
C       0.2655   0.5672   0.6573     C
C       0.2656   0.9078   0.7468     C
C       0.2715   0.5249   0.2662     C
C       0.2733   0.2142   0.3336     C
H       0.2754   0.8651   0.3259     H
C       0.2778   0.8674   0.7005     C
C       0.2792   0.3471   0.7953     C
C       0.2866    0.174   0.2783     C
O       0.2926   0.7802   0.6095     O
H        0.301   0.1617   0.7371     H
C       0.3019   0.4213   0.7457     C
H       0.3028   0.1055   0.8631     H
C       0.3049    0.677   0.1613     C
H       0.3085   0.1492   0.9892     H
C       0.3131   0.0963   0.1798     C
H       0.3134   0.9223    0.749     H
O       0.3143   0.7563    0.113     O
H       0.3144   0.8906   0.9006     H
H       0.3155   0.0253   0.8458     H
O       0.3191   0.0587   0.1321     O
O       0.3212   0.3839   0.3409     O
H       0.3221   0.2507   0.6135     H
H       0.3228   0.3024   0.8163     H
Mn     0.32614   0.6981  0.54953    Mn
H       0.3334   0.8555   0.6709     H
O       0.3351   0.2007   0.3607     O
O       0.3392   0.5777   0.6482     O
H       0.3413   0.1536   0.9066     H
C       0.3425   0.0523   0.8622     C
C       0.3525   0.5299   0.2191     C
C        0.356   0.1283   0.9546     C
C       0.3579   0.1663   0.7095     C
Mn     0.35956  0.26113  0.42044    Mn
H       0.3597   0.4262   0.7349     H
C       0.3617   0.9971   0.9377     C
C       0.3698   0.6053   0.1653     C
C       0.3703   0.0337   0.9816     C
C       0.3705   0.1379   0.2469     C
C       0.3707   0.2197   0.6352     C
C       0.3715   0.8692   0.9129     C
H       0.3739   0.8107   0.1837     H
C       0.3753   0.9092   0.9623     C
H       0.3815   0.8094   0.9384     H
C       0.3856   0.1003   0.1977     C
C       0.3931   0.9832   0.0511     C
C       0.3942   0.8595   0.0325     C
H       0.3972   0.4812   0.2234     H
C       0.4004   0.7658   0.0651     C
O       0.4021   0.3092   0.4815     O
C       0.4025   0.8959   0.0774     C
C       0.4054   0.0231   0.0963     C
H       0.4091    0.142    0.951     H
H       0.4131   0.7441   0.0261     H
H       0.4163   0.8821   0.8681     H
H       0.4182   0.8133    0.401     H
H       0.4188   0.1393   0.2601     H
C       0.4211   0.8389   0.1544     C
H       0.4246   0.6071   0.1324     H
H       0.4253   0.8722   0.1785     H
O       0.4262    0.065   0.8136     O
C       0.4293   0.1202   0.7421     C
H       0.4372   0.9035   0.2792     H
H       0.4376   0.0667   0.0645     H
H       0.4388   0.9814   0.1333     H
H       0.4429    0.078   0.1765     H
H       0.4464   0.7362   0.0934     H
C       0.4541   0.2271   0.5935     C
O       0.4568   0.7111   0.5233     O
C       0.4677   0.2793   0.5114     C
C       0.4749   0.8187   0.3734     C
H       0.4758   0.7981   0.1496     H
C       0.4861   0.8722   0.3004     C
C       0.5139   0.1278   0.6996     C
H       0.5242   0.2019   0.8504     H
C       0.5251   0.1813   0.6266     C
C       0.5323   0.7207   0.4886     C
O       0.5432   0.2889   0.4767     O
C       0.5459   0.7729   0.4065     C
H       0.5536   0.2638   0.9066     H
H       0.5571    0.922   0.8235     H
H       0.5612   0.0186   0.8667     H
H       0.5624   0.9333   0.9355     H
H       0.5628   0.0965   0.7208     H
C       0.5707   0.8798   0.2579     C
O       0.5738    0.935   0.1864     O
H       0.5747   0.1278   0.8215     H
H       0.5754   0.3929   0.8676     H
C       0.5789   0.1611   0.8456     C
H       0.5812   0.8607   0.7399     H
H       0.5818   0.1867    0.599     H
H       0.5837   0.1179   0.1319     H
H       0.5869   0.2559   0.9739     H
H       0.5909    0.858    0.049     H
C       0.5946   0.9769   0.9037     C
C       0.5975   0.1041   0.9226     C
O       0.5979   0.6908   0.5185     O
C       0.5996   0.2342   0.9349     C
H       0.6028   0.5188   0.7766     H
C       0.6058   0.1405   0.9675     C
C       0.6069   0.0168   0.9489     C
C       0.6144   0.8997   0.8023     C
H       0.6185   0.1906   0.0616     H
C       0.6247   0.0908   0.0377     C
H       0.6261   0.1893   0.8163     H
C       0.6285   0.1308   0.0871     C
C       0.6293   0.7803   0.3648     C
C       0.6295   0.8621   0.7531     C
C       0.6297   0.9663   0.0184     C
C       0.6302   0.3947   0.8347     C
C       0.6383   0.0029   0.0623     C
H       0.6403   0.5738   0.2651     H
Mn     0.64044  0.73887  0.57956    Mn
C       0.6421   0.8337   0.2905     C
C        0.644   0.8717   0.0454     C
C       0.6475   0.4701   0.7809     C
C       0.6575   0.9477   0.1378     C
H       0.6587   0.8464   0.0934     H
O       0.6608   0.4223   0.3518     O
O       0.6649   0.7993   0.6393     O
H       0.6666   0.1445   0.3291     H
Mn     0.67386   0.3019  0.45047    Mn
H       0.6772   0.6976   0.1837     H
H       0.6779   0.7493   0.3865     H
O       0.6788   0.6161   0.6591     O
O       0.6809   0.9413   0.8679     O
H       0.6845   0.9747   0.1542     H
H       0.6856   0.1094   0.0994     H
O       0.6857   0.2437    0.887     O
H       0.6866   0.0777    0.251     H
C       0.6869   0.9037   0.8202     C
H       0.6915   0.8508   0.0108     H
C       0.6951    0.323   0.8387     C
H       0.6972   0.8945   0.1369     H
C       0.6981   0.5787   0.2543     C
H        0.699   0.8383   0.2629     H
O       0.7074   0.2198   0.3905     O
C       0.7134    0.826   0.7217     C
C       0.7208   0.6529   0.2047     C
C       0.7222   0.1326   0.2995     C
H       0.7246   0.1349   0.6741     H
C       0.7267   0.7858   0.6664     C
C       0.7285   0.4751   0.7338     C
C       0.7344   0.0922   0.2532     C
C       0.7345   0.4328   0.3427     C
H       0.7359   0.8919   0.4131     H
C        0.744   0.5598   0.6747     C
O        0.746   0.2189   0.5353     O
H       0.7573   0.0637   0.7898     H
C       0.7574   0.5145   0.2868     C
C       0.7714   0.8679   0.7901     C
O       0.7732   0.7367   0.5075     O
C        0.778   0.1341   0.6809     C
C       0.7782   0.3269   0.7897     C
C       0.7803   0.2034   0.3498     C
C       0.7842    0.829    0.742     C
H       0.7861   0.0673   0.8976     H
O       0.7896   0.3788   0.3794     O
H       0.7915   0.8361   0.3654     H
C        0.792   0.1563    0.303     C
C       0.7934   0.8589   0.3991     C
C        0.794   0.4016   0.7391     C
C       0.7975   0.0915   0.7503     C
C        0.802    0.663   0.1857     C
O       0.8028   0.7419   0.6526     O
H       0.8082    0.983   0.8847     H
H       0.8134   0.1362   0.9966     H
C        0.816   0.0725   0.2096     C
O       0.8161   0.7406   0.1374     O
C       0.8175   0.2169   0.5446     C
H       0.8198   0.8702   0.8025     H
O       0.8205   0.0336    0.164     O
C       0.8205   0.7892   0.4666     C
H       0.8222    0.278   0.7922     H
O       0.8244   0.5626    0.646     O
H       0.8304   0.8527   0.9342     H
C       0.8331   0.0192   0.8923     C
H       0.8353   0.8938   0.3752     H
C       0.8375   0.1764   0.6204     C
C       0.8384   0.5267   0.2699     C
H       0.8413   0.8042   0.7227     H
O       0.8479   0.2227   0.3466     O
H       0.8479   0.6098   0.7621     H
H       0.8494    0.404   0.7073     H
H         0.85   0.1298   0.9175     H
C         0.86   0.6004   0.2193     C
C       0.8622   0.1106   0.9659     C
H       0.8658   0.8127   0.2151     H
C       0.8677    0.972   0.9627     C
C        0.874   0.1338   0.2603     C
C       0.8752   0.0161   0.0013     C
C       0.8759   0.0897   0.7617     C
Mn     0.87869  0.66867  0.58638    Mn
O       0.8793   0.2478    0.493     O
H       0.8815   0.4838   0.2934     H
C       0.8853   0.8838   0.9929     C
C       0.8867   0.0926   0.2144     C
C       0.8869   0.8358   0.9468     C
O       0.8913   0.7809   0.4825     O
C       0.8942   0.9728   0.0722     C
H       0.8993   0.7765   0.9752     H
C          0.9   0.8411   0.0646     C
O       0.9012   0.0473   0.8287     O
C       0.9023   0.8856    0.105     C
C       0.9039    0.017    0.114     C
C       0.9059   0.7488   0.1023     C
C       0.9062   0.5812   0.7712     C
H       0.9076   0.5757   0.8197     H
Mn     0.90969  0.27948  0.37851    Mn
H       0.9127   0.8804   0.2045     H
C       0.9134   0.8404   0.1854     C
H       0.9149   0.1258    0.961     H
C       0.9158   0.1739   0.6336     C
H       0.9176    0.606   0.2085     H
H       0.9206   0.0694   0.0798     H
H       0.9213   0.5264   0.7688     H
H       0.9222   0.1472   0.2629     H
H       0.9314   0.7212   0.0663     H
H       0.9319   0.8479   0.9021     H
C       0.9352   0.1317   0.7016     C
H        0.942    0.724    0.139     H
H       0.9428   0.0782   0.1865     H
H       0.9498   0.9826    0.142     H
H       0.9561   0.2021   0.5945     H
H       0.9687   0.7995   0.1871     H
C        0.972   0.6311    0.713     C
O       0.9812   0.6445   0.6449     O
O       0.9839   0.3417   0.2681     O
H       0.9887   0.1307   0.7085     H
