data_I
_chemical_name_common  '/home/zhangsd/repos/MofS-CGCNN/ML/data/TSD/clean_cifs/SETQIT_clean'
_cell_length_a 20.53080
_cell_length_b  9.17090
_cell_length_c  6.88010
_cell_angle_alpha 90.00000
_cell_angle_beta  113.07200
_cell_angle_gamma 90.00000
_space_group_name_H-M_alt      'P 1'


loop_
_space_group_symop_operation_xyz
  'x, y, z' 

loop_
_atom_site_label
_atom_site_fract_x
_atom_site_fract_y
_atom_site_fract_z
_atom_site_type_symbol
Fe      0.0054   0.0038    0.954    Fe
Fe      0.0054   0.9962    0.454    Fe
O       0.0067   0.0989    0.196     O
O       0.0067   0.9011    0.696     O
O       0.0714   0.1253   0.6241     O
O       0.0714   0.8747   0.1241     O
O       0.0885   0.0973   0.9581     O
O       0.0885   0.9027   0.4581     O
C       0.1117   0.1328   0.8187     C
C       0.1117   0.8672   0.3187     C
H       0.1814   0.2047   0.5823     H
H       0.1814   0.7953   0.0823     H
C       0.1858    0.183   0.8829     C
C       0.1858    0.817   0.3829     C
H       0.2096   0.1745   0.2005     H
H       0.2096   0.8255   0.7005     H
C       0.2118    0.215   0.7325     C
C       0.2118    0.785   0.2325     C
C       0.2283   0.1974   0.0928     C
C       0.2283   0.8026   0.5928     C
C       0.2803   0.2614    0.792     C
C       0.2803   0.7386    0.292     C
C       0.2968   0.2438   0.1523     C
C       0.2968   0.7562   0.6523     C
H        0.299   0.2843   0.6843     H
H        0.299   0.7157   0.1843     H
C       0.3228   0.2758   0.0019     C
C       0.3228   0.7242   0.5019     C
H       0.3272   0.2541   0.3025     H
H       0.3272   0.7459   0.8025     H
C       0.3969    0.326   0.0661     C
C       0.3969    0.674   0.5661     C
O       0.4201   0.3615   0.9267     O
O       0.4201   0.6385   0.4267     O
O       0.4372   0.3335   0.2607     O
O       0.4372   0.6665   0.7607     O
Fe      0.5054   0.4962    0.454    Fe
Fe      0.5054   0.5038    0.954    Fe
O       0.5067   0.4011    0.696     O
O       0.5067   0.5989    0.196     O
O       0.5714   0.3747   0.1241     O
O       0.5714   0.6253   0.6241     O
O       0.5885   0.4027   0.4581     O
O       0.5885   0.5973   0.9581     O
C       0.6117   0.3672   0.3187     C
C       0.6117   0.6328   0.8187     C
H       0.6814   0.2953   0.0823     H
H       0.6814   0.7047   0.5823     H
C       0.6858    0.317   0.3829     C
C       0.6858    0.683   0.8829     C
H       0.7096   0.3255   0.7005     H
H       0.7096   0.6745   0.2005     H
C       0.7118    0.285   0.2325     C
C       0.7118    0.715   0.7325     C
C       0.7283   0.3026   0.5928     C
C       0.7283   0.6974   0.0928     C
C       0.7803   0.2386    0.292     C
C       0.7803   0.7614    0.792     C
C       0.7968   0.2562   0.6523     C
C       0.7968   0.7438   0.1523     C
H        0.799   0.2157   0.1843     H
H        0.799   0.7843   0.6843     H
C       0.8228   0.2242   0.5019     C
C       0.8228   0.7758   0.0019     C
H       0.8272   0.2459   0.8025     H
H       0.8272   0.7541   0.3025     H
C       0.8969    0.174   0.5661     C
C       0.8969    0.826   0.0661     C
O       0.9201   0.1385   0.4267     O
O       0.9201   0.8615   0.9267     O
O       0.9372   0.1665   0.7607     O
O       0.9372   0.8335   0.2607     O
