data_I
_chemical_name_common  '/home/zhangsd/repos/MofS-CGCNN/ML/data/TSD/clean_cifs/SETRAM_clean'
_cell_length_a 31.72230
_cell_length_b 28.92340
_cell_length_c  6.89650
_cell_angle_alpha 90.00000
_cell_angle_beta  90.00000
_cell_angle_gamma 90.00000
_space_group_name_H-M_alt      'P 1'


loop_
_space_group_symop_operation_xyz
  'x, y, z' 

loop_
_atom_site_label
_atom_site_fract_x
_atom_site_fract_y
_atom_site_fract_z
_atom_site_type_symbol
Fe         0.0      0.0      0.0    Fe
Fe         0.0      0.0      0.5    Fe
O          0.0   0.0363     0.25     O
O          0.0   0.4637     0.75     O
Fe         0.0      0.5      0.0    Fe
Fe         0.0      0.5      0.5    Fe
O          0.0   0.5363     0.25     O
O          0.0   0.9637     0.75     O
O       0.0414   0.0481    0.574     O
O       0.0414   0.4519    0.074     O
O       0.0414   0.5481    0.926     O
O       0.0414   0.9519    0.426     O
O       0.0432   0.0462   0.8927     O
O       0.0432   0.4538   0.3927     O
O       0.0432   0.5462   0.6073     O
O       0.0432   0.9538   0.1073     O
C       0.0571    0.062   0.7331     C
C       0.0571    0.438   0.2331     C
C       0.0571    0.562   0.7669     C
C       0.0571    0.938   0.2669     C
C       0.0912   0.0964   0.7326     C
C       0.0912   0.4036   0.2326     C
C       0.0912   0.5964   0.7674     C
C       0.0912   0.9036   0.2674     C
H       0.0957   0.1006   0.4373     H
H       0.0957   0.1013   0.0278     H
H       0.0957   0.3987   0.5278     H
H       0.0957   0.3994   0.9373     H
H       0.0957   0.6006   0.0627     H
H       0.0957   0.6013   0.4722     H
H       0.0957   0.8987   0.9722     H
H       0.0957   0.8994   0.5627     H
C        0.107   0.1126   0.9045     C
C        0.107   0.3874   0.4045     C
C        0.107   0.6126   0.5955     C
C        0.107   0.8874   0.0955     C
C       0.1071   0.1122   0.5602     C
C       0.1071   0.3878   0.0602     C
C       0.1071   0.6122   0.9398     C
C       0.1071   0.8878   0.4398     C
C       0.1389   0.1443   0.5596     C
C       0.1389   0.1447    0.904     C
C       0.1389   0.3553    0.404     C
C       0.1389   0.3557   0.0596     C
C       0.1389   0.6443   0.9404     C
C       0.1389   0.6447    0.596     C
C       0.1389   0.8553    0.096     C
C       0.1389   0.8557   0.4404     C
H       0.1502   0.1563   0.0269     H
H       0.1502   0.3437   0.5269     H
H       0.1502   0.6563   0.4731     H
H       0.1502   0.8437   0.9731     H
H       0.1503   0.1556   0.4364     H
H       0.1503   0.3444   0.9364     H
H       0.1503   0.6556   0.0636     H
H       0.1503   0.8444   0.5636     H
C       0.1548   0.1605   0.7316     C
C       0.1548   0.3395   0.2316     C
C       0.1548   0.6605   0.7684     C
C       0.1548   0.8395   0.2684     C
C       0.1889   0.1949    0.731     C
C       0.1889   0.3051    0.231     C
C       0.1889   0.6949    0.769     C
C       0.1889   0.8051    0.269     C
O       0.2024   0.2114     0.89     O
O       0.2024   0.2886     0.39     O
O       0.2024   0.7114     0.61     O
O       0.2024   0.7886     0.11     O
O       0.2049   0.2082   0.5716     O
O       0.2049   0.2918   0.0716     O
O       0.2049   0.7082   0.9284     O
O       0.2049   0.7918   0.4284     O
O         0.25   0.2209     0.25     O
Fe        0.25     0.25      0.0    Fe
Fe        0.25     0.25      0.5    Fe
O         0.25   0.2791     0.75     O
O         0.25   0.7209     0.25     O
Fe        0.25     0.75      0.0    Fe
Fe        0.25     0.75      0.5    Fe
O         0.25   0.7791     0.75     O
O       0.2951   0.2082   0.9284     O
O       0.2951   0.2918   0.4284     O
O       0.2951   0.7082   0.5716     O
O       0.2951   0.7918   0.0716     O
O       0.2976   0.2114     0.61     O
O       0.2976   0.2886     0.11     O
O       0.2976   0.7114     0.89     O
O       0.2976   0.7886     0.39     O
C       0.3111   0.1949    0.769     C
C       0.3111   0.3051    0.269     C
C       0.3111   0.6949    0.731     C
C       0.3111   0.8051    0.231     C
C       0.3452   0.1605   0.7684     C
C       0.3452   0.3395   0.2684     C
C       0.3452   0.6605   0.7316     C
C       0.3452   0.8395   0.2316     C
H       0.3497   0.1556   0.0636     H
H       0.3497   0.3444   0.5636     H
H       0.3497   0.6556   0.4364     H
H       0.3497   0.8444   0.9364     H
H       0.3498   0.1563   0.4731     H
H       0.3498   0.3437   0.9731     H
H       0.3498   0.6563   0.0269     H
H       0.3498   0.8437   0.5269     H
C       0.3611   0.1443   0.9404     C
C       0.3611   0.1447    0.596     C
C       0.3611   0.3553    0.096     C
C       0.3611   0.3557   0.4404     C
C       0.3611   0.6443   0.5596     C
C       0.3611   0.6447    0.904     C
C       0.3611   0.8553    0.404     C
C       0.3611   0.8557   0.0596     C
C       0.3929   0.1122   0.9398     C
C       0.3929   0.3878   0.4398     C
C       0.3929   0.6122   0.5602     C
C       0.3929   0.8878   0.0602     C
C        0.393   0.1126   0.5955     C
C        0.393   0.3874   0.0955     C
C        0.393   0.6126   0.9045     C
C        0.393   0.8874   0.4045     C
H       0.4043   0.1006   0.0627     H
H       0.4043   0.1013   0.4722     H
H       0.4043   0.3987   0.9722     H
H       0.4043   0.3994   0.5627     H
H       0.4043   0.6006   0.4373     H
H       0.4043   0.6013   0.0278     H
H       0.4043   0.8987   0.5278     H
H       0.4043   0.8994   0.9373     H
C       0.4088   0.0964   0.7674     C
C       0.4088   0.4036   0.2674     C
C       0.4088   0.5964   0.7326     C
C       0.4088   0.9036   0.2326     C
C       0.4429    0.062   0.7669     C
C       0.4429    0.438   0.2669     C
C       0.4429    0.562   0.7331     C
C       0.4429    0.938   0.2331     C
O       0.4568   0.0462   0.6073     O
O       0.4568   0.4538   0.1073     O
O       0.4568   0.5462   0.8927     O
O       0.4568   0.9538   0.3927     O
O       0.4586   0.0481    0.926     O
O       0.4586   0.4519    0.426     O
O       0.4586   0.5481    0.574     O
O       0.4586   0.9519    0.074     O
Fe         0.5      0.0      0.0    Fe
Fe         0.5      0.0      0.5    Fe
O          0.5   0.0363     0.25     O
O          0.5   0.4637     0.75     O
Fe         0.5      0.5      0.0    Fe
Fe         0.5      0.5      0.5    Fe
O          0.5   0.5363     0.25     O
O          0.5   0.9637     0.75     O
O       0.5414   0.0481    0.926     O
O       0.5414   0.4519    0.426     O
O       0.5414   0.5481    0.574     O
O       0.5414   0.9519    0.074     O
O       0.5432   0.0462   0.6073     O
O       0.5432   0.4538   0.1073     O
O       0.5432   0.5462   0.8927     O
O       0.5432   0.9538   0.3927     O
C       0.5571    0.062   0.7669     C
C       0.5571    0.438   0.2669     C
C       0.5571    0.562   0.7331     C
C       0.5571    0.938   0.2331     C
C       0.5912   0.0964   0.7674     C
C       0.5912   0.4036   0.2674     C
C       0.5912   0.5964   0.7326     C
C       0.5912   0.9036   0.2326     C
H       0.5957   0.1006   0.0627     H
H       0.5957   0.1013   0.4722     H
H       0.5957   0.3987   0.9722     H
H       0.5957   0.3994   0.5627     H
H       0.5957   0.6006   0.4373     H
H       0.5957   0.6013   0.0278     H
H       0.5957   0.8987   0.5278     H
H       0.5957   0.8994   0.9373     H
C        0.607   0.1126   0.5955     C
C        0.607   0.3874   0.0955     C
C        0.607   0.6126   0.9045     C
C        0.607   0.8874   0.4045     C
C       0.6071   0.1122   0.9398     C
C       0.6071   0.3878   0.4398     C
C       0.6071   0.6122   0.5602     C
C       0.6071   0.8878   0.0602     C
C       0.6389   0.1443   0.9404     C
C       0.6389   0.1447    0.596     C
C       0.6389   0.3553    0.096     C
C       0.6389   0.3557   0.4404     C
C       0.6389   0.6443   0.5596     C
C       0.6389   0.6447    0.904     C
C       0.6389   0.8553    0.404     C
C       0.6389   0.8557   0.0596     C
H       0.6502   0.1563   0.4731     H
H       0.6502   0.3437   0.9731     H
H       0.6502   0.6563   0.0269     H
H       0.6502   0.8437   0.5269     H
H       0.6503   0.1556   0.0636     H
H       0.6503   0.3444   0.5636     H
H       0.6503   0.6556   0.4364     H
H       0.6503   0.8444   0.9364     H
C       0.6548   0.1605   0.7684     C
C       0.6548   0.3395   0.2684     C
C       0.6548   0.6605   0.7316     C
C       0.6548   0.8395   0.2316     C
C       0.6889   0.1949    0.769     C
C       0.6889   0.3051    0.269     C
C       0.6889   0.6949    0.731     C
C       0.6889   0.8051    0.231     C
O       0.7024   0.2114     0.61     O
O       0.7024   0.2886     0.11     O
O       0.7024   0.7114     0.89     O
O       0.7024   0.7886     0.39     O
O       0.7049   0.2082   0.9284     O
O       0.7049   0.2918   0.4284     O
O       0.7049   0.7082   0.5716     O
O       0.7049   0.7918   0.0716     O
O         0.75   0.2209     0.25     O
Fe        0.75     0.25      0.0    Fe
Fe        0.75     0.25      0.5    Fe
O         0.75   0.2791     0.75     O
O         0.75   0.7209     0.25     O
Fe        0.75     0.75      0.0    Fe
Fe        0.75     0.75      0.5    Fe
O         0.75   0.7791     0.75     O
O       0.7951   0.2082   0.5716     O
O       0.7951   0.2918   0.0716     O
O       0.7951   0.7082   0.9284     O
O       0.7951   0.7918   0.4284     O
O       0.7976   0.2114     0.89     O
O       0.7976   0.2886     0.39     O
O       0.7976   0.7114     0.61     O
O       0.7976   0.7886     0.11     O
C       0.8111   0.1949    0.731     C
C       0.8111   0.3051    0.231     C
C       0.8111   0.6949    0.769     C
C       0.8111   0.8051    0.269     C
C       0.8452   0.1605   0.7316     C
C       0.8452   0.3395   0.2316     C
C       0.8452   0.6605   0.7684     C
C       0.8452   0.8395   0.2684     C
H       0.8497   0.1556   0.4364     H
H       0.8497   0.3444   0.9364     H
H       0.8497   0.6556   0.0636     H
H       0.8497   0.8444   0.5636     H
H       0.8498   0.1563   0.0269     H
H       0.8498   0.3437   0.5269     H
H       0.8498   0.6563   0.4731     H
H       0.8498   0.8437   0.9731     H
C       0.8611   0.1443   0.5596     C
C       0.8611   0.1447    0.904     C
C       0.8611   0.3553    0.404     C
C       0.8611   0.3557   0.0596     C
C       0.8611   0.6443   0.9404     C
C       0.8611   0.6447    0.596     C
C       0.8611   0.8553    0.096     C
C       0.8611   0.8557   0.4404     C
C       0.8929   0.1122   0.5602     C
C       0.8929   0.3878   0.0602     C
C       0.8929   0.6122   0.9398     C
C       0.8929   0.8878   0.4398     C
C        0.893   0.1126   0.9045     C
C        0.893   0.3874   0.4045     C
C        0.893   0.6126   0.5955     C
C        0.893   0.8874   0.0955     C
H       0.9043   0.1006   0.4373     H
H       0.9043   0.1013   0.0278     H
H       0.9043   0.3987   0.5278     H
H       0.9043   0.3994   0.9373     H
H       0.9043   0.6006   0.0627     H
H       0.9043   0.6013   0.4722     H
H       0.9043   0.8987   0.9722     H
H       0.9043   0.8994   0.5627     H
C       0.9088   0.0964   0.7326     C
C       0.9088   0.4036   0.2326     C
C       0.9088   0.5964   0.7674     C
C       0.9088   0.9036   0.2674     C
C       0.9429    0.062   0.7331     C
C       0.9429    0.438   0.2331     C
C       0.9429    0.562   0.7669     C
C       0.9429    0.938   0.2669     C
O       0.9568   0.0462   0.8927     O
O       0.9568   0.4538   0.3927     O
O       0.9568   0.5462   0.6073     O
O       0.9568   0.9538   0.1073     O
O       0.9586   0.0481    0.574     O
O       0.9586   0.4519    0.074     O
O       0.9586   0.5481    0.926     O
O       0.9586   0.9519    0.426     O
