data_I
_chemical_name_common  '/home/zhangsd/repos/MofS-CGCNN/ML/data/TSD/clean_cifs/SIRBIG07_clean'
_cell_length_a  8.99000
_cell_length_b 12.14000
_cell_length_c  8.51100
_cell_angle_alpha 90.00000
_cell_angle_beta  90.00000
_cell_angle_gamma 90.00000
_space_group_name_H-M_alt      'P 1'


loop_
_space_group_symop_operation_xyz
  'x, y, z' 

loop_
_atom_site_label
_atom_site_fract_x
_atom_site_fract_y
_atom_site_fract_z
_atom_site_type_symbol
Mg         0.0      0.0      0.0    Mg
O          0.0   0.1601    0.081     O
C          0.0     0.25   0.0544     C
O          0.0   0.3399    0.081     O
Mg         0.0      0.5      0.0    Mg
O          0.0   0.6601    0.919     O
C          0.0     0.75   0.9456     C
O          0.0   0.8399    0.919     O
O       0.1615   0.0467   0.8366     O
O       0.1615   0.4533   0.8366     O
O       0.1615   0.5467   0.1634     O
O       0.1615   0.9533   0.1634     O
C         0.25   0.0015     0.75     C
C         0.25   0.4985     0.75     C
C         0.25   0.5015     0.25     C
C         0.25   0.9985     0.25     C
O       0.3385   0.0467   0.6634     O
O       0.3385   0.4533   0.6634     O
O       0.3385   0.5467   0.3366     O
O       0.3385   0.9533   0.3366     O
Mg         0.5      0.0      0.5    Mg
O          0.5   0.1601    0.419     O
C          0.5     0.25   0.4456     C
O          0.5   0.3399    0.419     O
Mg         0.5      0.5      0.5    Mg
O          0.5   0.6601    0.581     O
C          0.5     0.75   0.5544     C
O          0.5   0.8399    0.581     O
O       0.6615   0.0467   0.6634     O
O       0.6615   0.4533   0.6634     O
O       0.6615   0.5467   0.3366     O
O       0.6615   0.9533   0.3366     O
C         0.75   0.0015     0.75     C
C         0.75   0.4985     0.75     C
C         0.75   0.5015     0.25     C
C         0.75   0.9985     0.25     C
O       0.8385   0.0467   0.8366     O
O       0.8385   0.4533   0.8366     O
O       0.8385   0.5467   0.1634     O
O       0.8385   0.9533   0.1634     O
