data_I
_chemical_name_common  '/home/zhangsd/repos/MofS-CGCNN/ML/data/TSD/clean_cifs/SISFEH_clean'
_cell_length_a  8.76350
_cell_length_b 11.46780
_cell_length_c 11.46780
_cell_angle_alpha 106.05600
_cell_angle_beta  103.82600
_cell_angle_gamma 76.17370
_space_group_name_H-M_alt      'P 1'


loop_
_space_group_symop_operation_xyz
  'x, y, z' 

loop_
_atom_site_label
_atom_site_fract_x
_atom_site_fract_y
_atom_site_fract_z
_atom_site_type_symbol
Ni         0.0      0.5     -0.0    Ni
H       0.0243   0.4599   0.3063     H
O       0.0328  0.43269  0.36977     O
H       0.0361   0.3551   0.3473     H
H        0.038   0.8959   0.2667     H
C       0.0401  0.85518  0.65302     C
C       0.0453  0.08328  0.68972     C
O       0.0693   0.5277  0.18732     O
H       0.0703   0.2583   0.7027     H
O       0.0736  0.12217  0.29223     O
O       0.1039  0.75035  0.60459     O
C       0.1055  0.96056  0.64176     C
C       0.1103  0.17536  0.67224     C
C       0.1903  0.57981  0.23303     C
N       0.2033  0.56523  0.02235     N
H       0.2265   0.5473   0.8521     H
C        0.232  0.93429  0.57985     C
C       0.2351  0.14081  0.60903     C
O       0.2484  0.60742  0.34348     O
Sr        0.25  0.53835  0.53835    Sr
O       0.2516  0.34348  0.60742     O
C       0.2649  0.60903  0.14081     C
C        0.268  0.57985  0.93429     C
H       0.2735   0.8521   0.5473     H
N       0.2967  0.02235  0.56523     N
C       0.3097  0.23303  0.57981     C
C       0.3897  0.67224  0.17536     C
C       0.3945  0.64176  0.96056     C
O       0.3961  0.60459  0.75035     O
O       0.4264  0.29223  0.12217     O
H       0.4297   0.7027   0.2583     H
O       0.4307  0.18732   0.5277     O
C       0.4547  0.68972  0.08328     C
C       0.4599  0.65302  0.85518     C
H        0.462   0.2667   0.8959     H
H       0.4639   0.3473   0.3551     H
O       0.4672  0.36977  0.43269     O
H       0.4757   0.3063   0.4599     H
Ni         0.5     -0.0      0.5    Ni
H       0.5243   0.6937   0.5401     H
O       0.5328  0.63023  0.56731     O
H       0.5361   0.6527   0.6449     H
H        0.538   0.7333   0.1041     H
C       0.5401  0.34698  0.14482     C
C       0.5453  0.31028  0.91672     C
O       0.5693  0.81268   0.4723     O
H       0.5703   0.2973   0.7417     H
O       0.5736  0.70777  0.87783     O
O       0.6039  0.39541  0.24965     O
C       0.6055  0.35824  0.03944     C
C       0.6103  0.32776  0.82464     C
C       0.6903  0.76697  0.42019     C
N       0.7033  0.97765  0.43477     N
H       0.7265   0.1479   0.4527     H
C        0.732  0.42015  0.06571     C
C       0.7351  0.39097  0.85919     C
O       0.7484  0.65652  0.39258     O
Sr        0.75  0.46165  0.46165    Sr
O       0.7516  0.39258  0.65652     O
C       0.7649  0.85919  0.39097     C
C        0.768  0.06571  0.42015     C
H       0.7735   0.4527   0.1479     H
N       0.7967  0.43477  0.97765     N
C       0.8097  0.42019  0.76697     C
C       0.8897  0.82464  0.32776     C
C       0.8945  0.03944  0.35824     C
O       0.8961  0.24965  0.39541     O
O       0.9264  0.87783  0.70777     O
H       0.9297   0.7417   0.2973     H
O       0.9307   0.4723  0.81268     O
C       0.9547  0.91672  0.31028     C
C       0.9599  0.14482  0.34698     C
H        0.962   0.1041   0.7333     H
H       0.9639   0.6449   0.6527     H
O       0.9672  0.56731  0.63023     O
H       0.9757   0.5401   0.6937     H
