data_I
_chemical_name_common  '/home/zhangsd/repos/MofS-CGCNN/ML/data/TSD/clean_cifs/SIVGOV_clean'
_cell_length_a 12.98900
_cell_length_b 13.82180
_cell_length_c  9.27660
_cell_angle_alpha 90.00000
_cell_angle_beta  124.43000
_cell_angle_gamma 90.00000
_space_group_name_H-M_alt      'P 1'


loop_
_space_group_symop_operation_xyz
  'x, y, z' 

loop_
_atom_site_label
_atom_site_fract_x
_atom_site_fract_y
_atom_site_fract_z
_atom_site_type_symbol
H       0.0103   0.4231   0.9368     H
H       0.0103   0.5769   0.4368     H
N       0.0456   0.3006   0.2324     N
N       0.0456   0.6994   0.7324     N
C       0.0462   0.1198   0.1993     C
C       0.0462   0.8802   0.6993     C
H       0.0594   0.4643   0.8289     H
H       0.0594   0.5357   0.3289     H
C       0.0823   0.4304   0.9334     C
C       0.0823   0.5696   0.4334     C
H       0.0834   0.1054   0.3205     H
H       0.0834   0.8946   0.8205     H
H       0.1096   0.1202   0.1763     H
H       0.1096   0.8798   0.6763     H
H       0.1144   0.3677   0.9341     H
H       0.1144   0.6323   0.4341     H
C       0.1815   0.4872   0.0915     C
C       0.1815   0.5128   0.5915     C
Zn     0.22046  0.34978  0.38318    Zn
Zn     0.22046  0.65022  0.88318    Zn
N       0.2256   0.4282   0.5802     N
N       0.2256   0.5718   0.0802     N
N        0.235   0.4605   0.2567     N
N        0.235   0.5395   0.7567     N
N       0.3116   0.4023   0.7488     N
N       0.3116   0.5977   0.2488     N
N       0.3154   0.4665   0.8535     N
N       0.3154   0.5335   0.3535     N
N       0.3498   0.1677   0.5469     N
N       0.3498   0.8323   0.0469     N
N       0.3674   0.2664   0.5439     N
N       0.3674   0.7336   0.0439     N
N       0.4563   0.1287   0.6612     N
N       0.4563   0.8713   0.1612     N
H       0.4849   0.4286   0.6282     H
H       0.4849   0.5714   0.1282     H
C       0.4851   0.2833   0.6572     C
C       0.4851   0.7167   0.1572     C
H       0.5103   0.0769   0.4368     H
H       0.5103   0.9231   0.9368     H
N       0.5456   0.1994   0.7324     N
N       0.5456   0.8006   0.2324     N
C       0.5462   0.3802   0.6993     C
C       0.5462   0.6198   0.1993     C
H       0.5594   0.0357   0.3289     H
H       0.5594   0.9643   0.8289     H
C       0.5823   0.0696   0.4334     C
C       0.5823   0.9304   0.9334     C
H       0.5834   0.3946   0.8205     H
H       0.5834   0.6054   0.3205     H
H       0.6096   0.3798   0.6763     H
H       0.6096   0.6202   0.1763     H
H       0.6144   0.1323   0.4341     H
H       0.6144   0.8677   0.9341     H
C       0.6815   0.0128   0.5915     C
C       0.6815   0.9872   0.0915     C
Zn     0.72046  0.15022  0.88318    Zn
Zn     0.72046  0.84978  0.38318    Zn
N       0.7256   0.0718   0.0802     N
N       0.7256   0.9282   0.5802     N
N        0.735   0.0395   0.7567     N
N        0.735   0.9605   0.2567     N
N       0.8116   0.0977   0.2488     N
N       0.8116   0.9023   0.7488     N
N       0.8154   0.0335   0.3535     N
N       0.8154   0.9665   0.8535     N
N       0.8498   0.3323   0.0469     N
N       0.8498   0.6677   0.5469     N
N       0.8674   0.2336   0.0439     N
N       0.8674   0.7664   0.5439     N
N       0.9563   0.3713   0.1612     N
N       0.9563   0.6287   0.6612     N
H       0.9849   0.0714   0.1282     H
H       0.9849   0.9286   0.6282     H
C       0.9851   0.2167   0.1572     C
C       0.9851   0.7833   0.6572     C
