data_I
_chemical_name_common  '/home/zhangsd/repos/MofS-CGCNN/ML/data/TSD/clean_cifs/SIVJIS_clean'
_cell_length_a 12.04800
_cell_length_b 12.28000
_cell_length_c 19.09200
_cell_angle_alpha 91.92000
_cell_angle_beta  98.10000
_cell_angle_gamma 117.88000
_space_group_name_H-M_alt      'P 1'


loop_
_space_group_symop_operation_xyz
  'x, y, z' 

loop_
_atom_site_label
_atom_site_fract_x
_atom_site_fract_y
_atom_site_fract_z
_atom_site_type_symbol
C       0.0022   0.9134   0.2498     C
H       0.0169    0.651   0.1955     H
C       0.0173   0.0095   0.2097     C
C       0.0241    0.432    0.587     C
C       0.0301   0.5867   0.2117     C
O       0.0327   0.6525   0.3846     O
C        0.034   0.5483   0.4826     C
C       0.0409   0.5951   0.7399     C
H       0.0486   0.9989   0.8258     H
N       0.0623   0.5038   0.7627     N
C       0.0721   0.4025   0.2608     C
H       0.0836   0.3387   0.2793     H
H       0.0972   0.8655   0.3278     H
C       0.1038   0.9289   0.3004     C
H       0.1065    0.661   0.7236     H
C       0.1236   0.2054   0.7608     C
O       0.1258   0.2896  0.72426     O
C       0.1315    0.118    0.223     C
H       0.1403   0.1825   0.1962     H
O       0.1427   0.5094   0.6103     O
C       0.1434     0.62   0.5129     C
C       0.1456   0.5904    0.208     C
C       0.1697   0.4982   0.2331     C
C       0.1993   0.6018   0.5792     C
H        0.207   0.6551   0.1886     H
O        0.214   0.2083   0.8027     O
C       0.2163   0.0413   0.3098     C
N       0.2301   0.1356  0.27249     N
Cd     0.23375  0.49291  0.72079    Cd
H       0.2801   0.2232   0.9332     H
H        0.285   0.0511   0.3435     H
H       0.2931   0.4174    0.406     H
C       0.2943   0.4998  0.23509     C
H       0.2954   0.4587   0.5246     H
H       0.3001   0.8611   0.8186     H
H       0.3095    0.245   0.0553     H
H        0.311   0.0502   0.8439     H
O       0.3192   0.4374  0.27918     O
H       0.3209   0.5241   0.9391     H
O         0.33   0.7003   0.7521     O
C       0.3319   0.4113  0.51066     C
C       0.3333   0.3883  0.43967     C
C       0.3496   0.9282   0.7956     C
H       0.3558   0.5605   0.0609     H
C       0.3579   0.0426   0.8111     C
C       0.3615   0.2738   0.9591     C
O       0.3652   0.5647  0.19356     O
C       0.3783   0.2885   0.0325     C
O       0.3842   0.4861  0.65858     O
C       0.3859   0.3623  0.56111     C
C       0.3868   0.3878  0.63944     C
O       0.3897   0.5063  0.81892     O
N       0.3902   0.3259  0.41733     N
O        0.393   0.3118  0.67907     O
C       0.4028   0.5762  0.96404     C
C       0.4075   0.7898    0.725     C
C       0.4161   0.9145   0.7454     C
Cd     0.42096  0.32541  0.29919    Cd
Cd     0.42124  0.32914  0.79975    Cd
C       0.4247   0.5976  0.03734     C
N       0.4301   0.1432  0.78126     N
O       0.4308   0.3148  0.18133     O
C         0.44   0.2937  0.53764     C
C       0.4417   0.2791   0.4661     C
H       0.4529   0.8013   0.2877     H
N        0.459   0.3303  0.92387     N
H       0.4607   0.9879   0.3187     H
H       0.4749   0.2579   0.5698     H
O       0.4772   0.7876  0.68386     O
H       0.4804   0.2346    0.451     H
C       0.4876   0.6073  0.84884     C
C        0.492   0.0177   0.7144     C
C       0.4962   0.1296   0.7335     C
C       0.4965   0.3673    0.072     C
C       0.5035   0.6327    0.928     C
C       0.5038   0.8704   0.2665     C
C        0.508   0.9823   0.2856     C
C       0.5124   0.3927  0.15116     C
H       0.5196   0.7654    0.549     H
O       0.5228   0.2124  0.31614     O
H       0.5251   0.7421   0.4302     H
H       0.5393   0.0121   0.6813     H
N        0.541   0.6697  0.07613     N
H       0.5471   0.1987   0.7123     H
C       0.5583   0.7209   0.5339     C
C         0.56   0.7063  0.46236     C
O       0.5692   0.6852  0.81867     O
N       0.5699   0.8568  0.21874     N
C       0.5753   0.4024  0.96266     C
Cd     0.57876  0.67086  0.20026    Cd
Cd     0.57904  0.67459  0.70081    Cd
C       0.5839   0.0855   0.2546     C
C       0.5925   0.2102    0.275     C
C       0.5972   0.4238  0.03596     C
O        0.607   0.6882  0.32093     O
N       0.6098   0.6741  0.58267     N
O       0.6103   0.4937  0.18108     O
C       0.6132   0.6122  0.36056     C
C       0.6141   0.6377  0.43889     C
O       0.6158   0.5139  0.34142     O
C       0.6217   0.7115   0.9675     C
O       0.6348   0.4353  0.80644     O
C       0.6385   0.7262   0.0409     C
C       0.6421   0.9574   0.1889     C
H       0.6442   0.4395   0.9391     H
C       0.6504   0.0718   0.2044     C
C       0.6667   0.6117  0.56033     C
C       0.6681   0.5887  0.48934     C
O         0.67   0.2997   0.2479     O
H       0.6791   0.4759   0.0609     H
O       0.6808   0.5626  0.72082     O
H        0.689   0.9498   0.1561     H
H       0.6905    0.755   0.9447     H
H       0.6999   0.1389   0.1814     H
H       0.7046   0.5413   0.4754     H
C       0.7057   0.5002  0.76491     C
H       0.7069   0.5826    0.594     H
H        0.715   0.9489   0.6565     H
H       0.7199   0.7768   0.0668     H
Cd     0.76625  0.50709  0.27921    Cd
N       0.7699   0.8644  0.72751     N
C       0.7837   0.9587   0.6902     C
O        0.786   0.7917   0.1973     O
H        0.793   0.3449   0.8114     H
C       0.8007   0.3982   0.4208     C
C       0.8303   0.5018   0.7669     C
C       0.8544   0.4096    0.792     C
C       0.8566     0.38   0.4871     C
N       0.8573   0.4906   0.3897     N
H       0.8597   0.8175   0.8038     H
C       0.8685    0.882    0.777     C
O       0.8742   0.7104  0.27574     O
C       0.8764   0.7946   0.2392     C
H       0.8935    0.339   0.2764     H
C       0.8962   0.0711   0.6996     C
H       0.9028   0.1345   0.6722     H
H       0.9164   0.6613   0.7207     H
C       0.9279   0.5975   0.7392     C
N       0.9377   0.4962   0.2373     N
H       0.9514   0.0011   0.1742     H
C       0.9591   0.4049   0.2601     C
C        0.966   0.4517   0.5174     C
O       0.9673   0.3475   0.6154     O
C       0.9699   0.4133   0.7883     C
C       0.9759    0.568    0.413     C
C       0.9827   0.9905   0.7903     C
H       0.9831    0.349   0.8045     H
C       0.9978   0.0866   0.7502     C
