data_I
_chemical_name_common  '/home/zhangsd/repos/MofS-CGCNN/ML/data/TSD/clean_cifs/SIVVAW_clean'
_cell_length_a  9.86000
_cell_length_b 11.65000
_cell_length_c 13.11300
_cell_angle_alpha 90.00000
_cell_angle_beta  90.00000
_cell_angle_gamma 101.99000
_space_group_name_H-M_alt      'P 1'


loop_
_space_group_symop_operation_xyz
  'x, y, z' 

loop_
_atom_site_label
_atom_site_fract_x
_atom_site_fract_y
_atom_site_fract_z
_atom_site_type_symbol
C       0.0117   0.2226   0.2459     C
C       0.0117   0.7226   0.2541     C
H       0.0211   0.1088   0.1328     H
H       0.0211   0.6088   0.3672     H
C       0.0304   0.1471   0.8908     C
C       0.0304   0.6471   0.6092     C
C       0.0397   0.3546   0.6683     C
C       0.0397   0.8546   0.8317     C
C       0.0807   0.2312   0.8047     C
C       0.0807   0.7312   0.6953     C
O       0.0964   0.3942   0.3922     O
O       0.0964   0.8942   0.1078     O
H       0.1065    0.243   0.2584     H
H       0.1065    0.743   0.2416     H
O       0.1179   0.1272   0.9536     O
O       0.1179   0.6272   0.5464     O
N       0.1746   0.3787   0.6423     N
N       0.1746   0.8787   0.8577     N
C        0.221    0.263   0.7845     C
C        0.221    0.763   0.7155     C
Cd     0.25672  0.49402  0.50469    Cd
Cd     0.25672  0.99402  0.99531    Cd
C        0.261    0.336   0.7016     C
C        0.261    0.836   0.7984     C
H       0.2766   0.0026   0.2394     H
H       0.2766   0.5026   0.2606     H
H       0.2858   0.2362   0.8246     H
H       0.2858   0.7362   0.6754     H
C       0.3152   0.0815   0.2284     C
C       0.3152   0.5815   0.2716     C
N       0.3317   0.1216   0.1324     N
N       0.3317   0.6216   0.3676     N
H       0.3368   0.1245   0.3775     H
H       0.3368   0.6245   0.1225     H
C       0.3537   0.1538   0.3117     C
C       0.3537   0.6538   0.1883     C
H       0.3552   0.3569   0.6867     H
H       0.3552   0.8569   0.8133     H
O       0.3808   0.3527   0.4562     O
O       0.3808   0.8527   0.0438     O
C       0.3934   0.2323   0.1163     C
C       0.3934   0.7323   0.3837     C
H       0.4055   0.2592   0.0495     H
H       0.4055   0.7592   0.4505     H
O       0.4163   0.0874   0.8795     O
O       0.4163   0.5874   0.6205     O
C       0.4184   0.2712    0.296     C
C       0.4184   0.7712    0.204     C
C       0.4412   0.3107   0.1963     C
C       0.4412   0.8107   0.3037     C
C       0.4633   0.3537   0.3848     C
C       0.4633   0.8537   0.1152     C
H       0.4872   0.3873   0.1827     H
H       0.4872   0.8873   0.3173     H
H       0.5128   0.1127   0.6827     H
H       0.5128   0.6127   0.8173     H
C       0.5367   0.1463   0.8848     C
C       0.5367   0.6463   0.6152     C
C       0.5588   0.1893   0.6963     C
C       0.5588   0.6893   0.8037     C
C       0.5816   0.2288    0.796     C
C       0.5816   0.7288    0.704     C
O       0.5837   0.4126   0.3795     O
O       0.5837   0.9126   0.1205     O
H       0.5945   0.2408   0.5495     H
H       0.5945   0.7408   0.9505     H
C       0.6066   0.2677   0.6163     C
C       0.6066   0.7677   0.8837     C
O       0.6192   0.1473   0.9562     O
O       0.6192   0.6473   0.5438     O
H       0.6448   0.1431   0.1867     H
H       0.6448   0.6431   0.3133     H
C       0.6463   0.3462   0.8117     C
C       0.6463   0.8462   0.6883     C
H       0.6632   0.3755   0.8775     H
H       0.6632   0.8755   0.6225     H
N       0.6683   0.3784   0.6324     N
N       0.6683   0.8784   0.8676     N
C       0.6848   0.4185   0.7284     C
C       0.6848   0.9185   0.7716     C
H       0.7142   0.2638   0.3246     H
H       0.7142   0.7638   0.1754     H
H       0.7234   0.4974   0.7394     H
H       0.7234   0.9974   0.7606     H
C        0.739    0.164   0.2016     C
C        0.739    0.664   0.2984     C
Cd     0.74328  0.00598  0.00469    Cd
Cd     0.74328  0.50598  0.49531    Cd
C        0.779    0.237   0.2845     C
C        0.779    0.737   0.2155     C
N       0.8254   0.1213   0.1423     N
N       0.8254   0.6213   0.3577     N
O       0.8821   0.3728   0.4536     O
O       0.8821   0.8728   0.0464     O
H       0.8935    0.257   0.7584     H
H       0.8935    0.757   0.7416     H
O       0.9036   0.1058   0.8922     O
O       0.9036   0.6058   0.6078     O
C       0.9193   0.2688   0.3047     C
C       0.9193   0.7688   0.1953     C
C       0.9603   0.1454   0.1683     C
C       0.9603   0.6454   0.3317     C
C       0.9696   0.3529   0.3908     C
C       0.9696   0.8529   0.1092     C
H       0.9789   0.3912   0.6328     H
H       0.9789   0.8912   0.8672     H
C       0.9883   0.2774   0.7459     C
C       0.9883   0.7774   0.7541     C
