data_I
_chemical_name_common  '/home/zhangsd/repos/MofS-CGCNN/ML/data/TSD/clean_cifs/SIWSUO_clean'
_cell_length_a  9.42930
_cell_length_b 10.22590
_cell_length_c 17.15330
_cell_angle_alpha 91.63400
_cell_angle_beta  99.93300
_cell_angle_gamma 93.06200
_space_group_name_H-M_alt      'P 1'


loop_
_space_group_symop_operation_xyz
  'x, y, z' 

loop_
_atom_site_label
_atom_site_fract_x
_atom_site_fract_y
_atom_site_fract_z
_atom_site_type_symbol
H       0.0138   0.8328   0.7969     H
N       0.0145   0.8112   0.3521     N
H       0.0236   0.9903   0.4055     H
C       0.0336   0.0863   0.6092     C
H       0.0442   0.0344   0.8192     H
C       0.0546    0.288   0.8422     C
O       0.0742   0.7547  0.18277     O
O       0.0818   0.3971   0.8767     O
H       0.0837   0.6972   0.7945     H
N       0.0887   0.8858    0.949     N
C       0.0969    0.785   0.8185     C
C       0.0986   0.2731   0.6553     C
H       0.1031   0.3563   0.6793     H
N       0.1059   0.7777   0.9038     N
H       0.1114   0.8931   0.0651     H
C       0.1129   0.8403   0.0203     C
C       0.1353   0.6778   0.9508     C
C       0.1382   0.0673   0.8197     C
N       0.1402   0.7116   0.0251     N
H       0.1505    0.594   0.9328     H
N       0.1642   0.1013   0.5938     N
C       0.1732   0.2002   0.8318     C
O       0.1768    0.028  0.27594     O
Co     0.17828  0.60721  0.13122    Co
O       0.1967   0.4991   0.2286     O
Co     0.19752   0.8211  0.29151    Co
N       0.2051   0.2241    0.624     N
O       0.2233   0.8484   0.7993     O
H       0.2296   0.2734   0.2704     H
C       0.2384   0.5296   0.3007     C
C       0.2444   0.9837   0.8083     C
O       0.2543   0.6435  0.33114     O
C       0.2554   0.0492   0.3426     C
C       0.2555   0.2901   0.3247     C
C       0.2706   0.4193    0.356     C
C       0.2796   0.1878   0.3756     C
C       0.3049   0.4431   0.4369     C
O       0.3073    0.957   0.3834     O
C       0.3118    0.251   0.8326     C
H        0.314   0.5287   0.4577     H
C       0.3159   0.2117   0.4569     C
C       0.3255   0.3404    0.487     C
H       0.3336   0.1427   0.4907     H
H       0.3357   0.3398   0.8438     H
C       0.3499   0.2815    0.623     C
O       0.3533   0.3771  0.56622     O
O       0.3683   0.8471   0.2315     O
C       0.3798   0.0347    0.803     C
O       0.3883   0.6751   0.1525     O
H        0.389   0.3207    0.675     H
H       0.4113   0.2124   0.6125     H
C       0.4158   0.1668   0.8163     C
C       0.4331   0.7808     0.19     C
H       0.4482   0.9793   0.7903     H
H       0.5518   0.0207   0.2097     H
C       0.5669   0.2192     0.81     C
C       0.5842   0.8332   0.1837     C
H       0.5887   0.7876   0.3875     H
H        0.611   0.6793    0.325     H
O       0.6117   0.3249   0.8475     O
C       0.6202   0.9653    0.197     C
O       0.6317   0.1529   0.7685     O
O       0.6467   0.6229  0.43378     O
C       0.6501   0.7185    0.377     C
H       0.6643   0.6602   0.1562     H
H       0.6664   0.8573   0.5093     H
C       0.6745   0.6596    0.513     C
C       0.6841   0.7883   0.5431     C
H        0.686   0.4713   0.5423     H
C       0.6882    0.749   0.1674     C
O       0.6927    0.043   0.6166     O
C       0.6951   0.5569   0.5631     C
C       0.7204   0.8122   0.6244     C
C       0.7294   0.5807    0.644     C
C       0.7445   0.7099   0.6753     C
C       0.7446   0.9508   0.6574     C
O       0.7457   0.3565  0.66886     O
C       0.7556   0.0163   0.1917     C
C       0.7616   0.4704   0.6993     C
H       0.7704   0.7266   0.7296     H
O       0.7767   0.1516   0.2007     O
N       0.7949   0.7759    0.376     N
Co     0.80248   0.1789  0.70849    Co
O       0.8033   0.5009   0.7714     O
Co     0.82172  0.39279  0.86878    Co
O       0.8232    0.972  0.72406     O
C       0.8268   0.7998   0.1682     C
N       0.8358   0.8987   0.4062     N
H       0.8495    0.406   0.0672     H
N       0.8598   0.2884   0.9749     N
C       0.8618   0.9327   0.1803     C
C       0.8647   0.3222   0.0492     C
C       0.8871   0.1597   0.9797     C
H       0.8886   0.1069   0.9349     H
N       0.8941   0.2223   0.0962     N
H       0.8969   0.6437   0.3207     H
C       0.9014   0.7269   0.3447     C
C       0.9031    0.215   0.1815     C
N       0.9113   0.1142    0.051     N
H       0.9163   0.3028   0.2055     H
O       0.9182   0.6029   0.1233     O
O       0.9258   0.2453  0.81723     O
C       0.9454    0.712   0.1578     C
H       0.9558   0.9656   0.1808     H
C       0.9664   0.9137   0.3908     C
H       0.9764   0.0097   0.5945     H
N       0.9855   0.1888   0.6479     N
H       0.9862   0.1672   0.2031     H
