data_I
_chemical_name_common  '/home/zhangsd/repos/MofS-CGCNN/ML/data/TSD/clean_cifs/SIWTEZ_clean'
_cell_length_a 11.07880
_cell_length_b 12.69650
_cell_length_c 12.78790
_cell_angle_alpha 65.77600
_cell_angle_beta  86.62000
_cell_angle_gamma 83.38700
_space_group_name_H-M_alt      'P 1'


loop_
_space_group_symop_operation_xyz
  'x, y, z' 

loop_
_atom_site_label
_atom_site_fract_x
_atom_site_fract_y
_atom_site_fract_z
_atom_site_type_symbol
Co         0.0      0.0      0.0    Co
H       0.0039   0.5824   0.3973     H
C       0.0061   0.8467   0.5497     C
C       0.0239   0.0911   0.2957     C
C       0.0295    0.931    0.798     C
O       0.0394   0.0172   0.1512     O
O       0.0422   0.8175   0.3814     O
C       0.0522   0.8637   0.6393     C
H        0.077    0.796     0.05     H
O       0.0814     0.22   0.7755     O
C       0.0822   0.5606   0.3782     C
C       0.0908   0.8081   0.4717     C
Co     0.10216  0.81873  0.23137    Co
O       0.1063   0.8482   0.0627     O
C       0.1167    0.125   0.4744     C
N       0.1323   0.4538   0.4253     N
H       0.1345   0.8447    0.656     H
O       0.1389   0.8956   0.8199     O
C       0.1467   0.0636   0.3191     C
H       0.1485   0.1351   0.5351     H
N       0.1509   0.6364   0.3009     N
O       0.1723   0.0636   0.9155     O
C       0.1727   0.1549   0.8227     C
C       0.1918   0.0817   0.4078     C
H        0.198   0.0335   0.2757     H
O       0.1984    0.776   0.4984     O
H       0.2218   0.2824   0.6062     H
N       0.2416   0.4613   0.3734     N
Co     0.24955  0.88467  0.94841    Co
C       0.2498   0.5702   0.3003     C
O        0.277    0.852   0.2294     O
H       0.2848    0.291   0.4303     H
C       0.2937   0.1883   0.7647     C
C       0.2942   0.2568   0.6464     C
O       0.3149   0.0583   0.4396     O
H       0.3176   0.5962   0.2543     H
C       0.3278   0.3599   0.3977     C
H       0.3395   0.9329   0.3871     H
H       0.3655   0.0051   0.6689     H
H       0.3661   0.3627   0.3266     H
C       0.3701   0.8518   0.1695     C
O       0.3748    0.877   0.0637     O
C       0.3894   0.9831    0.402     C
N       0.3978   0.1154   0.1998     N
H       0.3994   0.1103   0.9041     H
C       0.4007   0.1538   0.8252     C
N        0.402   0.9025   0.8336     N
C       0.4044   0.2857   0.5903     C
H       0.4148   0.7319   0.3885     H
O       0.4179   0.3519    0.474     O
C       0.4243   0.9624   0.7234     C
H        0.446   0.9345    0.462     H
N       0.4568   0.0469   0.2984     N
H       0.4724   0.1923   0.0475     H
C       0.4856   0.1439   0.1243     C
C       0.4883   0.7508   0.3498     C
C       0.4895   0.8158   0.2318     C
C       0.5105   0.1842   0.7682     C
C       0.5117   0.2492   0.6502     C
C       0.5144   0.8561   0.8757     C
H       0.5276   0.8077   0.9525     H
N       0.5432   0.9531   0.7016     N
H        0.554   0.0655    0.538     H
C       0.5757   0.0376   0.2766     C
O       0.5821   0.6481    0.526     O
H       0.5852   0.2681   0.6115     H
C       0.5956   0.7143   0.4097     C
N        0.598   0.0975   0.1664     N
C       0.5993   0.8462   0.1748     C
H       0.6006   0.8897   0.0959     H
N       0.6022   0.8846   0.8002     N
C       0.6106   0.0169    0.598     C
O       0.6252    0.123   0.9363     O
C       0.6299   0.1482   0.8305     C
H       0.6339   0.6373   0.6734     H
H       0.6345   0.9949   0.3311     H
H       0.6605   0.0671   0.6129     H
C       0.6722   0.6401   0.6023     C
H       0.6824   0.4038   0.7457     H
O       0.6851   0.9417   0.5604     O
C       0.7058   0.7432   0.3536     C
C       0.7063   0.8117   0.2353     C
H       0.7152    0.709   0.5697     H
O        0.723    0.148   0.7706     O
C       0.7502   0.4298   0.6997     C
Co     0.75045  0.11533  0.05159    Co
N       0.7584   0.5387   0.6266     N
H       0.7782   0.7176   0.3938     H
O       0.8016    0.224   0.5016     O
H        0.802   0.9665   0.7243     H
C       0.8082   0.9183   0.5922     C
C       0.8273   0.8451   0.1773     C
O       0.8277   0.9364   0.0845     O
N       0.8491   0.3636   0.6991     N
H       0.8515   0.8649   0.4649     H
C       0.8533   0.9364   0.6809     C
O       0.8611   0.1044   0.1801     O
H       0.8655   0.1553    0.344     H
N       0.8677   0.5462   0.5747     N
C       0.8833    0.875   0.5256     C
O       0.8937   0.1518   0.9373     O
Co     0.89784  0.18127  0.76863    Co
C       0.9092   0.1919   0.5283     C
C       0.9178   0.4394   0.6218     C
O       0.9186     0.78   0.2245     O
H        0.923    0.204     0.95     H
C       0.9478   0.1363   0.3607     C
O       0.9578   0.1825   0.6186     O
O       0.9606   0.9828   0.8488     O
C       0.9705    0.069    0.202     C
C       0.9761   0.9089   0.7043     C
C       0.9939   0.1533   0.4503     C
H       0.9961   0.4176   0.6027     H
