data_I
_chemical_name_common  '/home/zhangsd/repos/MofS-CGCNN/ML/data/TSD/clean_cifs/SIWZOP_clean'
_cell_length_a  7.89990
_cell_length_b 13.75050
_cell_length_c  7.38290
_cell_angle_alpha 90.00000
_cell_angle_beta  90.00000
_cell_angle_gamma 90.00000
_space_group_name_H-M_alt      'P 1'


loop_
_space_group_symop_operation_xyz
  'x, y, z' 

loop_
_atom_site_label
_atom_site_fract_x
_atom_site_fract_y
_atom_site_fract_z
_atom_site_type_symbol
O      0.00494  0.14625  0.42058     O
H       0.0059   0.2742   0.5077     H
C      0.01279  0.76418   0.5047     C
C      0.05587  0.71491   0.9922     C
H       0.0601   0.7017   0.5263     H
O      0.07224   0.8337  0.59239     O
O      0.10328  0.26967  0.10864     O
O      0.11756  0.04786  0.11992     O
O      0.13469  0.92785  0.91934     O
H       0.1892   0.9869   0.4831     H
O      0.19213  0.71333  0.90332     O
C      0.19567  0.99715   0.0055     C
Mg     0.22098  0.16484  0.26001    Mg
Mg     0.27902  0.83516  0.76001    Mg
C      0.30433  0.00285   0.5055     C
O      0.30787  0.28667  0.40332     O
H       0.3108   0.0131   0.9831     H
O      0.36531  0.07215  0.41934     O
O      0.38244  0.95214  0.61992     O
O      0.39672  0.73033  0.60864     O
O      0.42776   0.1663  0.09239     O
H       0.4399   0.2983   0.0263     H
C      0.44413  0.28509   0.4922     C
C      0.48721  0.23582   0.0047     C
H       0.4941   0.7258   0.0077     H
O      0.49506  0.85375  0.92058     O
O      0.50494  0.35375  0.57942     O
H       0.5059   0.2258   0.4923     H
C      0.51279  0.73582   0.4953     C
C      0.55587  0.78509   0.0078     C
H       0.5601   0.7983   0.4737     H
O      0.57224   0.6663  0.40761     O
O      0.60328  0.23033  0.89136     O
O      0.61756  0.45214  0.88008     O
O      0.63469  0.57215  0.08066     O
H       0.6892   0.5131   0.5169     H
O      0.69213  0.78667  0.09668     O
C      0.69567  0.50285   0.9945     C
Mg     0.72098  0.33516  0.73999    Mg
Mg     0.77902  0.66484  0.23999    Mg
C      0.80433  0.49715   0.4945     C
O      0.80787  0.21333  0.59668     O
H       0.8108   0.4869   0.0169     H
O      0.86531  0.42785  0.58066     O
O      0.88244  0.54786  0.38008     O
O      0.89672  0.76967  0.39136     O
O      0.92776   0.3337  0.90761     O
H       0.9399   0.2017   0.9737     H
C      0.94413  0.21491   0.5078     C
C      0.98721  0.26418   0.9953     C
H       0.9941   0.7742   0.9923     H
O      0.99506  0.64625  0.07942     O
