data_I
_chemical_name_common  '/home/zhangsd/repos/MofS-CGCNN/ML/data/TSD/clean_cifs/SIZNIA_clean'
_cell_length_a  8.86210
_cell_length_b 13.98120
_cell_length_c 16.39930
_cell_angle_alpha 66.35220
_cell_angle_beta  74.32410
_cell_angle_gamma 71.52280
_space_group_name_H-M_alt      'P 1'


loop_
_space_group_symop_operation_xyz
  'x, y, z' 

loop_
_atom_site_label
_atom_site_fract_x
_atom_site_fract_y
_atom_site_fract_z
_atom_site_type_symbol
Cu         0.0      0.0      0.0    Cu
Cu         0.0      0.0      0.5    Cu
Cu         0.0      0.5      0.5    Cu
C      0.00653  0.81974   0.6734     C
H       0.0102    0.215   0.3602     H
N      0.01153  0.92297  0.63297     N
C        0.024    0.644   0.8028     C
H       0.0249   0.6187   0.7561     H
C      0.02492  0.76156   0.7622     C
C      0.03481  0.97334  0.68144     C
O      0.03622  0.57109  0.27727     O
H       0.0379   0.0455   0.6539     H
C      0.04756  0.81558   0.8113     C
C      0.05429  0.92182   0.7708     C
H       0.0583   0.7799   0.8717     H
H        0.063    0.704   0.4858     H
H       0.0713   0.3655   0.1529     H
O      0.07165  0.93586  0.90504     O
C      0.08358  0.98274   0.8207     C
O      0.08745  0.43586  0.40504     O
O      0.11201   0.8649  0.47788     O
C      0.11298  0.48274   0.3207     C
O      0.11542  0.07109  0.77727     O
H       0.1179    0.604   0.8308     H
C      0.16429  0.67144  0.46138     C
N      0.18506   0.5747  0.45598     N
N      0.21574   0.9253  0.04402     N
H       0.2279   0.0387   0.0823     H
H       0.2528    0.796   0.0142     H
C      0.25309  0.42182   0.2708     C
C      0.25604  0.83022   0.4455     C
H       0.2627   0.5455   0.1539     H
C      0.28112  0.97026   0.0807     C
C      0.28657  0.72504  0.43222     C
H       0.2901   0.2799   0.3717     H
H       0.2947   0.4678   0.6408     H
C      0.29711  0.82856  0.03862     C
C      0.31041  0.47334  0.18144     C
C      0.32556  0.31558   0.3113     C
C      0.33208  0.52974   0.4193     C
O        0.333   0.3756   0.9244     O
H       0.3489   0.4613   0.4177     H
O        0.367   0.8756   0.4244     O
H       0.3732   0.4419   0.7245     H
H       0.3785   0.5497   0.6431     H
C      0.38235    0.475   0.6601     C
H       0.3968   0.2128   0.8712     H
H       0.3997   0.8813   0.7439     H
H       0.4033   0.0322   0.8592     H
H       0.4103   0.8655   0.6529     H
H       0.4146    0.715   0.8602     H
C      0.42257  0.92076   0.1159     C
H       0.4287   0.0497   0.1431     H
N      0.43253  0.42297  0.13297     N
C      0.43532  0.67796   0.3924     C
C      0.44383  0.77496  0.06778     C
H       0.4473    0.104   0.3308     H
C      0.45132  0.26156   0.2622     C
O      0.45479   0.6351  0.02212     O
C      0.45923  0.57924   0.3841     C
H       0.4604   0.9419   0.2245     H
C      0.46824  0.33022   0.9455     C
C       0.4708    0.856   0.6972     C
H       0.4808   0.2872   0.6288     H
C      0.48255    0.975   0.1601     C
C      0.49432  0.17796   0.8924     C
C      0.49967  0.68026   0.8266     C
Cu         0.5      0.5     -0.0    Cu
C      0.50033  0.31974   0.1734     C
C      0.50568  0.82204   0.1076     C
C      0.51745    0.025   0.8399     C
H       0.5192   0.7128   0.3712     H
C       0.5292    0.144   0.3028     C
C      0.53176  0.66978   0.0545     C
H       0.5396   0.0581   0.7755     H
C      0.54077  0.42076   0.6159     C
O      0.54521   0.3649  0.97788     O
C      0.54868  0.73844   0.7378     C
H       0.5527    0.896   0.6692     H
C      0.55617  0.22504  0.93222     C
C      0.56468  0.32204   0.6076     C
N      0.56747  0.57703  0.86703     N
H       0.5713   0.9503   0.8569     H
C      0.57743  0.07924   0.8841     C
H       0.5854    0.285   0.1398     H
H       0.5897   0.1345   0.3471     H
H       0.5967   0.9678   0.1408     H
H       0.6003   0.1187   0.2561     H
H       0.6032   0.7872   0.1288     H
C      0.61765    0.525   0.3399     C
H       0.6215   0.4503   0.3569     H
H       0.6268   0.5581   0.2755     H
O        0.633   0.1244   0.5756     O
H       0.6511   0.5387   0.5823     H
O        0.667   0.6244   0.0756     O
C      0.66792  0.47026   0.5807     C
C      0.67444  0.68442   0.6887     C
C      0.68959  0.52666  0.81856     C
C      0.70289  0.17144  0.96138     C
H       0.7053   0.5322   0.3592     H
H       0.7099   0.7201   0.6283     H
C      0.71343  0.27496  0.56778     C
C      0.71888  0.02974   0.9193     C
H       0.7373   0.4545   0.8461     H
C      0.74396  0.16978   0.5545     C
C      0.74691  0.57818   0.7292     C
H       0.7472    0.204   0.9858     H
H       0.7721   0.9613   0.9177     H
N      0.78426   0.0747  0.95598     N
N      0.81494   0.4253  0.54402     N
C      0.83571  0.32856  0.53862     C
H       0.8821    0.396   0.1692     H
O      0.88458  0.92891  0.22273     O
C      0.88702  0.51726   0.6793     C
O      0.88799   0.1351  0.52212     O
O      0.91255  0.56414  0.59496     O
C      0.91642  0.01726   0.1793     C
O      0.92835  0.06414  0.09496     O
H       0.9287   0.6345   0.8471     H
H        0.937    0.296   0.5142     H
H       0.9417   0.2201   0.1283     H
C      0.94571  0.07818   0.2292     C
C      0.95244  0.18442   0.1887     C
H       0.9621   0.9545   0.3461     H
O      0.96378  0.42891  0.72273     O
C      0.96519  0.02666  0.31856     C
C      0.97508  0.23844   0.2378     C
H       0.9751   0.3813   0.2439     H
C        0.976    0.356   0.1972     C
N      0.98847  0.07703  0.36703     N
H       0.9898    0.785   0.6398     H
C      0.99347  0.18026   0.3266     C
