data_I
_chemical_name_common  '/home/zhangsd/repos/MofS-CGCNN/ML/data/TSD/clean_cifs/SOCKOM_clean'
_cell_length_a 10.18840
_cell_length_b 10.18840
_cell_length_c 11.73320
_cell_angle_alpha 85.06200
_cell_angle_beta  85.06200
_cell_angle_gamma 70.54140
_space_group_name_H-M_alt      'P 1'


loop_
_space_group_symop_operation_xyz
  'x, y, z' 

loop_
_atom_site_label
_atom_site_fract_x
_atom_site_fract_y
_atom_site_fract_z
_atom_site_type_symbol
C       0.0062    0.921   0.4256     C
H       0.0185   0.7325   0.1391     H
C       0.0282   0.4894   0.7175     C
C       0.0343   0.2701   0.8316     C
C       0.0345   0.5933   0.7865     C
O       0.0401   0.1231   0.1657     O
O      0.06245  0.80985   0.9068     O
H        0.064   0.0604   0.6278     H
C        0.079   0.9938   0.5744     C
H       0.0866   0.5676   0.8509     H
N       0.0949   0.1379   0.8706     N
C       0.0997   0.3409   0.7538     C
C        0.121   0.7996   0.4195     C
H       0.1301   0.7359   0.3647     H
H       0.1368   0.1654   0.3505     H
C       0.1583   0.0319   0.1604     C
O      0.19015  0.93755   0.0932     O
C       0.2004    0.879   0.5805     C
C       0.2229   0.7771      0.5     C
C       0.2236    0.072   0.8315     C
C       0.2297   0.1133   0.3346     C
C        0.233   0.2674   0.7127     C
H       0.2641   0.8699   0.6353     H
C        0.267   0.0358     0.24     C
H       0.2675   0.9815   0.8609     H
H        0.281   0.3104   0.6595     H
C       0.2949   0.1295   0.7508     C
H       0.3038   0.1604   0.4745     H
C       0.3307   0.1141    0.407     C
C       0.3504   0.6496      0.5     C
H       0.3607   0.6101   0.6699     H
H       0.3832   0.0778   0.7217     H
H       0.3899   0.6393   0.3301     H
C       0.4024    0.578   0.5994     C
C       0.4067   0.9655   0.2135     C
C        0.422   0.5976   0.4006     C
H       0.4324   0.9134   0.1491     H
C       0.4715   0.0467   0.3797     C
C       0.5106   0.9718   0.2825     C
C       0.5139   0.4613   0.5948     C
C       0.5387   0.4861   0.4052     C
H       0.5417   0.4107   0.6635     H
O        0.555   0.0398   0.5612     O
C       0.5749   0.0625   0.4565     C
N       0.5864   0.4136      0.5     N
H       0.5893   0.4583   0.3365     H
C       0.6591   0.9003   0.2462     C
O      0.67164  0.10184   0.4102     O
H       0.6835   0.0567   0.1417     H
H       0.6896    0.719   0.3405     H
C       0.7299   0.9657   0.1684     C
C       0.7326    0.767   0.2873     C
Cd     0.78608  0.21392      0.5    Cd
H       0.8346   0.8632   0.6495     H
H       0.8396   0.6962   0.5255     H
N       0.8621   0.9051   0.1294     N
C       0.8705   0.7051   0.2492     C
O       0.8769   0.9599   0.8343     O
C       0.8859   0.6693    0.593     C
C       0.8867   0.7703   0.6654     C
O      0.89816  0.32836   0.5898     O
H       0.9222   0.6168   0.2783     H
C        0.928   0.7764   0.1685     C
C       0.9375   0.4251   0.5435     C
H       0.9396    0.936   0.3722     H
H       0.9433   0.3165   0.8583     H
C       0.9533   0.5285   0.6203     C
O       0.9602    0.445   0.4388     O
C       0.9642    0.733     0.76     C
C       0.9681   0.8417   0.8396     C
Cd     0.97825  0.02175     -0.0    Cd
N       0.9842   0.0158      0.5     N
