data_I
_chemical_name_common  '/home/zhangsd/repos/MofS-CGCNN/ML/data/TSD/clean_cifs/SOJKOT02_clean'
_cell_length_a  7.94150
_cell_length_b 13.84600
_cell_length_c  7.31030
_cell_angle_alpha 90.00000
_cell_angle_beta  90.00000
_cell_angle_gamma 90.00000
_space_group_name_H-M_alt      'P 1'


loop_
_space_group_symop_operation_xyz
  'x, y, z' 

loop_
_atom_site_label
_atom_site_fract_x
_atom_site_fract_y
_atom_site_fract_z
_atom_site_type_symbol
H       0.0032   0.2263   0.0059     H
O      0.00562  0.35476   0.9227     O
C       0.0141  0.73363   0.0016     C
C       0.0565  0.78572   0.4917     C
H       0.0639   0.7952   0.0209     H
O       0.0731  0.66402    0.088     O
O       0.1052  0.22859   0.6081     O
O       0.1121   0.4529    0.619     O
O      0.13161  0.57242   0.4189     O
H       0.1904   0.5091   0.9926     H
O      0.19116  0.78806   0.4026     O
C       0.1933  0.50449   0.5087     C
Co      0.2206  0.33545  0.75941    Co
Co      0.2794  0.66455  0.25941    Co
C       0.3067  0.49551   0.0087     C
O      0.30884  0.21194   0.9026     O
H       0.3096   0.4909   0.4926     H
O      0.36839  0.42758   0.9189     O
O       0.3879   0.5471    0.119     O
O       0.3948  0.77141   0.1081     O
O       0.4269  0.33598    0.588     O
H       0.4361   0.2048   0.5209     H
C       0.4435  0.21428   0.9917     C
C       0.4859  0.26637   0.5016     C
O      0.49438  0.64524   0.4227     O
H       0.4968   0.7737   0.5059     H
H       0.5032   0.2737   0.9941     H
O      0.50562  0.14524   0.0773     O
C       0.5141  0.76637   0.9984     C
C       0.5565  0.71428   0.5083     C
H       0.5639   0.7048   0.9791     H
O       0.5731  0.83598    0.912     O
O       0.6052  0.27141   0.3919     O
O       0.6121   0.0471    0.381     O
O      0.63161  0.92758   0.5811     O
H       0.6904   0.9909   0.0074     H
O      0.69116  0.71194   0.5974     O
C       0.6933  0.99551   0.4913     C
Co      0.7206  0.16455  0.24059    Co
Co      0.7794  0.83545  0.74059    Co
C       0.8067  0.00449   0.9913     C
O      0.80884  0.28806   0.0974     O
H       0.8096   0.0091   0.5074     H
O      0.86839  0.07242   0.0811     O
O       0.8879   0.9529    0.881     O
O       0.8948  0.72859   0.8919     O
O       0.9269  0.16402    0.412     O
H       0.9361   0.2952   0.4791     H
C       0.9435  0.28572   0.0083     C
C       0.9859  0.23363   0.4984     C
O      0.99438  0.85476   0.5773     O
H       0.9968   0.7263   0.4941     H
