data_I
_chemical_name_common  '/home/zhangsd/repos/MofS-CGCNN/ML/data/TSD/clean_cifs/SOMSIY_clean'
_cell_length_a 14.82810
_cell_length_b  6.48720
_cell_length_c 11.35030
_cell_angle_alpha 90.00000
_cell_angle_beta  90.00000
_cell_angle_gamma 90.00000
_space_group_name_H-M_alt      'P 1'


loop_
_space_group_symop_operation_xyz
  'x, y, z' 

loop_
_atom_site_label
_atom_site_fract_x
_atom_site_fract_y
_atom_site_fract_z
_atom_site_type_symbol
Ga         0.0      0.0      0.0    Ga
O          0.0     0.25   0.9128     O
Ga         0.0      0.5      0.0    Ga
O          0.0     0.75   0.0872     O
N       0.0988   0.1412    0.096     N
N       0.0988   0.3588    0.096     N
N       0.0988   0.6412    0.904     N
N       0.0988   0.8588    0.904     N
C        0.165   0.0864   0.1657     C
C        0.165   0.4136   0.1657     C
C        0.165   0.5864   0.8343     C
C        0.165   0.9136   0.8343     C
C      0.21171     0.25   0.2112     C
C      0.21171     0.75   0.7888     C
C      0.28829     0.25   0.2888     C
C      0.28829     0.75   0.7112     C
C        0.335   0.0864   0.3343     C
C        0.335   0.4136   0.3343     C
C        0.335   0.5864   0.6657     C
C        0.335   0.9136   0.6657     C
N       0.4012   0.1412    0.404     N
N       0.4012   0.3588    0.404     N
N       0.4012   0.6412    0.596     N
N       0.4012   0.8588    0.596     N
Ga         0.5      0.0      0.5    Ga
O          0.5     0.25   0.5872     O
Ga         0.5      0.5      0.5    Ga
O          0.5     0.75   0.4128     O
N       0.5988   0.1412    0.404     N
N       0.5988   0.3588    0.404     N
N       0.5988   0.6412    0.596     N
N       0.5988   0.8588    0.596     N
C        0.665   0.0864   0.3343     C
C        0.665   0.4136   0.3343     C
C        0.665   0.5864   0.6657     C
C        0.665   0.9136   0.6657     C
C      0.71171     0.25   0.2888     C
C      0.71171     0.75   0.7112     C
C      0.78829     0.25   0.2112     C
C      0.78829     0.75   0.7888     C
C        0.835   0.0864   0.1657     C
C        0.835   0.4136   0.1657     C
C        0.835   0.5864   0.8343     C
C        0.835   0.9136   0.8343     C
N       0.9012   0.1412    0.096     N
N       0.9012   0.3588    0.096     N
N       0.9012   0.6412    0.904     N
N       0.9012   0.8588    0.904     N
