data_I
_chemical_name_common  '/home/zhangsd/repos/MofS-CGCNN/ML/data/TSD/clean_cifs/SONTUL_neutral_b'
_cell_length_a 18.60000
_cell_length_b 18.60000
_cell_length_c 18.60000
_cell_angle_alpha 60.00000
_cell_angle_beta  60.00000
_cell_angle_gamma 60.00000
_space_group_name_H-M_alt      'P 1'


loop_
_space_group_symop_operation_xyz
  'x, y, z' 

loop_
_atom_site_label
_atom_site_fract_x
_atom_site_fract_y
_atom_site_fract_z
_atom_site_type_symbol
O      0.00801  0.47873  0.62603     O
O      0.00801  0.47873  0.88723     O
O      0.00801  0.62603  0.47873     O
O      0.00801  0.62603  0.88723     O
O      0.00801  0.88723  0.47873     O
O      0.00801  0.88723  0.62603     O
H       0.0107   0.2271   0.2271     H
H       0.0107   0.2271   0.5351     H
H       0.0107   0.5351   0.2271     H
C       0.0681   0.0681  0.33694     C
C       0.0681   0.0681  0.52686     C
C       0.0681  0.33694   0.0681     C
C       0.0681  0.33694  0.52686     C
C       0.0681  0.52686   0.0681     C
C       0.0681  0.52686  0.33694     C
C       0.0686   0.1984   0.1984     C
C       0.0686   0.1984   0.5346     C
C       0.0686   0.5346   0.1984     C
Cu     0.07028      0.5      0.5    Cu
Cu     0.07028      0.5  0.92972    Cu
Cu     0.07028  0.92972      0.5    Cu
C       0.1118   0.1118   0.2422     C
C       0.1118   0.1118   0.5342     C
C       0.1118   0.2422   0.1118     C
C       0.1118   0.2422   0.5342     C
C       0.1118   0.5342   0.1118     C
C       0.1118   0.5342   0.2422     C
O      0.11277  0.37397  0.52127     O
O      0.11277  0.37397  0.99199     O
O      0.11277  0.52127  0.37397     O
O      0.11277  0.52127  0.99199     O
O      0.11277  0.99199  0.37397     O
O      0.11277  0.99199  0.52127     O
C       0.1984   0.0686   0.1984     C
C       0.1984   0.0686   0.5346     C
C       0.1984   0.1984   0.0686     C
C       0.1984   0.1984   0.5346     C
C       0.1984   0.5346   0.0686     C
C       0.1984   0.5346   0.1984     C
H       0.2271   0.0107   0.2271     H
H       0.2271   0.0107   0.5351     H
H       0.2271   0.2271   0.0107     H
H       0.2271   0.2271   0.5351     H
H       0.2271   0.5351   0.0107     H
H       0.2271   0.5351   0.2271     H
C       0.2422   0.1118   0.1118     C
C       0.2422   0.1118   0.5342     C
C       0.2422   0.5342   0.1118     C
C      0.33694   0.0681   0.0681     C
C      0.33694   0.0681  0.52686     C
C      0.33694  0.52686   0.0681     C
O      0.37397  0.11277  0.52127     O
O      0.37397  0.11277  0.99199     O
O      0.37397  0.52127  0.11277     O
O      0.37397  0.52127  0.99199     O
O      0.37397  0.99199  0.52127     O
H       0.4649   0.7729   0.7729     H
H       0.4649   0.7729   0.9893     H
H       0.4649   0.9893   0.7729     H
C       0.4654   0.8016   0.8016     C
C       0.4654   0.8016   0.9314     C
C       0.4654   0.9314   0.8016     C
C       0.4658   0.7578   0.8882     C
C       0.4658   0.8882   0.7578     C
C       0.4658   0.8882   0.8882     C
C      0.47314  0.66306   0.9319     C
C      0.47314   0.9319  0.66306     C
C      0.47314   0.9319   0.9319     C
O      0.47873  0.00801  0.62603     O
O      0.47873  0.00801  0.88723     O
O      0.47873  0.62603  0.00801     O
O      0.47873  0.62603  0.88723     O
O      0.47873  0.88723  0.00801     O
O      0.47873  0.88723  0.62603     O
Cu         0.5  0.07028      0.5    Cu
Cu         0.5  0.07028  0.92972    Cu
Cu         0.5      0.5  0.07028    Cu
Cu         0.5      0.5  0.92972    Cu
O          0.5   0.8118   0.1882     O
Cu         0.5  0.92972  0.07028    Cu
Cu         0.5  0.92972      0.5    Cu
O      0.52127  0.11277  0.37397     O
O      0.52127  0.11277  0.99199     O
O      0.52127  0.37397  0.11277     O
O      0.52127  0.37397  0.99199     O
O      0.52127  0.99199  0.11277     O
O      0.52127  0.99199  0.37397     O
C      0.52686   0.0681   0.0681     C
C      0.52686   0.0681  0.33694     C
C      0.52686  0.33694   0.0681     C
C       0.5342   0.1118   0.1118     C
C       0.5342   0.1118   0.2422     C
C       0.5342   0.2422   0.1118     C
C       0.5346   0.0686   0.1984     C
C       0.5346   0.1984   0.0686     C
C       0.5346   0.1984   0.1984     C
H       0.5351   0.0107   0.2271     H
H       0.5351   0.2271   0.0107     H
H       0.5351   0.2271   0.2271     H
O      0.62603  0.00801  0.47873     O
O      0.62603  0.00801  0.88723     O
O      0.62603  0.47873  0.00801     O
O      0.62603  0.47873  0.88723     O
O      0.62603  0.88723  0.00801     O
O      0.62603  0.88723  0.47873     O
C      0.66306  0.47314   0.9319     C
C      0.66306   0.9319  0.47314     C
C      0.66306   0.9319   0.9319     C
C       0.7578   0.4658   0.8882     C
C       0.7578   0.8882   0.4658     C
C       0.7578   0.8882   0.8882     C
H       0.7729   0.4649   0.7729     H
H       0.7729   0.4649   0.9893     H
H       0.7729   0.7729   0.4649     H
H       0.7729   0.7729   0.9893     H
H       0.7729   0.9893   0.4649     H
H       0.7729   0.9893   0.7729     H
C       0.8016   0.4654   0.8016     C
C       0.8016   0.4654   0.9314     C
C       0.8016   0.8016   0.4654     C
C       0.8016   0.8016   0.9314     C
C       0.8016   0.9314   0.4654     C
C       0.8016   0.9314   0.8016     C
O      0.88723  0.00801  0.47873     O
O      0.88723  0.00801  0.62603     O
O      0.88723  0.47873  0.00801     O
O      0.88723  0.47873  0.62603     O
O      0.88723  0.62603  0.00801     O
O      0.88723  0.62603  0.47873     O
C       0.8882   0.4658   0.7578     C
C       0.8882   0.4658   0.8882     C
C       0.8882   0.7578   0.4658     C
C       0.8882   0.7578   0.8882     C
C       0.8882   0.8882   0.4658     C
C       0.8882   0.8882   0.7578     C
Cu     0.92972  0.07028      0.5    Cu
Cu     0.92972      0.5  0.07028    Cu
Cu     0.92972      0.5      0.5    Cu
C       0.9314   0.4654   0.8016     C
C       0.9314   0.8016   0.4654     C
C       0.9314   0.8016   0.8016     C
C       0.9319  0.47314  0.66306     C
C       0.9319  0.47314   0.9319     C
C       0.9319  0.66306  0.47314     C
C       0.9319  0.66306   0.9319     C
C       0.9319   0.9319  0.47314     C
C       0.9319   0.9319  0.66306     C
H       0.9893   0.4649   0.7729     H
H       0.9893   0.7729   0.4649     H
H       0.9893   0.7729   0.7729     H
O      0.99199  0.11277  0.37397     O
O      0.99199  0.11277  0.52127     O
O      0.99199  0.37397  0.11277     O
O      0.99199  0.37397  0.52127     O
O      0.99199  0.52127  0.11277     O
O      0.99199  0.52127  0.37397     O
