data_I
_chemical_name_common  '/home/zhangsd/repos/MofS-CGCNN/ML/data/TSD/clean_cifs/SONVEX_neutral_b'
_cell_length_a 18.62150
_cell_length_b 18.62150
_cell_length_c 18.62150
_cell_angle_alpha 60.00000
_cell_angle_beta  60.00000
_cell_angle_gamma 60.00000
_space_group_name_H-M_alt      'P 1'


loop_
_space_group_symop_operation_xyz
  'x, y, z' 

loop_
_atom_site_label
_atom_site_fract_x
_atom_site_fract_y
_atom_site_fract_z
_atom_site_type_symbol
O      0.00725  0.47913  0.62641     O
O      0.00725  0.47913  0.88721     O
O      0.00725  0.62641  0.47913     O
O      0.00725  0.62641  0.88721     O
O      0.00725  0.88721  0.47913     O
O      0.00725  0.88721  0.62641     O
H       0.0113   0.2277   0.2277     H
H       0.0113   0.2277   0.5333     H
H       0.0113   0.5333   0.2277     H
C       0.0691   0.0691  0.33666     C
C       0.0691   0.0691  0.52514     C
C       0.0691  0.33666   0.0691     C
C       0.0691  0.33666  0.52514     C
C       0.0691  0.52514   0.0691     C
C       0.0691  0.52514  0.33666     C
C      0.06914    0.199    0.199     C
C      0.06914    0.199  0.53286     C
C      0.06914  0.53286    0.199     C
Cu     0.07015      0.5      0.5    Cu
Cu     0.07015      0.5  0.92985    Cu
Cu     0.07015  0.92985      0.5    Cu
C       0.1127   0.1127  0.24208     C
C       0.1127   0.1127  0.53252     C
C       0.1127  0.24208   0.1127     C
C       0.1127  0.24208  0.53252     C
C       0.1127  0.53252   0.1127     C
C       0.1127  0.53252  0.24208     C
O      0.11279  0.37359  0.52087     O
O      0.11279  0.37359  0.99275     O
O      0.11279  0.52087  0.37359     O
O      0.11279  0.52087  0.99275     O
O      0.11279  0.99275  0.37359     O
O      0.11279  0.99275  0.52087     O
C        0.199  0.06914    0.199     C
C        0.199  0.06914  0.53286     C
C        0.199    0.199  0.06914     C
C        0.199    0.199  0.53286     C
C        0.199  0.53286  0.06914     C
C        0.199  0.53286    0.199     C
H       0.2277   0.0113   0.2277     H
H       0.2277   0.0113   0.5333     H
H       0.2277   0.2277   0.0113     H
H       0.2277   0.2277   0.5333     H
H       0.2277   0.5333   0.0113     H
H       0.2277   0.5333   0.2277     H
C      0.24208   0.1127   0.1127     C
C      0.24208   0.1127  0.53252     C
C      0.24208  0.53252   0.1127     C
C      0.33666   0.0691   0.0691     C
C      0.33666   0.0691  0.52514     C
C      0.33666  0.52514   0.0691     C
O      0.37359  0.11279  0.52087     O
O      0.37359  0.11279  0.99275     O
O      0.37359  0.52087  0.11279     O
O      0.37359  0.52087  0.99275     O
O      0.37359  0.99275  0.11279     O
O      0.37359  0.99275  0.52087     O
H       0.4667   0.7723   0.7723     H
H       0.4667   0.7723   0.9887     H
H       0.4667   0.9887   0.7723     H
C      0.46714    0.801    0.801     C
C      0.46714    0.801  0.93086     C
C      0.46714  0.93086    0.801     C
C      0.46748  0.75792   0.8873     C
C      0.46748   0.8873  0.75792     C
C      0.46748   0.8873   0.8873     C
C      0.47486  0.66334   0.9309     C
C      0.47486   0.9309  0.66334     C
C      0.47486   0.9309   0.9309     C
O      0.47913  0.00725  0.62641     O
O      0.47913  0.00725  0.88721     O
O      0.47913  0.62641  0.00725     O
O      0.47913  0.62641  0.88721     O
O      0.47913  0.88721  0.00725     O
O      0.47913  0.88721  0.62641     O
Cu         0.5  0.07015      0.5    Cu
Cu         0.5  0.07015  0.92985    Cu
Cu         0.5      0.5  0.07015    Cu
Cu         0.5      0.5  0.92985    Cu
Cu         0.5  0.92985  0.07015    Cu
Cu         0.5  0.92985      0.5    Cu
O      0.52087  0.11279  0.37359     O
O      0.52087  0.11279  0.99275     O
O      0.52087  0.37359  0.11279     O
O      0.52087  0.37359  0.99275     O
O      0.52087  0.99275  0.11279     O
O      0.52087  0.99275  0.37359     O
C      0.52514   0.0691   0.0691     C
C      0.52514   0.0691  0.33666     C
C      0.52514  0.33666   0.0691     C
C      0.53252   0.1127   0.1127     C
C      0.53252   0.1127  0.24208     C
C      0.53252  0.24208   0.1127     C
C      0.53286  0.06914    0.199     C
C      0.53286    0.199  0.06914     C
C      0.53286    0.199    0.199     C
H       0.5333   0.0113   0.2277     H
H       0.5333   0.2277   0.0113     H
H       0.5333   0.2277   0.2277     H
O      0.62641  0.00725  0.47913     O
O      0.62641  0.00725  0.88721     O
O      0.62641  0.47913  0.00725     O
O      0.62641  0.47913  0.88721     O
O      0.62641  0.88721  0.00725     O
O      0.62641  0.88721  0.47913     O
C      0.66334  0.47486   0.9309     C
C      0.66334   0.9309  0.47486     C
C      0.66334   0.9309   0.9309     C
C      0.75792  0.46748   0.8873     C
C      0.75792   0.8873  0.46748     C
C      0.75792   0.8873   0.8873     C
H       0.7723   0.4667   0.7723     H
H       0.7723   0.4667   0.9887     H
H       0.7723   0.7723   0.4667     H
H       0.7723   0.7723   0.9887     H
H       0.7723   0.9887   0.4667     H
H       0.7723   0.9887   0.7723     H
C        0.801  0.46714    0.801     C
C        0.801  0.46714  0.93086     C
C        0.801    0.801  0.46714     C
C        0.801    0.801  0.93086     C
C        0.801  0.93086  0.46714     C
C        0.801  0.93086    0.801     C
O      0.88721  0.00725  0.47913     O
O      0.88721  0.00725  0.62641     O
O      0.88721  0.47913  0.00725     O
O      0.88721  0.47913  0.62641     O
O      0.88721  0.62641  0.00725     O
O      0.88721  0.62641  0.47913     O
C       0.8873  0.46748  0.75792     C
C       0.8873  0.46748   0.8873     C
C       0.8873  0.75792  0.46748     C
C       0.8873  0.75792   0.8873     C
C       0.8873   0.8873  0.46748     C
C       0.8873   0.8873  0.75792     C
Cu     0.92985  0.07015      0.5    Cu
Cu     0.92985      0.5  0.07015    Cu
Cu     0.92985      0.5      0.5    Cu
C      0.93086  0.46714    0.801     C
C      0.93086    0.801  0.46714     C
C      0.93086    0.801    0.801     C
C       0.9309  0.47486  0.66334     C
C       0.9309  0.47486   0.9309     C
C       0.9309  0.66334  0.47486     C
C       0.9309  0.66334   0.9309     C
C       0.9309   0.9309  0.47486     C
C       0.9309   0.9309  0.66334     C
H       0.9887   0.4667   0.7723     H
H       0.9887   0.7723   0.4667     H
H       0.9887   0.7723   0.7723     H
O      0.99275  0.11279  0.37359     O
O      0.99275  0.11279  0.52087     O
O      0.99275  0.37359  0.11279     O
O      0.99275  0.37359  0.52087     O
O      0.99275  0.52087  0.11279     O
O      0.99275  0.52087  0.37359     O
