data_I
_chemical_name_common  '/home/zhangsd/repos/MofS-CGCNN/ML/data/TSD/clean_cifs/SOTXAC_clean'
_cell_length_a 12.94060
_cell_length_b 12.94060
_cell_length_c 14.63900
_cell_angle_alpha 83.93200
_cell_angle_beta  83.93200
_cell_angle_gamma 61.62450
_space_group_name_H-M_alt      'P 1'


loop_
_space_group_symop_operation_xyz
  'x, y, z' 

loop_
_atom_site_label
_atom_site_fract_x
_atom_site_fract_y
_atom_site_fract_z
_atom_site_type_symbol
Er     0.01028  0.65168  0.47245    Er
O       0.0539   0.7801   0.5489     O
O       0.1003   0.5437   0.6032     O
O       0.1156   0.3638   0.6177     O
O       0.1181   0.4639   0.4317     O
C       0.1429   0.4395   0.6354     C
O       0.1452   0.2876   0.4138     O
N       0.1641   0.7281   0.5332     N
C       0.1694   0.3708   0.3932     C
O        0.202   0.6478   0.4787     O
H       0.2171   0.2677   0.7646     H
O       0.2199   0.9461   0.9511     O
O       0.2315   0.7455   0.5728     O
C       0.2398   0.4002   0.7013     C
O       0.2545   0.7685   0.9272     O
C       0.2619   0.3067    0.763     C
H       0.2677   0.2171   0.2646     H
C        0.269   0.3502   0.3235     C
N       0.2719   0.8359   0.9668     N
H        0.286   0.5268   0.6581     H
O       0.2876   0.1452   0.9138     O
H       0.3017   0.4777   0.3591     H
C       0.3034   0.4612   0.6986     C
C       0.3067   0.2619    0.263     C
C       0.3271   0.4171   0.3197     C
Er     0.34832  0.98972  0.02755    Er
C       0.3502    0.269   0.8235     C
O       0.3522    0.798   0.0213     O
O       0.3638   0.1156   0.1177     O
C       0.3708   0.1694   0.8932     C
C       0.3946   0.4222   0.7582     C
C       0.4002   0.2398   0.2013     C
C       0.4171   0.3271   0.8197     C
C       0.4222   0.3946   0.2582     C
C       0.4395   0.1429   0.1354     C
O       0.4563   0.8997   0.8968     O
C       0.4603   0.4845   0.7537     C
C       0.4612   0.3034   0.1986     C
O       0.4639   0.1181   0.9317     O
H       0.4732    0.714   0.8419     H
H       0.4777   0.3017   0.8591     H
C       0.4845   0.4603   0.2537     C
C       0.5155   0.5397   0.7463     C
H       0.5223   0.6983   0.1409     H
H       0.5268    0.286   0.1581     H
O       0.5361   0.8819   0.0683     O
C       0.5388   0.6966   0.8014     C
C       0.5397   0.5155   0.2463     C
O       0.5437   0.1003   0.1032     O
C       0.5605   0.8571   0.8646     C
C       0.5778   0.6054   0.7418     C
C       0.5829   0.6729   0.1803     C
C       0.5998   0.7602   0.7987     C
C       0.6054   0.5778   0.2418     C
C       0.6292   0.8306   0.1068     C
O       0.6362   0.8844   0.8823     O
O       0.6478    0.202   0.9787     O
C       0.6498    0.731   0.1765     C
Er     0.65168  0.01028  0.97245    Er
C       0.6729   0.5829   0.6803     C
C       0.6933   0.7381    0.737     C
C       0.6966   0.5388   0.3014     C
H       0.6983   0.5223   0.6409     H
O       0.7124   0.8548   0.0862     O
H        0.714   0.4732   0.3419     H
N       0.7281   0.1641   0.0332     N
C        0.731   0.6498   0.6765     C
H       0.7323   0.7829   0.7354     H
C       0.7381   0.6933    0.237     C
O       0.7455   0.2315   0.0728     O
C       0.7602   0.5998   0.2987     C
O       0.7685   0.2545   0.4272     O
O       0.7801   0.0539   0.0489     O
H       0.7829   0.7323   0.2354     H
O        0.798   0.3522   0.5213     O
C       0.8306   0.6292   0.6068     C
N       0.8359   0.2719   0.4668     N
O       0.8548   0.7124   0.5862     O
C       0.8571   0.5605   0.3646     C
O       0.8819   0.5361   0.5683     O
O       0.8844   0.6362   0.3823     O
O       0.8997   0.4563   0.3968     O
O       0.9461   0.2199   0.4511     O
Er     0.98972  0.34832  0.52755    Er
