data_I
_chemical_name_common  '/home/zhangsd/repos/MofS-CGCNN/ML/data/TSD/clean_cifs/SOXDAM_clean'
_cell_length_a 10.75350
_cell_length_b 12.51010
_cell_length_c 12.51010
_cell_angle_alpha 91.96260
_cell_angle_beta  113.77100
_cell_angle_gamma 113.77100
_space_group_name_H-M_alt      'P 1'


loop_
_space_group_symop_operation_xyz
  'x, y, z' 

loop_
_atom_site_label
_atom_site_fract_x
_atom_site_fract_y
_atom_site_fract_z
_atom_site_type_symbol
H       0.0053   0.2863   0.8883     H
H       0.0053   0.8883   0.2863     H
C       0.0076   0.0581   0.6659     C
C       0.0076   0.6659   0.0581     C
C       0.0148   0.0826    0.208     C
C       0.0148    0.208   0.0826     C
H       0.0441   0.4176   0.9406     H
H       0.0441   0.9406   0.4176     H
N       0.0647  0.06318  0.31982     N
N       0.0647  0.31982  0.06318     N
N       0.0766    0.196    0.196     N
N       0.0969  0.01376  0.88084     N
N       0.0969  0.88084  0.01376     N
H       0.1444   0.1655   0.4791     H
H       0.1444   0.4791   0.1655     H
C       0.1492   0.9897   0.9897     C
C       0.1767   0.1051   0.7029     C
C       0.1767   0.7029   0.1051     C
C        0.185   0.1572   0.4244     C
C        0.185   0.4244   0.1572     C
H       0.2176   0.2324      0.4     H
H       0.2176      0.4   0.2324     H
O       0.2328  0.03509  0.69589     O
O       0.2328  0.69589  0.03509     O
H       0.2447   0.0164    0.219     H
H       0.2447    0.219   0.0164     H
O       0.2587  0.21677  0.73663     O
O       0.2587  0.73663  0.21677     O
N       0.2676   0.0818   0.0818     N
C       0.3237   0.1362   0.4916     C
C       0.3237   0.4916   0.1362     C
C       0.3292   0.0624   0.2022     C
C       0.3292   0.2022   0.0624     C
O       0.3301  0.05003  0.44437     O
O       0.3301  0.44437  0.05003     O
H         0.39   0.1398   0.2592     H
H         0.39   0.2592   0.1398     H
O       0.4221  0.20941  0.59079     O
O       0.4221  0.59079  0.20941     O
C       0.4263   0.2237   0.9981     C
C       0.4263   0.9981   0.2237     C
O       0.4413  0.13827  0.95629     O
O       0.4413  0.95629  0.13827     O
O       0.4863  0.32511  0.97889     O
O       0.4863  0.97889  0.32511     O
Zn         0.5     -0.0     -0.0    Zn
Zn         0.5     -0.0      0.5    Zn
Tb         0.5  0.20908  0.79092    Tb
Zn         0.5      0.5     -0.0    Zn
Tb         0.5  0.79092  0.20908    Tb
O       0.5137  0.02111  0.67489     O
O       0.5137  0.67489  0.02111     O
O       0.5587  0.04371  0.86173     O
O       0.5587  0.86173  0.04371     O
C       0.5737   0.0019   0.7763     C
C       0.5737   0.7763   0.0019     C
O       0.5779  0.40921  0.79059     O
O       0.5779  0.79059  0.40921     O
H         0.61   0.7408   0.8602     H
H         0.61   0.8602   0.7408     H
O       0.6699  0.55563  0.94997     O
O       0.6699  0.94997  0.55563     O
C       0.6708   0.7978   0.9376     C
C       0.6708   0.9376   0.7978     C
C       0.6763   0.5084   0.8638     C
C       0.6763   0.8638   0.5084     C
N       0.7324   0.9182   0.9182     N
O       0.7413  0.26337  0.78323     O
O       0.7413  0.78323  0.26337     O
H       0.7553    0.781   0.9836     H
H       0.7553   0.9836    0.781     H
O       0.7672  0.30411  0.96491     O
O       0.7672  0.96491  0.30411     O
H       0.7824      0.6   0.7676     H
H       0.7824   0.7676      0.6     H
C        0.815   0.5756   0.8428     C
C        0.815   0.8428   0.5756     C
C       0.8233   0.2971   0.8949     C
C       0.8233   0.8949   0.2971     C
C       0.8508   0.0103   0.0103     C
H       0.8556   0.5209   0.8345     H
H       0.8556   0.8345   0.5209     H
N       0.9031  0.11916  0.98624     N
N       0.9031  0.98624  0.11916     N
N       0.9234    0.804    0.804     N
N       0.9353  0.68018  0.93682     N
N       0.9353  0.93682  0.68018     N
H       0.9559   0.0594   0.5824     H
H       0.9559   0.5824   0.0594     H
C       0.9852    0.792   0.9174     C
C       0.9852   0.9174    0.792     C
C       0.9924   0.3341   0.9419     C
C       0.9924   0.9419   0.3341     C
H       0.9947   0.1117   0.7137     H
H       0.9947   0.7137   0.1117     H
