data_I
_chemical_name_common  '/home/zhangsd/repos/MofS-CGCNN/ML/data/TSD/clean_cifs/SUVFEU_clean'
_cell_length_a  6.40410
_cell_length_b 17.62520
_cell_length_c  7.72710
_cell_angle_alpha 90.00000
_cell_angle_beta  95.58600
_cell_angle_gamma 90.00000
_space_group_name_H-M_alt      'P 1'


loop_
_space_group_symop_operation_xyz
  'x, y, z' 

loop_
_atom_site_label
_atom_site_fract_x
_atom_site_fract_y
_atom_site_fract_z
_atom_site_type_symbol
O       0.0034   0.1409   0.8983     O
P       0.0061   0.4299   0.7553     P
C       0.0085   0.5088   0.9018     C
C       0.0089   0.0841   0.1905     C
V       0.0161   0.2511   0.8187     V
C       0.0186    0.151   0.0641     C
O       0.0241   0.2175   0.1213     O
O       0.0475   0.3604    0.874     O
H       0.1074   0.0037    0.027     H
H       0.1111   0.5906   0.7434     H
H       0.1342   0.0842   0.2718     H
H       0.1377   0.5078   0.9786     H
O       0.1711   0.4426   0.6313     O
O       0.2049   0.9264   0.3512     O
O       0.2878    0.758   0.1464     O
O       0.3262    0.247   0.8635     O
H       0.3579   0.5932   0.2347     H
H       0.3689   0.1762   0.5229     H
H       0.3866   0.6794   0.4724     H
H       0.3971   0.0893   0.7573     H
O       0.4638   0.3244   0.6237     O
O       0.4681   0.4644   0.3823     O
C       0.4861   0.5953   0.3125     C
C       0.4871   0.5317   0.4352     C
V       0.4884   0.4333   0.6821     V
O       0.4964   0.5442   0.5955     O
P        0.497   0.7551   0.2565     P
C       0.4981   0.1744   0.5995     C
C       0.5019   0.6744   0.4005     C
P        0.503   0.2551   0.7435     P
O       0.5036   0.0442   0.4045     O
V       0.5116   0.9333   0.3179     V
C       0.5129   0.0317   0.5648     C
C       0.5139   0.0953   0.6875     C
O       0.5319   0.9644   0.6177     O
O       0.5362   0.8244   0.3763     O
H       0.6029   0.5893   0.2427     H
H       0.6134   0.1794   0.5276     H
H       0.6311   0.6762   0.4771     H
H       0.6421   0.0932   0.7653     H
O       0.6738    0.747   0.1365     O
O       0.7122    0.258   0.8536     O
O       0.7951   0.4264   0.6488     O
O       0.8289   0.9426   0.3687     O
H       0.8623   0.0078   0.0214     H
H       0.8658   0.5842   0.7282     H
H       0.8889   0.0906   0.2566     H
H       0.8926   0.5037    0.973     H
O       0.9525   0.8604    0.126     O
O       0.9759   0.7175   0.8787     O
C       0.9814    0.651   0.9359     C
V       0.9839   0.7511   0.1813     V
C       0.9911   0.5841   0.8095     C
C       0.9915   0.0088   0.0982     C
P       0.9939   0.9299   0.2447     P
O       0.9966   0.6409   0.1017     O
