data_I
_chemical_name_common  '/home/zhangsd/repos/MofS-CGCNN/ML/data/TSD/clean_cifs/SUVZUG_clean'
_cell_length_a  8.97110
_cell_length_b 14.14390
_cell_length_c 19.87820
_cell_angle_alpha 82.15100
_cell_angle_beta  82.39700
_cell_angle_gamma 74.90100
_space_group_name_H-M_alt      'P 1'


loop_
_space_group_symop_operation_xyz
  'x, y, z' 

loop_
_atom_site_label
_atom_site_fract_x
_atom_site_fract_y
_atom_site_fract_z
_atom_site_type_symbol
C       0.0003   0.5674   0.0452     C
C       0.0023   0.3573   0.9057     C
V       0.0087   0.4401  0.41745     V
V       0.0131   0.5156  0.56089     V
O       0.0158   0.9966   0.0987     O
C       0.0182   0.4011    0.024     C
C       0.0207   0.4679   0.0685     C
H       0.0219   0.7346   0.9786     H
V      0.02727  0.80332  0.25239     V
C       0.0273   0.2942   0.0512     C
H       0.0302   0.7082    0.904     H
H       0.0337   0.6081    0.137     H
C       0.0488   0.4323   0.1412     C
O       0.0571   0.3335   0.3909     O
O       0.0609   0.4044   0.4909     O
H       0.0635   0.4888   0.7347     H
H       0.0683    0.683   0.0748     H
N       0.0971   0.5523   0.8125     N
H       0.1002   0.3626   0.1447     H
O       0.1057   0.5211   0.3674     O
O       0.1094   0.8059   0.1639     O
H       0.1173   0.4669   0.1556     H
C         0.13   0.5149   0.7546     C
H       0.1381   0.1578   0.9212     H
O       0.1532   0.7155   0.3056     O
V       0.1561  0.92813  0.93608     V
N       0.1576   0.2939   0.8922     N
O       0.1638   0.8526   0.0194     O
H        0.166   0.1021   0.1009     H
V      0.16718  0.89023   0.0995     V
O       0.1768   0.5179   0.5873     O
N       0.1879   0.2348   0.0563     N
H       0.1905   0.1646   0.5653     H
C       0.2024   0.1987   0.9023     C
H       0.2162   0.3369   0.5817     H
V      0.22092  0.58519  0.30724     V
N        0.222   0.5805   0.8279     N
C       0.2327    0.141   0.0812     C
H       0.2481   0.0927   0.6292     H
H       0.2555   0.0353   0.2457     H
H       0.2692   0.2263   0.4741     H
N       0.2697   0.5191   0.7283     N
H       0.2749   0.6606   0.5182     H
N       0.2776   0.3313   0.8639     N
C       0.2815   0.1309   0.5884     C
H       0.2869   0.9486   0.6458     H
O        0.296   0.9803   0.9205     O
H       0.3032   0.0073   0.7609     H
C       0.3052   0.3009   0.6014     C
N       0.3121   0.2672   0.0298     N
C       0.3204    0.559   0.7751     C
O       0.3263     0.92   0.1076     O
H       0.3389   0.1993   0.4006     H
N       0.3529   0.1671   0.8818     N
C       0.3533   0.0332   0.2575     C
N       0.3548   0.2039   0.6075     N
C       0.3597     0.67   0.5363     C
C        0.365   0.2014   0.4461     C
N        0.372   0.0595   0.3135     N
H       0.3757    0.383   0.3799     H
Zn     0.38289  0.48184  0.63663    Zn
N       0.3831   0.1114   0.0741     N
C       0.3925   0.2513   0.8594     C
C        0.393   0.0632   0.5424     C
C       0.3987   0.9246   0.6378     C
O       0.3988   0.5551   0.3266     O
N        0.401   0.3385   0.6274     N
H       0.4043   0.7373   0.3302     H
C       0.4092   0.9897   0.7477     C
N       0.4103   0.7495   0.5202     N
H       0.4189   0.5704   0.7702     H
H       0.4228   0.8533   0.6407     H
C       0.4272   0.1888   0.0416     C
N       0.4396   0.6035   0.5808     N
C       0.4401   0.0984   0.4754     C
C        0.453   0.3546   0.4086     C
C       0.4541   0.9653   0.5665     C
N       0.4672     0.27   0.4425     N
H       0.4693   0.8117   0.9718     H
N       0.4717   0.9536   0.6904     N
N       0.4837   0.0022   0.2161     N
N       0.4854   0.1749   0.6399     N
C       0.4896   0.7416   0.3505     C
Zn     0.49046  0.02607  0.88311    Zn
H        0.493   0.2536   0.8419     H
H        0.507   0.7464   0.1581     H
Zn     0.50954  0.97393  0.11689    Zn
C       0.5104   0.2584   0.6495     C
N       0.5146   0.8251   0.3601     N
N       0.5163   0.9978   0.7839     N
N       0.5283   0.0464   0.3096     N
H       0.5307   0.1883   0.0282     H
N       0.5328     0.73   0.5575     N
C       0.5459   0.0347   0.4335     C
C        0.547   0.6454   0.5914     C
C       0.5599   0.9016   0.5246     C
N       0.5604   0.3965   0.4192     N
C       0.5728   0.8112   0.9584     C
H       0.5772   0.1467   0.3593     H
H       0.5811   0.4296   0.2298     H
N       0.5897   0.2505   0.4798     N
C       0.5908   0.0103   0.2523     C
H       0.5957   0.2627   0.6698     H
N        0.599   0.6615   0.3726     N
O       0.6012   0.4449   0.6734     O
C       0.6013   0.0754   0.3622     C
C        0.607   0.9368   0.4576     C
C       0.6075   0.7487   0.1406     C
N       0.6169   0.8886   0.9259     N
Zn     0.61711  0.51816  0.36337    Zn
H       0.6243    0.617   0.6201     H
N        0.628   0.9405   0.6865     N
C        0.635   0.7986   0.5539     C
C       0.6403     0.33   0.4637     C
N       0.6452   0.7961   0.3925     N
C       0.6467   0.9668   0.7425     C
N       0.6471   0.8329   0.1182     N
H       0.6611   0.8007   0.5994     H
O       0.6737     0.08   0.8924     O
C       0.6796    0.441   0.2249     C
N       0.6879   0.7328   0.9702     N
C       0.6948   0.6991   0.3986     C
H       0.6968   0.9927   0.2391     H
O        0.704   0.0197   0.0795     O
H       0.7131   0.0514   0.3542     H
C       0.7185   0.8691   0.4116     C
N       0.7224   0.6687   0.1361     N
H       0.7251   0.3394   0.4818     H
N       0.7303   0.4809   0.2717     N
H       0.7308   0.7737   0.5259     H
H       0.7445   0.9647   0.7543     H
H       0.7519   0.9073   0.3708     H
C       0.7673    0.859   0.9188     C
N        0.778   0.4195   0.1721     N
V      0.77908  0.41481  0.69276     V
H       0.7838   0.6631   0.4183     H
C       0.7976   0.8013   0.0977     C
H       0.8095   0.8354   0.4347     H
N       0.8121   0.7652   0.9437     N
O       0.8232   0.4821   0.4127     O
V      0.83282  0.10977   0.9005     V
H        0.834   0.8979   0.8991     H
O       0.8362   0.1474   0.9806     O
N       0.8424   0.7061   0.1078     N
V       0.8439  0.07187  0.06392     V
O       0.8468   0.2845   0.6944     O
H       0.8619   0.8422   0.0788     H
C         0.87   0.4851   0.2454     C
H       0.8827   0.5331   0.8444     H
O       0.8906   0.1941   0.8361     O
O       0.8943   0.4789   0.6326     O
H       0.8998   0.6374   0.8553     H
N       0.9029   0.4477   0.1875     N
H       0.9317    0.317   0.9252     H
H       0.9365   0.5112   0.2653     H
O       0.9391   0.5956   0.5091     O
O       0.9429   0.6665   0.6091     O
C       0.9512   0.5677   0.8588     C
H       0.9663   0.3919    0.863     H
H       0.9698   0.2918    0.096     H
C       0.9727   0.7058   0.9488     C
V      0.97273  0.19668  0.74761     V
H       0.9781   0.2654   0.0214     H
C       0.9793   0.5321   0.9315     C
C       0.9818   0.5989    0.976     C
O       0.9842   0.0034   0.9013     O
V       0.9869   0.4844  0.43911     V
V       0.9913   0.5599  0.58255     V
C       0.9977   0.6427   0.0943     C
C       0.9997   0.4326   0.9548     C
