data_I
_chemical_name_common  '/home/zhangsd/repos/MofS-CGCNN/ML/data/TSD/clean_cifs/SUWBET_clean'
_cell_length_a 10.51970
_cell_length_b 10.51970
_cell_length_c 66.08400
_cell_angle_alpha 90.00000
_cell_angle_beta  90.00000
_cell_angle_gamma 120.00000
_space_group_name_H-M_alt      'P 1'


loop_
_space_group_symop_operation_xyz
  'x, y, z' 

loop_
_atom_site_label
_atom_site_fract_x
_atom_site_fract_y
_atom_site_fract_z
_atom_site_type_symbol
Ag         0.0  0.26081     0.75    Ag
Ag         0.0  0.73919     0.25    Ag
N      0.00667  0.26273  0.78244     N
N      0.00667  0.74393  0.28244     N
H      0.01223  0.36227  0.65807     H
H      0.01223  0.64997  0.15807     H
H       0.0167   0.3211   0.9914     H
H       0.0167   0.6956   0.4914     H
C      0.01733  0.40777  0.12966     C
C      0.01733  0.60957  0.62966     C
H      0.02607  0.48533  0.32483     H
H      0.02607  0.54073  0.82483     H
C       0.0285    0.145  0.50011     C
C       0.0285   0.8835  0.00011     C
H      0.02893  0.34557  0.17527     H
H      0.02893  0.68337  0.67527     H
C      0.03193  0.42627   0.1678     C
C      0.03193  0.60567   0.6678     C
N      0.03487  0.40763  0.35214     N
N      0.03487  0.62723  0.85214     N
H       0.0374   0.2213   0.4601     H
H       0.0374   0.8161   0.9601     H
N      0.03943  0.29847  0.68548     N
N      0.03943  0.74097  0.18548     N
H      0.04787  0.20933  0.28823     H
H      0.04787  0.83853  0.78823     H
C       0.0571    0.316  0.46299     C
C       0.0571   0.7411  0.96299     C
C        0.061   0.3014  0.50113     C
C        0.061   0.7596  0.00113     C
N      0.06667  0.22153  0.81337     N
N      0.06667  0.84513  0.31337     N
N       0.0706   0.4106  0.44911     N
N       0.0706     0.66  0.94911     N
Ag     0.07252  0.40586  0.41667    Ag
Ag     0.07252  0.66667  0.91667    Ag
N       0.0743   0.3682  0.48119     N
N       0.0743   0.7061  0.98119     N
C      0.07443  0.35067  0.70368     C
C      0.07443  0.72377  0.20368     C
N      0.07727  0.40393  0.38422     N
N      0.07727  0.67333  0.88422     N
C      0.09117  0.22773   0.7938     C
C      0.09117  0.86343   0.2938     C
C      0.09293  0.36527  0.66554     C
C      0.09293  0.72767  0.16554     C
C       0.1056   0.5301  0.46047     C
C       0.1056   0.5755  0.96047     C
N       0.1118   0.5118  0.48004     N
N       0.1118      0.6  0.98004     N
H      0.11203  0.48277  0.12677     H
H      0.11203  0.62927  0.62677     H
C       0.1165    0.145  0.00011     C
C       0.1165   0.9715  0.50011     C
H        0.124   0.5052   0.9549     H
H        0.124   0.6188   0.4549     H
H      0.12593  0.30727  0.65817     H
H      0.12593  0.81867  0.15817     H
C      0.13657  0.22773   0.2938     C
C      0.13657  0.90883   0.7938     C
C        0.145   0.0285  0.99989     C
C        0.145   0.1165  0.49989     C
H      0.14943  0.44537  0.70657     H
H      0.14943  0.70407  0.20657     H
H        0.152   0.3594   0.5085     H
H        0.152   0.7926   0.0085     H
N      0.15487  0.22153  0.31337     N
N      0.15487  0.93333  0.81337     N
H      0.16147  0.20933  0.78823     H
H      0.16147  0.95213  0.28823     H
H      0.17187  0.45733  0.87843     H
H      0.17187  0.71453  0.37843     H
N      0.17847  0.44513  0.35329     N
N      0.17847  0.73333  0.85329     N
H      0.18133  0.30727  0.15817     H
H      0.18133  0.87407  0.65817     H
H       0.1839   0.2213   0.9601     H
H       0.1839   0.9626   0.4601     H
C      0.18833  0.55017  0.16678     C
C      0.18833  0.63817  0.66678     C
C      0.19677  0.43893  0.37286     C
C      0.19677  0.75783  0.87286     C
H       0.2074   0.3594   0.0085     H
H       0.2074    0.848   0.5085     H
H      0.20933  0.04787  0.21177     H
H      0.20933  0.16147  0.71177     H
C      0.21683  0.52167  0.66656     C
C      0.21683  0.69517  0.16656     C
H       0.2213   0.0374   0.0399     H
H       0.2213   0.1839   0.5399     H
N      0.22153  0.06667  0.68663     N
N      0.22153  0.15487  0.18663     N
C      0.22773  0.09117   0.7062     C
C      0.22773  0.13657   0.2062     C
C       0.2404   0.3014  0.00113     C
C       0.2404    0.939  0.50113     C
C      0.24217  0.43893  0.87286     C
C      0.24217  0.80323  0.37286     C
N      0.25607  0.26273  0.28244     N
N      0.25607  0.99333  0.78244     N
C       0.2589    0.316  0.96299     C
C       0.2589   0.9429  0.46299     C
N      0.25903  0.29847  0.18548     N
N      0.25903  0.96057  0.68548     N
Ag     0.26081      0.0     0.75    Ag
Ag     0.26081  0.26081     0.25    Ag
N      0.26273  0.00667  0.71756     N
N      0.26273  0.25607  0.21756     N
N      0.26667  0.44513  0.85329     N
N      0.26667  0.82153  0.35329     N
C      0.27233  0.36527  0.16554     C
C      0.27233  0.90707  0.66554     C
C      0.27623  0.35067  0.20368     C
C      0.27623  0.92557  0.70368     C
H      0.28547  0.45733  0.37843     H
H      0.28547  0.82813  0.87843     H
N       0.2939   0.3682  0.98119     N
N       0.2939   0.9257  0.48119     N
H      0.29593  0.44537  0.20657     H
H      0.29593  0.85057  0.70657     H
N      0.29847  0.03943  0.81452     N
N      0.29847  0.25903  0.31452     N
C       0.3014    0.061  0.99887     C
C       0.3014   0.2404  0.49887     C
H       0.3044   0.3211   0.4914     H
H       0.3044   0.9833   0.9914     H
C      0.30483  0.52167  0.16656     C
C      0.30483  0.78317  0.66656     C
H      0.30727  0.12593  0.84183     H
H      0.30727  0.18133  0.34183     H
C        0.316   0.0571  0.03701     C
C        0.316   0.2589  0.53701     C
H      0.31663  0.34557  0.67527     H
H      0.31663  0.97107  0.17527     H
H       0.3211   0.0167   0.5086     H
H       0.3211   0.3044   0.0086     H
N      0.32667  0.40393  0.88422     N
N      0.32667  0.92273  0.38422     N
Ag     0.33333  0.40586  0.91667    Ag
Ag     0.33333  0.92748  0.41667    Ag
N         0.34   0.4106  0.94911     N
N         0.34   0.9294  0.44911     N
H      0.34557  0.02893  0.32473     H
H      0.34557  0.31663  0.82473     H
H      0.35003  0.36227  0.15807     H
H      0.35003  0.98777  0.65807     H
C      0.35067  0.07443  0.79632     C
C      0.35067  0.27623  0.29632     C
H       0.3594    0.152   0.9915     H
H       0.3594   0.2074   0.4915     H
C      0.36183  0.55017  0.66678     C
C      0.36183  0.81167  0.16678     C
H      0.36227  0.01223  0.84193     H
H      0.36227  0.35003  0.34193     H
C      0.36527  0.09293  0.83446     C
C      0.36527  0.27233  0.33446     C
N       0.3682   0.0743  0.01881     N
N       0.3682   0.2939  0.51881     N
H      0.37073  0.48277  0.62677     H
H      0.37073  0.88797  0.12677     H
N      0.37277  0.40763  0.85214     N
N      0.37277  0.96513  0.35214     N
H       0.3812   0.5052   0.4549     H
H       0.3812    0.876   0.9549     H
C      0.39043  0.40777  0.62966     C
C      0.39043  0.98267  0.12966     C
C      0.39433  0.42627   0.6678     C
C      0.39433  0.96807   0.1678     C
N          0.4   0.5118  0.98004     N
N          0.4   0.8882  0.48004     N
N      0.40393  0.07727  0.11578     N
N      0.40393  0.32667  0.61578     N
Ag     0.40586  0.07252  0.08333    Ag
Ag     0.40586  0.33333  0.58333    Ag
N      0.40763  0.03487  0.14786     N
N      0.40763  0.37277  0.64786     N
C      0.40777  0.01733  0.37034     C
C      0.40777  0.39043  0.87034     C
N       0.4106   0.0706  0.05089     N
N       0.4106     0.34  0.55089     N
C       0.4245   0.5301  0.96047     C
C       0.4245   0.8944  0.46047     C
C      0.42627  0.03193   0.3322     C
C      0.42627  0.39433   0.8322     C
C      0.43893  0.19677  0.12714     C
C      0.43893  0.24217  0.62714     C
N      0.44513  0.17847  0.14671     N
N      0.44513  0.26667  0.64671     N
H      0.44537  0.14943  0.79343     H
H      0.44537  0.29593  0.29343     H
C      0.44983  0.63817  0.16678     C
C      0.44983  0.81167  0.66678     C
H      0.45733  0.17187  0.62157     H
H      0.45733  0.28547  0.12157     H
H      0.45927  0.48533  0.82483     H
H      0.45927  0.97393  0.32483     H
C       0.4699   0.5755  0.46047     C
C       0.4699   0.8944  0.96047     C
C      0.47833  0.69517  0.66656     C
C      0.47833  0.78317  0.16656     C
H      0.48277  0.11203  0.37323     H
H      0.48277  0.37073  0.87323     H
H      0.48533  0.02607  0.17517     H
H      0.48533  0.45927  0.67517     H
N       0.4882      0.6  0.48004     N
N       0.4882   0.8882  0.98004     N
H       0.4948   0.6188   0.9549     H
H       0.4948    0.876   0.4549     H
H       0.5052    0.124   0.5451     H
H       0.5052   0.3812   0.0451     H
N       0.5118   0.1118  0.01996     N
N       0.5118      0.4  0.51996     N
H      0.51467  0.54073  0.32483     H
H      0.51467  0.97393  0.82483     H
H      0.51723  0.62927  0.12677     H
H      0.51723  0.88797  0.62677     H
C      0.52167  0.21683  0.83344     C
C      0.52167  0.30483  0.33344     C
C       0.5301   0.1056  0.03953     C
C       0.5301   0.4245  0.53953     C
H      0.54073  0.02607  0.67517     H
H      0.54073  0.51467  0.17517     H
H      0.54267  0.71453  0.87843     H
H      0.54267  0.82813  0.37843     H
C      0.55017  0.18833  0.33322     C
C      0.55017  0.36183  0.83322     C
H      0.55463  0.70407  0.70657     H
H      0.55463  0.85057  0.20657     H
N      0.55487  0.73333  0.35329     N
N      0.55487  0.82153  0.85329     N
C      0.56107  0.75783  0.37286     C
C      0.56107  0.80323  0.87286     C
C      0.57373  0.60567   0.1678     C
C      0.57373  0.96807   0.6678     C
C       0.5755   0.1056  0.53953     C
C       0.5755   0.4699  0.03953     C
N       0.5894     0.66  0.44911     N
N       0.5894   0.9294  0.94911     N
C      0.59223  0.60957  0.12966     C
C      0.59223  0.98267  0.62966     C
N      0.59237  0.62723  0.35214     N
N      0.59237  0.96513  0.85214     N
Ag     0.59414  0.66667  0.41667    Ag
Ag     0.59414  0.92748  0.91667    Ag
N      0.59607  0.67333  0.38422     N
N      0.59607  0.92273  0.88422     N
N          0.6   0.1118  0.51996     N
N          0.6   0.4882  0.01996     N
C      0.60567  0.03193   0.8322     C
C      0.60567  0.57373   0.3322     C
C      0.60957  0.01733  0.87034     C
C      0.60957  0.59223  0.37034     C
H       0.6188    0.124   0.0451     H
H       0.6188   0.4948   0.5451     H
N      0.62723  0.03487  0.64786     N
N      0.62723  0.59237  0.14786     N
H      0.62927  0.11203  0.87323     H
H      0.62927  0.51723  0.37323     H
N       0.6318   0.7061  0.48119     N
N       0.6318   0.9257  0.98119     N
C      0.63473  0.72767  0.66554     C
C      0.63473  0.90707  0.16554     C
H      0.63773  0.64997  0.65807     H
H      0.63773  0.98777  0.15807     H
C      0.63817  0.18833  0.83322     C
C      0.63817  0.44983  0.33322     C
H       0.6406   0.7926   0.5085     H
H       0.6406    0.848   0.0085     H
C      0.64933  0.72377  0.70368     C
C      0.64933  0.92557  0.20368     C
H      0.64997  0.01223  0.34193     H
H      0.64997  0.63773  0.84193     H
H      0.65443  0.68337  0.17527     H
H      0.65443  0.97107  0.67527     H
N         0.66   0.0706  0.55089     N
N         0.66   0.5894  0.05089     N
Ag     0.66667  0.07252  0.58333    Ag
Ag     0.66667  0.59414  0.08333    Ag
N      0.67333  0.07727  0.61578     N
N      0.67333  0.59607  0.11578     N
H       0.6789   0.6956   0.9914     H
H       0.6789   0.9833   0.4914     H
H      0.68337  0.02893  0.82473     H
H      0.68337  0.65443  0.32473     H
C        0.684   0.7411  0.46299     C
C        0.684   0.9429  0.96299     C
H      0.69273  0.81867  0.65817     H
H      0.69273  0.87407  0.15817     H
C      0.69517  0.21683  0.33344     C
C      0.69517  0.47833  0.83344     C
H       0.6956   0.0167   0.0086     H
H       0.6956   0.6789   0.5086     H
C       0.6986   0.7596  0.50113     C
C       0.6986    0.939  0.00113     C
N      0.70153  0.74097  0.68548     N
N      0.70153  0.96057  0.18548     N
H      0.70407  0.14943  0.29343     H
H      0.70407  0.55463  0.79343     H
N       0.7061   0.0743  0.51881     N
N       0.7061   0.6318  0.01881     N
H      0.71453  0.17187  0.12157     H
H      0.71453  0.54267  0.62157     H
C      0.72377  0.07443  0.29632     C
C      0.72377  0.64933  0.79632     C
C      0.72767  0.09293  0.33446     C
C      0.72767  0.63473  0.83446     C
N      0.73333  0.17847  0.64671     N
N      0.73333  0.55487  0.14671     N
N      0.73727  0.74393  0.78244     N
N      0.73727  0.99333  0.28244     N
Ag     0.73919      0.0     0.25    Ag
Ag     0.73919  0.73919     0.75    Ag
N      0.74097  0.03943  0.31452     N
N      0.74097  0.70153  0.81452     N
C       0.7411   0.0571  0.53701     C
C       0.7411    0.684  0.03701     C
N      0.74393  0.00667  0.21756     N
N      0.74393  0.73727  0.71756     N
C      0.75783  0.19677  0.62714     C
C      0.75783  0.56107  0.12714     C
C       0.7596    0.061  0.49887     C
C       0.7596   0.6986  0.99887     C
C      0.77227  0.86343   0.7938     C
C      0.77227  0.90883   0.2938     C
N      0.77847  0.84513  0.81337     N
N      0.77847  0.93333  0.31337     N
H       0.7787   0.8161   0.4601     H
H       0.7787   0.9626   0.9601     H
C      0.78317  0.30483  0.83344     C
C      0.78317  0.47833  0.33344     C
H      0.79067  0.83853  0.28823     H
H      0.79067  0.95213  0.78823     H
H       0.7926    0.152   0.4915     H
H       0.7926   0.6406   0.9915     H
C      0.80323  0.24217  0.12714     C
C      0.80323  0.56107  0.62714     C
C      0.81167  0.36183  0.33322     C
C      0.81167  0.44983  0.83322     C
H       0.8161   0.0374   0.5399     H
H       0.8161   0.7787   0.0399     H
H      0.81867  0.12593  0.34183     H
H      0.81867  0.69273  0.84183     H
N      0.82153  0.26667  0.14671     N
N      0.82153  0.55487  0.64671     N
H      0.82813  0.28547  0.62157     H
H      0.82813  0.54267  0.12157     H
H      0.83853  0.04787  0.71177     H
H      0.83853  0.79067  0.21177     H
N      0.84513  0.06667  0.18663     N
N      0.84513  0.77847  0.68663     N
H        0.848   0.2074   0.9915     H
H        0.848   0.6406   0.4915     H
H      0.85057  0.29593  0.79343     H
H      0.85057  0.55463  0.29343     H
C        0.855   0.8835  0.50011     C
C        0.855   0.9715  0.00011     C
C      0.86343  0.09117   0.2062     C
C      0.86343  0.77227   0.7062     C
H      0.87407  0.18133  0.84183     H
H      0.87407  0.69273  0.34183     H
H        0.876   0.3812   0.5451     H
H        0.876   0.4948   0.0451     H
C       0.8835   0.0285  0.49989     C
C       0.8835    0.855  0.99989     C
H      0.88797  0.37073  0.37323     H
H      0.88797  0.51723  0.87323     H
N       0.8882      0.4  0.01996     N
N       0.8882   0.4882  0.51996     N
C       0.8944   0.4245  0.03953     C
C       0.8944   0.4699  0.53953     C
C      0.90707  0.27233  0.83446     C
C      0.90707  0.63473  0.33446     C
C      0.90883  0.13657   0.7062     C
C      0.90883  0.77227   0.2062     C
N      0.92273  0.32667  0.11578     N
N      0.92273  0.59607  0.61578     N
C      0.92557  0.27623  0.79632     C
C      0.92557  0.64933  0.29632     C
N       0.9257   0.2939  0.01881     N
N       0.9257   0.6318  0.51881     N
Ag     0.92748  0.33333  0.08333    Ag
Ag     0.92748  0.59414  0.58333    Ag
N       0.9294     0.34  0.05089     N
N       0.9294   0.5894  0.55089     N
N      0.93333  0.15487  0.68663     N
N      0.93333  0.77847  0.18663     N
C        0.939   0.2404  0.99887     C
C        0.939   0.6986  0.49887     C
C       0.9429   0.2589  0.03701     C
C       0.9429    0.684  0.53701     C
H      0.95213  0.16147  0.21177     H
H      0.95213  0.79067  0.71177     H
N      0.96057  0.25903  0.81452     N
N      0.96057  0.70153  0.31452     N
H       0.9626   0.1839   0.0399     H
H       0.9626   0.7787   0.5399     H
N      0.96513  0.37277  0.14786     N
N      0.96513  0.59237  0.64786     N
C      0.96807  0.39433   0.3322     C
C      0.96807  0.57373   0.8322     C
H      0.97107  0.31663  0.32473     H
H      0.97107  0.65443  0.82473     H
C       0.9715   0.1165  0.99989     C
C       0.9715    0.855  0.49989     C
H      0.97393  0.45927  0.17517     H
H      0.97393  0.51467  0.67517     H
C      0.98267  0.39043  0.37034     C
C      0.98267  0.59223  0.87034     C
H       0.9833   0.3044   0.5086     H
H       0.9833   0.6789   0.0086     H
H      0.98777  0.35003  0.84193     H
H      0.98777  0.63773  0.34193     H
N      0.99333  0.25607  0.71756     N
N      0.99333  0.73727  0.21756     N
