data_I
_chemical_name_common  '/home/zhangsd/repos/MofS-CGCNN/ML/data/TSD/clean_cifs/TAFPOG_clean'
_cell_length_a  8.61100
_cell_length_b  9.09600
_cell_length_c 11.37100
_cell_angle_alpha 104.81100
_cell_angle_beta  111.36800
_cell_angle_gamma 94.24800
_space_group_name_H-M_alt      'P 1'


loop_
_space_group_symop_operation_xyz
  'x, y, z' 

loop_
_atom_site_label
_atom_site_fract_x
_atom_site_fract_y
_atom_site_fract_z
_atom_site_type_symbol
O       0.0129   0.1244   0.2921     O
O       0.0261   0.5667   0.1378     O
Al     0.04841  0.32627    0.356    Al
O       0.0766    0.154   0.8344     O
O       0.1395   0.6044   0.6688     O
P       0.1407  0.00776  0.79024     P
O       0.1553   0.3956   0.2742     O
O       0.1679   0.3572   0.7302     O
P       0.1709  0.48318  0.18037     P
Al     0.17332   0.3638  0.89655    Al
H        0.177    0.962    0.629     H
O       0.1795   0.3693   0.5206     O
O       0.1904   0.3684   0.0657     O
O        0.225   0.0335   0.6939     O
P      0.22918  0.46388  0.66575     P
O       0.2672   0.9669    0.901     O
O       0.3162   0.5759    0.974     O
O       0.3325    0.612   0.2576     O
H        0.403    0.581    0.265     H
O       0.4088   0.3068   0.9427     O
O        0.418   0.5225   0.7338     O
C       0.4737   0.5781   0.0092     C
C       0.5263   0.4219   0.9908     C
O        0.582   0.4775   0.2662     O
O       0.5912   0.6932   0.0573     O
H        0.597    0.419    0.735     H
O       0.6675    0.388   0.7424     O
O       0.6838   0.4241    0.026     O
O       0.7328   0.0331    0.099     O
P      0.77082  0.53612  0.33425     P
O        0.775   0.9665   0.3061     O
O       0.8096   0.6316   0.9343     O
O       0.8205   0.6307   0.4794     O
H        0.823    0.038    0.371     H
Al     0.82668   0.6362  0.10345    Al
P       0.8291  0.51682  0.81963     P
O       0.8321   0.6428   0.2698     O
O       0.8447   0.6044   0.7258     O
P       0.8593  0.99224  0.20976     P
O       0.8605   0.3956   0.3312     O
O       0.9234    0.846   0.1656     O
Al     0.95159  0.67373    0.644    Al
O       0.9739   0.4333   0.8622     O
O       0.9871   0.8756   0.7079     O
