data_I
_chemical_name_common  '/home/zhangsd/repos/MofS-CGCNN/ML/data/TSD/clean_cifs/TAKHEV_clean'
_cell_length_a  9.60500
_cell_length_b 16.76900
_cell_length_c 21.15500
_cell_angle_alpha 104.16000
_cell_angle_beta  100.31000
_cell_angle_gamma 97.16000
_space_group_name_H-M_alt      'P 1'


loop_
_space_group_symop_operation_xyz
  'x, y, z' 

loop_
_atom_site_label
_atom_site_fract_x
_atom_site_fract_y
_atom_site_fract_z
_atom_site_type_symbol
I      0.00929  0.22008  0.52893     I
Cu     0.01403  0.94245  0.54044    Cu
H       0.0356   0.3111   0.3221     H
Cu     0.03805   0.1823  0.40021    Cu
C       0.0567   0.5224   0.1079     C
C       0.0583   0.4443   0.7275     C
O       0.0607    0.517   0.9307     O
C       0.0607   0.7008   0.6764     C
C       0.0611   0.5484   0.1814     C
C       0.0615    0.471   0.7942     C
C        0.067   0.6026    0.317     C
H       0.0676   0.6217   0.3622     H
I      0.08918  0.97768  0.67472     I
N       0.0992   0.7531   0.6427     N
H        0.115   0.2334      0.7     H
H       0.1275   0.6255   0.7322     H
H       0.1331   0.8836   0.2741     H
H         0.14   0.4574   0.7116     H
H       0.1454   0.5022   0.8235     H
C       0.1591    0.663   0.7097     C
O       0.1696   0.5404   0.0888     O
Cu     0.17965  0.05506  0.37757    Cu
H       0.1825   0.3306   0.8055     H
C       0.1877   0.5942   0.2263     C
C       0.1918    0.621    0.294     C
C       0.2058   0.2385   0.7264     C
C       0.2327   0.8983   0.2872     C
C       0.2344   0.7699   0.6424     C
I       0.2384   0.0108  0.50004     I
H       0.2392    0.758   0.3966     H
Cu     0.24479  0.17308  0.49831    Cu
C       0.2467   0.2975   0.7899     C
H       0.2631   0.8074   0.6193     H
H       0.2696   0.6067   0.2104     H
H       0.2706   0.7908   0.2313     H
H       0.2713   0.1499   0.6622     H
Tb     0.27684   0.5123   0.9971    Tb
H       0.2828   0.4179   0.2581     H
N       0.2894   0.9734   0.3303     N
C       0.2994   0.1889   0.7038     C
C        0.302   0.6803   0.7098     C
I      0.30502  0.21058  0.38707     I
H       0.3089   0.4428   0.1566     H
H       0.3145   0.6386   0.8243     H
C       0.3151   0.8417   0.2616     C
C       0.3256   0.7402   0.3919     C
C       0.3258   0.6702   0.3417     C
O       0.3309   0.4099    0.913     O
H       0.3317    0.322   0.6183     H
C       0.3393   0.7342   0.6752     C
O       0.3592   0.5835   0.9234     O
C       0.3638   0.4065   0.2416     C
C       0.3795   0.4217   0.1805     C
H       0.3801   0.0456   0.6579     H
C       0.3821   0.3059   0.8285     C
C       0.3958   0.6274    0.808     C
C       0.4122   0.6437   0.7473     C
C       0.4198   0.3056   0.6153     C
O       0.4219   0.4478   0.0594     O
N       0.4226   0.2392   0.5674     N
C       0.4249   0.3689    0.895     C
H       0.4308   0.7385   0.1693     H
C       0.4335   0.9937   0.3477     C
H        0.435   0.7476   0.6731     H
C        0.439   0.1966   0.7433     C
H        0.446   0.8315    0.467     H
O       0.4484   0.6221   0.0718     O
C       0.4501   0.7836   0.4346     C
H       0.4566   0.3658   0.3177     H
C       0.4593   0.6476   0.3385     C
C       0.4653   0.8606   0.2809     C
H       0.4672   0.6013   0.3055     H
C       0.4674   0.3749    0.277     C
H       0.4753   0.0466   0.3754     H
C       0.4772   0.5751    0.907     C
C       0.4776   0.2553   0.8046     C
C        0.479    0.061   0.6738     C
C       0.4995   0.5949   0.8439     C
C       0.5005   0.4051   0.1561     C
C        0.521    0.939   0.3262     C
C       0.5224   0.7447   0.1954     C
C       0.5228   0.4249    0.093     C
H       0.5247   0.9534   0.6246     H
C       0.5326   0.6251    0.723     C
H       0.5328   0.3987   0.6945     H
C       0.5347   0.1394   0.7191     C
C       0.5407   0.3524   0.6615     C
H       0.5434   0.6342   0.6823     H
C       0.5499   0.2164   0.5654     C
O       0.5516   0.3779   0.9282     O
H        0.554   0.1685    0.533     H
C        0.561   0.8034   0.2567     C
H        0.565   0.2524   0.3269     H
C       0.5665   0.0063   0.6523     C
H       0.5692   0.2615   0.8307     H
C       0.5751   0.6311    0.105     C
N       0.5774   0.7608   0.4326     N
O       0.5781   0.5522   0.9406     O
C       0.5802   0.6944   0.3847     C
C       0.5878   0.3563   0.2527     C
C       0.6042   0.3726    0.192     C
C       0.6179   0.6941   0.1715     C
H       0.6199   0.9544   0.3421     H
C       0.6205   0.5783   0.8195     C
C       0.6362   0.5935   0.7584     C
O       0.6408   0.4165   0.0766     O
C       0.6607   0.2658   0.3248     C
H       0.6683    0.678   0.3817     H
O       0.6691   0.5901    0.087     O
C       0.6742   0.3298   0.6583     C
C       0.6744   0.2598   0.6081     C
C       0.6849   0.1583   0.7384     C
H       0.6855   0.3614   0.1757     H
H       0.6911   0.5572   0.8434     H
I      0.69498  0.78942  0.61293     I
C        0.698   0.3197   0.2902     C
C       0.7006   0.8111   0.2962     C
N       0.7106   0.0266   0.6697     N
H       0.7172   0.5821   0.7419     H
Tb     0.72316   0.4877   0.0029    Tb
H       0.7287   0.8501   0.3378     H
H       0.7294   0.2092   0.7687     H
H       0.7304   0.3933   0.7896     H
H       0.7369   0.1926   0.3807     H
C       0.7533   0.7025   0.2101     C
Cu     0.75521  0.82692  0.50169    Cu
H       0.7608    0.242   0.6034     H
I       0.7616   0.9892  0.49996     I
C       0.7656   0.2301   0.3576     C
C       0.7673   0.1017   0.7128     C
C       0.7942   0.7615   0.2736     C
C       0.8082    0.379    0.706     C
C       0.8123   0.4058   0.7737     C
H       0.8175   0.6694   0.1945     H
Cu     0.82035  0.94494  0.62243    Cu
O       0.8304   0.4596   0.9112     O
C       0.8409    0.337   0.2903     C
H       0.8546   0.4978   0.1765     H
H         0.86   0.5426   0.2884     H
H       0.8669   0.1164   0.7259     H
H       0.8725   0.3745   0.2678     H
H        0.885   0.7666      0.3     H
N       0.9008   0.2469   0.3573     N
I      0.91082  0.02232  0.32528     I
H       0.9324   0.3783   0.6378     H
C        0.933   0.3974    0.683     C
C       0.9385    0.529   0.2058     C
C       0.9389   0.4516   0.8186     C
C       0.9393   0.2992   0.3236     C
O       0.9393    0.483   0.0693     O
C       0.9417   0.5557   0.2725     C
C       0.9433   0.4776   0.8921     C
Cu     0.96195   0.8177  0.59979    Cu
H       0.9644   0.6889   0.6779     H
Cu     0.98597  0.05755  0.45956    Cu
I      0.99071  0.77992  0.47107     I
