data_I
_chemical_name_common  '/home/zhangsd/repos/MofS-CGCNN/ML/data/TSD/clean_cifs/TAKVAF_clean'
_cell_length_a 14.92400
_cell_length_b 14.92400
_cell_length_c 11.92900
_cell_angle_alpha 90.00000
_cell_angle_beta  90.00000
_cell_angle_gamma 90.00000
_space_group_name_H-M_alt      'P 1'


loop_
_space_group_symop_operation_xyz
  'x, y, z' 

loop_
_atom_site_label
_atom_site_fract_x
_atom_site_fract_y
_atom_site_fract_z
_atom_site_type_symbol
H          0.0      0.0   0.1232     H
C          0.0      0.0   0.2029     C
C          0.0      0.0   0.4377     C
C          0.0      0.0   0.5623     C
C          0.0      0.0   0.7971     C
H          0.0      0.0   0.8768     H
C          0.0      0.5   0.0471     C
H          0.0      0.5   0.1268     H
H          0.0      0.5   0.3732     H
C          0.0      0.5   0.4529     C
C          0.0      0.5   0.6877     C
C          0.0      0.5   0.8123     C
C       0.0391   0.0689   0.3797     C
C       0.0391   0.4311   0.8703     C
C       0.0433  0.06944   0.2595     C
C       0.0433  0.43056   0.9905     C
H       0.0641   0.1176   0.4202     H
H       0.0641   0.3824   0.8298     H
C       0.0689   0.0391   0.6203     C
C       0.0689   0.4609   0.6297     C
C      0.06944   0.0433   0.7405     C
C      0.06944   0.4567   0.5095     C
C       0.0911   0.1404    0.201     C
C       0.0911   0.3596    0.049     C
O      0.09944  0.21388  0.25217     O
O      0.09944  0.28612  0.99783     O
H       0.1176   0.0641   0.5798     H
H       0.1176   0.4359   0.6702     H
O      0.12049  0.12249  0.89331     O
O      0.12049  0.37751  0.35669     O
O      0.12249  0.12049  0.10669     O
O      0.12249  0.37951  0.14331     O
C       0.1404   0.0911    0.799     C
C       0.1404   0.4089    0.451     C
H       0.1912     0.25    0.625     H
Fe     0.19347  0.19347      0.0    Fe
Fe     0.19347  0.30653     0.25    Fe
O      0.21388  0.09944  0.74783     O
O      0.21388  0.40056  0.50217     O
O       0.2463     0.25    0.625     O
H         0.25   0.1912    0.375     H
O         0.25   0.2463    0.375     O
O         0.25   0.2537    0.875     O
H         0.25   0.3088    0.875     H
O       0.2537     0.25    0.125     O
O      0.28612  0.09944  0.00217     O
O      0.28612  0.40056  0.24783     O
Fe     0.30653  0.19347     0.75    Fe
Fe     0.30653  0.30653      0.5    Fe
H       0.3088     0.25    0.125     H
C       0.3596   0.0911    0.951     C
C       0.3596   0.4089    0.299     C
O      0.37751  0.12049  0.64331     O
O      0.37751  0.37951  0.60669     O
O      0.37951  0.12249  0.85669     O
O      0.37951  0.37751  0.39331     O
H       0.3824   0.0641   0.1702     H
H       0.3824   0.4359   0.0798     H
O      0.40056  0.21388  0.49783     O
O      0.40056  0.28612  0.75217     O
C       0.4089   0.1404    0.549     C
C       0.4089   0.3596    0.701     C
C      0.43056   0.0433   0.0095     C
C      0.43056   0.4567   0.2405     C
C       0.4311   0.0391   0.1297     C
C       0.4311   0.4609   0.1203     C
H       0.4359   0.1176   0.3298     H
H       0.4359   0.3824   0.9202     H
C       0.4567  0.06944   0.4905     C
C       0.4567  0.43056   0.7595     C
C       0.4609   0.0689   0.3703     C
C       0.4609   0.4311   0.8797     C
C          0.5      0.0   0.1877     C
C          0.5      0.0   0.3123     C
C          0.5      0.0   0.5471     C
H          0.5      0.0   0.6268     H
H          0.5      0.0   0.8732     H
C          0.5      0.0   0.9529     C
C          0.5      0.5   0.0623     C
C          0.5      0.5   0.2971     C
H          0.5      0.5   0.3768     H
H          0.5      0.5   0.6232     H
C          0.5      0.5   0.7029     C
C          0.5      0.5   0.9377     C
C       0.5391   0.5689   0.8797     C
C       0.5391   0.9311   0.3703     C
C       0.5433  0.56944   0.7595     C
C       0.5433  0.93056   0.4905     C
H       0.5641   0.6176   0.9202     H
H       0.5641   0.8824   0.3298     H
C       0.5689   0.5391   0.1203     C
C       0.5689   0.9609   0.1297     C
C      0.56944   0.5433   0.2405     C
C      0.56944   0.9567   0.0095     C
C       0.5911   0.6404    0.701     C
C       0.5911   0.8596    0.549     C
O      0.59944  0.71388  0.75217     O
O      0.59944  0.78612  0.49783     O
H       0.6176   0.5641   0.0798     H
H       0.6176   0.9359   0.1702     H
O      0.62049  0.62249  0.39331     O
O      0.62049  0.87751  0.85669     O
O      0.62249  0.62049  0.60669     O
O      0.62249  0.87951  0.64331     O
C       0.6404   0.5911    0.299     C
C       0.6404   0.9089    0.951     C
H       0.6912     0.75    0.125     H
Fe     0.69347  0.69347      0.5    Fe
Fe     0.69347  0.80653     0.75    Fe
O      0.71388  0.59944  0.24783     O
O      0.71388  0.90056  0.00217     O
O       0.7463     0.75    0.125     O
H         0.75   0.6912    0.875     H
O         0.75   0.7463    0.875     O
O         0.75   0.7537    0.375     O
H         0.75   0.8088    0.375     H
O       0.7537     0.75    0.625     O
O      0.78612  0.59944  0.50217     O
O      0.78612  0.90056  0.74783     O
Fe     0.80653  0.69347     0.25    Fe
Fe     0.80653  0.80653      0.0    Fe
H       0.8088     0.75    0.625     H
C       0.8596   0.5911    0.451     C
C       0.8596   0.9089    0.799     C
O      0.87751  0.62049  0.14331     O
O      0.87751  0.87951  0.10669     O
O      0.87951  0.62249  0.35669     O
O      0.87951  0.87751  0.89331     O
H       0.8824   0.5641   0.6702     H
H       0.8824   0.9359   0.5798     H
O      0.90056  0.71388  0.99783     O
O      0.90056  0.78612  0.25217     O
C       0.9089   0.6404    0.049     C
C       0.9089   0.8596    0.201     C
C      0.93056   0.5433   0.5095     C
C      0.93056   0.9567   0.7405     C
C       0.9311   0.5391   0.6297     C
C       0.9311   0.9609   0.6203     C
H       0.9359   0.6176   0.8298     H
H       0.9359   0.8824   0.4202     H
C       0.9567  0.56944   0.9905     C
C       0.9567  0.93056   0.2595     C
C       0.9609   0.5689   0.8703     C
C       0.9609   0.9311   0.3797     C
