data_I
_chemical_name_common  '/home/zhangsd/repos/MofS-CGCNN/ML/data/TSD/clean_cifs/TANFEV_clean'
_cell_length_a 17.11000
_cell_length_b 17.11000
_cell_length_c 10.74000
_cell_angle_alpha 90.00000
_cell_angle_beta  90.00000
_cell_angle_gamma 90.00000
_space_group_name_H-M_alt      'P 1'


loop_
_space_group_symop_operation_xyz
  'x, y, z' 

loop_
_atom_site_label
_atom_site_fract_x
_atom_site_fract_y
_atom_site_fract_z
_atom_site_type_symbol
Co         0.0      0.0      0.5    Co
Co         0.0     0.25    0.125    Co
Co         0.0      0.5      0.5    Co
Co         0.0     0.75    0.875    Co
O       0.0071   0.0889   0.3685     O
O       0.0071   0.5889   0.6315     O
O       0.0679   0.3192   0.0344     O
O       0.0679   0.8192   0.9656     O
O       0.0692   0.1821   0.2156     O
O       0.0692   0.6821   0.7844     O
O       0.0732   0.4299   0.6093     O
O       0.0732   0.9299   0.3907     O
P      0.08224  0.11418  0.30313     P
P      0.08224  0.61418  0.69687     P
O       0.1004   0.0434   0.5818     O
O       0.1004   0.5434   0.4182     O
O        0.108   0.3942    0.852     O
O        0.108   0.8942    0.148     O
O       0.1167   0.0454   0.2271     O
O       0.1167   0.5454   0.7729     O
P      0.13582  0.33224  0.94687     P
P      0.13582  0.83224  0.05313     P
O       0.1442    0.142    0.398     O
O       0.1442    0.642    0.602     O
Mo     0.16072  0.44074  0.69236    Mo
Mo     0.16072  0.94074  0.30764    Mo
O       0.1611   0.2571   0.8815     O
O       0.1611   0.7571   0.1185     O
O       0.1799   0.1768   0.6407     O
O       0.1799   0.6768   0.3593     O
Mo     0.19074  0.08928  0.55764    Mo
Mo     0.19074  0.58928  0.44236    Mo
O       0.2046   0.3667   0.0229     O
O       0.2046   0.8667   0.9771     O
O       0.2066   0.3504   0.6682     O
O       0.2066   0.8504   0.3318     O
O       0.2148   0.4998   0.5846     O
O       0.2148   0.9998   0.4154     O
O       0.2498   0.0352   0.6654     O
O       0.2498   0.5352   0.3346     O
Co        0.25     0.25     0.75    Co
Co        0.25     0.75     0.25    Co
O       0.2502   0.4648   0.8346     O
O       0.2502   0.9648   0.1654     O
O       0.2852   0.0002   0.9154     O
O       0.2852   0.5002   0.0846     O
O       0.2934   0.1496   0.8318     O
O       0.2934   0.6496   0.1682     O
O       0.2954   0.1333   0.4771     O
O       0.2954   0.6333   0.5229     O
Mo     0.30926  0.41072  0.94236    Mo
Mo     0.30926  0.91072  0.05764    Mo
O       0.3201   0.3232   0.8593     O
O       0.3201   0.8232   0.1407     O
O       0.3389   0.2429   0.6185     O
O       0.3389   0.7429   0.3815     O
Mo     0.33928  0.05926  0.80764    Mo
Mo     0.33928  0.55926  0.19236    Mo
O       0.3558    0.358    0.102     O
O       0.3558    0.858    0.898     O
P      0.36418  0.16776  0.55313     P
P      0.36418  0.66776  0.44687     P
O       0.3833   0.4546   0.2729     O
O       0.3833   0.9546   0.7271     O
O        0.392   0.1058    0.648     O
O        0.392   0.6058    0.352     O
O       0.3996   0.4566   0.9182     O
O       0.3996   0.9566   0.0818     O
P      0.41776  0.38582  0.19687     P
P      0.41776  0.88582  0.80313     P
O       0.4268   0.0701   0.8907     O
O       0.4268   0.5701   0.1093     O
O       0.4308   0.3179   0.2844     O
O       0.4308   0.8179   0.7156     O
O       0.4321   0.1808   0.4656     O
O       0.4321   0.6808   0.5344     O
O       0.4929   0.4111   0.1315     O
O       0.4929   0.9111   0.8685     O
Co         0.5      0.0      0.0    Co
Co         0.5     0.25    0.375    Co
Co         0.5      0.5      0.0    Co
Co         0.5     0.75    0.625    Co
O       0.5071   0.0889   0.1315     O
O       0.5071   0.5889   0.8685     O
O       0.5679   0.3192   0.4656     O
O       0.5679   0.8192   0.5344     O
O       0.5692   0.1821   0.2844     O
O       0.5692   0.6821   0.7156     O
O       0.5732   0.4299   0.8907     O
O       0.5732   0.9299   0.1093     O
P      0.58224  0.11418  0.19687     P
P      0.58224  0.61418  0.80313     P
O       0.6004   0.0434   0.9182     O
O       0.6004   0.5434   0.0818     O
O        0.608   0.3942    0.648     O
O        0.608   0.8942    0.352     O
O       0.6167   0.0454   0.2729     O
O       0.6167   0.5454   0.7271     O
P      0.63582  0.33224  0.55313     P
P      0.63582  0.83224  0.44687     P
O       0.6442    0.142    0.102     O
O       0.6442    0.642    0.898     O
Mo     0.66072  0.44074  0.80764    Mo
Mo     0.66072  0.94074  0.19236    Mo
O       0.6611   0.2571   0.6185     O
O       0.6611   0.7571   0.3815     O
O       0.6799   0.1768   0.8593     O
O       0.6799   0.6768   0.1407     O
Mo     0.69074  0.08928  0.94236    Mo
Mo     0.69074  0.58928  0.05764    Mo
O       0.7046   0.3667   0.4771     O
O       0.7046   0.8667   0.5229     O
O       0.7066   0.3504   0.8318     O
O       0.7066   0.8504   0.1682     O
O       0.7148   0.4998   0.9154     O
O       0.7148   0.9998   0.0846     O
O       0.7498   0.0352   0.8346     O
O       0.7498   0.5352   0.1654     O
Co        0.75     0.25     0.75    Co
Co        0.75     0.75     0.25    Co
O       0.7502   0.4648   0.6654     O
O       0.7502   0.9648   0.3346     O
O       0.7852   0.0002   0.5846     O
O       0.7852   0.5002   0.4154     O
O       0.7934   0.1496   0.6682     O
O       0.7934   0.6496   0.3318     O
O       0.7954   0.1333   0.0229     O
O       0.7954   0.6333   0.9771     O
Mo     0.80926  0.41072  0.55764    Mo
Mo     0.80926  0.91072  0.44236    Mo
O       0.8201   0.3232   0.6407     O
O       0.8201   0.8232   0.3593     O
O       0.8389   0.2429   0.8815     O
O       0.8389   0.7429   0.1185     O
Mo     0.83928  0.05926  0.69236    Mo
Mo     0.83928  0.55926  0.30764    Mo
O       0.8558    0.358    0.398     O
O       0.8558    0.858    0.602     O
P      0.86418  0.16776  0.94687     P
P      0.86418  0.66776  0.05313     P
O       0.8833   0.4546   0.2271     O
O       0.8833   0.9546   0.7729     O
O        0.892   0.1058    0.852     O
O        0.892   0.6058    0.148     O
O       0.8996   0.4566   0.5818     O
O       0.8996   0.9566   0.4182     O
P      0.91776  0.38582  0.30313     P
P      0.91776  0.88582  0.69687     P
O       0.9268   0.0701   0.6093     O
O       0.9268   0.5701   0.3907     O
O       0.9308   0.3179   0.2156     O
O       0.9308   0.8179   0.7844     O
O       0.9321   0.1808   0.0344     O
O       0.9321   0.6808   0.9656     O
O       0.9929   0.4111   0.3685     O
O       0.9929   0.9111   0.6315     O
