data_I
_chemical_name_common  '/home/zhangsd/repos/MofS-CGCNN/ML/data/TSD/clean_cifs/TAPKAY_clean'
_cell_length_a 10.74100
_cell_length_b 11.10900
_cell_length_c 11.93300
_cell_angle_alpha 77.67800
_cell_angle_beta  84.65000
_cell_angle_gamma 75.99000
_space_group_name_H-M_alt      'P 1'


loop_
_space_group_symop_operation_xyz
  'x, y, z' 

loop_
_atom_site_label
_atom_site_fract_x
_atom_site_fract_y
_atom_site_fract_z
_atom_site_type_symbol
Cu      0.0302  0.21568  0.06598    Cu
H       0.0789   0.1329   0.5475     H
H       0.0825   0.4996   0.6553     H
H       0.0864   0.8961    0.621     H
H        0.088    0.645    0.485     H
O        0.107   0.7211   0.8297     O
H       0.1157   0.2813   0.3821     H
H       0.1325   0.9703   0.7927     H
C       0.1337   0.1075   0.4875     C
C       0.1497   0.4858    0.601     C
C       0.1544   0.5732   0.5001     C
C       0.1565   0.1962   0.3888     C
H       0.1638   0.2671   0.7489     H
O       0.1732   0.1492   0.9733     O
C       0.1769   0.8813   0.5976     C
C       0.1945   0.9822    0.493     C
H       0.1977   0.3807   0.9237     H
O       0.1987   0.9814   0.7562     O
H       0.2006   0.7996   0.5749     H
C        0.238   0.1568   0.3043     C
O       0.2449   0.4023   0.8689     O
P       0.2469   0.7251   0.8085     P
C        0.247   0.3777   0.6196     C
C       0.2511   0.2733   0.7244     C
H       0.2531   0.2169   0.2404     H
C       0.2548   0.8737   0.7037     C
C       0.2562   0.5554   0.4217     C
H       0.2594   0.6169   0.3557     H
C       0.2751   0.9518   0.4013     C
H       0.2955   0.1938   0.7031     H
N       0.2982   0.0362   0.3075     N
O       0.3065    0.734   0.9168     O
P       0.3128   0.1518   0.9439     P
H       0.3162   0.8672   0.4045     H
C       0.3182   0.2911   0.8274     C
O       0.3194   0.6154   0.7525     O
C       0.3446    0.363   0.5347     C
N       0.3519   0.4493   0.4392     N
O         0.38   0.0373   0.8919     O
O       0.3801   0.1651   0.0463     O
H       0.4084   0.2887   0.5452     H
P        0.424   0.8702   0.6639     P
O       0.4312   0.8255   0.2141     O
O        0.437    0.997   0.5907     O
Cu     0.45385  0.99308  0.19766    Cu
O       0.4727   0.7601   0.6059     O
O       0.4779   0.6621   0.0877     O
Cu     0.47807  0.75665  0.93413    Cu
P       0.4876    0.303   0.8038     P
O       0.4891   0.8546   0.7777     O
Cu     0.49041  0.58251  0.66854    Cu
O       0.4992    0.405   0.7002     O
O       0.5008    0.595   0.2998     O
Cu     0.50959  0.41749  0.33146    Cu
O       0.5109   0.1454   0.2223     O
P       0.5124    0.697   0.1962     P
Cu     0.52193  0.24335  0.06587    Cu
O       0.5221   0.3379   0.9123     O
O       0.5273   0.2399   0.3941     O
Cu     0.54615  0.00692  0.80234    Cu
O        0.563    0.003   0.4093     O
O       0.5688   0.1745   0.7859     O
P        0.576   0.1298   0.3361     P
H       0.5916   0.7113   0.4548     H
O       0.6199   0.8349   0.9537     O
O         0.62   0.9627   0.1081     O
N       0.6481   0.5507   0.5608     N
C       0.6554    0.637   0.4653     C
O       0.6806   0.3846   0.2475     O
C       0.6818   0.7089   0.1726     C
H       0.6838   0.1328   0.5955     H
P       0.6872   0.8482   0.0561     P
O       0.6935    0.266   0.0832     O
N       0.7018   0.9638   0.6925     N
H       0.7045   0.8062   0.2969     H
C       0.7249   0.0482   0.5987     C
H       0.7406   0.3831   0.6443     H
C       0.7438   0.4446   0.5783     C
C       0.7452   0.1263   0.2963     C
H       0.7469   0.7831   0.7596     H
C       0.7489   0.7267   0.2756     C
C        0.753   0.6223   0.3804     C
P       0.7531   0.2749   0.1915     P
O       0.7551   0.5977   0.1311     O
C        0.762   0.8432   0.6957     C
H       0.7994   0.2004   0.4251     H
O       0.8013   0.0186   0.2438     O
H       0.8023   0.6193   0.0763     H
C       0.8055   0.0178    0.507     C
C       0.8231   0.1187   0.4024     C
O       0.8268   0.8508   0.0267     O
H       0.8362   0.7329   0.2511     H
C       0.8435   0.8038   0.6112     C
C       0.8456   0.4268   0.4999     C
C       0.8503   0.5142    0.399     C
C       0.8663   0.8925   0.5125     C
H       0.8675   0.0297   0.2073     H
H       0.8843   0.7187   0.6179     H
O        0.893   0.2789   0.1703     O
H        0.912    0.355    0.515     H
H       0.9136   0.1039    0.379     H
H       0.9175   0.5004   0.3447     H
H       0.9211   0.8671   0.4525     H
Cu      0.9698  0.78432  0.93402    Cu
