data_I
_chemical_name_common  '/home/zhangsd/repos/MofS-CGCNN/ML/data/TSD/clean_cifs/TAQGEZ_clean'
_cell_length_a  7.61110
_cell_length_b 14.23910
_cell_length_c 14.23910
_cell_angle_alpha 61.55780
_cell_angle_beta  74.49860
_cell_angle_gamma 74.49860
_space_group_name_H-M_alt      'P 1'


loop_
_space_group_symop_operation_xyz
  'x, y, z' 

loop_
_atom_site_label
_atom_site_fract_x
_atom_site_fract_y
_atom_site_fract_z
_atom_site_type_symbol
Cd         0.0      0.0      0.0    Cd
N      0.01275  0.76335  0.00195     N
C       0.0516   0.3997   0.9971     C
N      0.09233  0.14597  0.99597     N
C       0.1062   0.2904   0.9972     C
C       0.1305   0.5496   0.0012     C
C       0.1813   0.4504   0.9988     C
H       0.1929   0.0019   0.5835     H
H       0.2217   0.5835   0.0019     H
N      0.22195  0.00195  0.76335     N
N      0.23427  0.00403  0.85403     N
Cl        0.25  0.87655  0.12345    Cl
N      0.26573  0.14597  0.99597     N
N      0.27805  0.23665  0.99805     N
H       0.2783   0.9981   0.4165     H
H       0.3071   0.4165   0.9981     H
C       0.3187   0.0012   0.5496     C
C       0.3695   0.9988   0.4504     C
C       0.3938   0.0028   0.7096     C
N      0.40767  0.00403  0.85403     N
C       0.4484   0.0029   0.6003     C
N      0.48725  0.99805  0.23665     N
Cd         0.5     -0.0     -0.0    Cd
N      0.51275  0.00195  0.76335     N
C       0.5516   0.9971   0.3997     C
N      0.59233  0.99597  0.14597     N
C       0.6062   0.9972   0.2904     C
C       0.6305   0.0012   0.5496     C
C       0.6813   0.9988   0.4504     C
H       0.6929   0.5835   0.0019     H
H       0.7217   0.0019   0.5835     H
N      0.72195  0.76335  0.00195     N
N      0.73427  0.85403  0.00403     N
Cl        0.75  0.12345  0.87655    Cl
N      0.76573  0.99597  0.14597     N
N      0.77805  0.99805  0.23665     N
H       0.7783   0.4165   0.9981     H
H       0.8071   0.9981   0.4165     H
C       0.8187   0.5496   0.0012     C
C       0.8695   0.4504   0.9988     C
C       0.8938   0.7096   0.0028     C
N      0.90767  0.85403  0.00403     N
C       0.9484   0.6003   0.0029     C
N      0.98725  0.23665  0.99805     N
