data_I
_chemical_name_common  '/home/zhangsd/repos/MofS-CGCNN/ML/data/TSD/clean_cifs/TATYUL_clean'
_cell_length_a 17.30880
_cell_length_b 17.42770
_cell_length_c  7.89490
_cell_angle_alpha 90.00000
_cell_angle_beta  90.00000
_cell_angle_gamma 90.00000
_space_group_name_H-M_alt      'P 1'


loop_
_space_group_symop_operation_xyz
  'x, y, z' 

loop_
_atom_site_label
_atom_site_fract_x
_atom_site_fract_y
_atom_site_fract_z
_atom_site_type_symbol
O       0.0076   0.7449   0.0734     O
O       0.0076   0.7551   0.5734     O
O       0.0218   0.1103   0.6959     O
O       0.0218   0.3897   0.1959     O
C       0.0588   0.0857    0.822     C
C       0.0588   0.4143    0.322     C
O       0.0725   0.1277   0.9523     O
O       0.0725   0.3723   0.4523     O
Ca     0.08049  0.69618  0.82041    Ca
Ca     0.08049  0.80382  0.32041    Ca
C       0.0898   0.0063     0.82     C
C       0.0898   0.4937     0.32     C
H       0.0924   0.5053   0.0635     H
H       0.0924   0.9947   0.5635     H
H       0.0956   0.5063   0.5741     H
H       0.0956   0.9937   0.0741     H
C       0.1044   0.5301   0.1644     C
C       0.1044   0.9699   0.6644     C
C       0.1057    0.531   0.4721     C
C       0.1057    0.969   0.9721     C
C       0.1367   0.6053   0.4732     C
C       0.1367   0.8947   0.9732     C
C        0.137   0.6037   0.1613     C
C        0.137   0.8963   0.6613     C
C       0.1508   0.6416   0.3178     C
C       0.1508   0.8584   0.8178     C
O      0.15519  0.64198   0.6169     O
O      0.15519  0.85802   0.1169     O
O      0.15673  0.63871   0.0166     O
O      0.15673  0.86129   0.5166     O
O      0.17886  0.71392   0.3154     O
O      0.17886  0.78608   0.8154     O
K      0.21606  0.51793  0.81749     K
K      0.21606  0.98207  0.31749     K
O       0.2324   0.0918   0.0584     O
O       0.2324   0.4082   0.5584     O
Ca        0.25     0.75  0.06622    Ca
Ca        0.25     0.75  0.56622    Ca
O       0.2676   0.0918   0.5584     O
O       0.2676   0.4082   0.0584     O
K      0.28394  0.51793  0.31749     K
K      0.28394  0.98207  0.81749     K
O      0.32114  0.71392   0.8154     O
O      0.32114  0.78608   0.3154     O
O      0.34327  0.63871   0.5166     O
O      0.34327  0.86129   0.0166     O
O      0.34481  0.64198   0.1169     O
O      0.34481  0.85802   0.6169     O
C       0.3492   0.6416   0.8178     C
C       0.3492   0.8584   0.3178     C
C        0.363   0.6037   0.6613     C
C        0.363   0.8963   0.1613     C
C       0.3633   0.6053   0.9732     C
C       0.3633   0.8947   0.4732     C
C       0.3943    0.531   0.9721     C
C       0.3943    0.969   0.4721     C
C       0.3956   0.5301   0.6644     C
C       0.3956   0.9699   0.1644     C
H       0.4044   0.5063   0.0741     H
H       0.4044   0.9937   0.5741     H
H       0.4076   0.5053   0.5635     H
H       0.4076   0.9947   0.0635     H
C       0.4102   0.0063     0.32     C
C       0.4102   0.4937     0.82     C
Ca     0.41951  0.69618  0.32041    Ca
Ca     0.41951  0.80382  0.82041    Ca
O       0.4275   0.1277   0.4523     O
O       0.4275   0.3723   0.9523     O
C       0.4412   0.0857    0.322     C
C       0.4412   0.4143    0.822     C
O       0.4782   0.1103   0.1959     O
O       0.4782   0.3897   0.6959     O
O       0.4924   0.7449   0.5734     O
O       0.4924   0.7551   0.0734     O
O       0.5076   0.2449   0.9266     O
O       0.5076   0.2551   0.4266     O
O       0.5218   0.6103   0.3041     O
O       0.5218   0.8897   0.8041     O
C       0.5588   0.5857    0.178     C
C       0.5588   0.9143    0.678     C
O       0.5725   0.6277   0.0477     O
O       0.5725   0.8723   0.5477     O
Ca     0.58049  0.19618  0.17959    Ca
Ca     0.58049  0.30382  0.67959    Ca
C       0.5898   0.5063     0.18     C
C       0.5898   0.9937     0.68     C
H       0.5924   0.0053   0.9365     H
H       0.5924   0.4947   0.4365     H
H       0.5956   0.0063   0.4259     H
H       0.5956   0.4937   0.9259     H
C       0.6044   0.0301   0.8356     C
C       0.6044   0.4699   0.3356     C
C       0.6057    0.031   0.5279     C
C       0.6057    0.469   0.0279     C
C       0.6367   0.1053   0.5268     C
C       0.6367   0.3947   0.0268     C
C        0.637   0.1037   0.8387     C
C        0.637   0.3963   0.3387     C
C       0.6508   0.1416   0.6822     C
C       0.6508   0.3584   0.1822     C
O      0.65519  0.14198   0.3831     O
O      0.65519  0.35802   0.8831     O
O      0.65673  0.13871   0.9834     O
O      0.65673  0.36129   0.4834     O
O      0.67886  0.21392   0.6846     O
O      0.67886  0.28608   0.1846     O
K      0.71606  0.01793  0.18251     K
K      0.71606  0.48207  0.68251     K
O       0.7324   0.5918   0.9416     O
O       0.7324   0.9082   0.4416     O
Ca        0.75     0.25  0.43378    Ca
Ca        0.75     0.25  0.93378    Ca
O       0.7676   0.5918   0.4416     O
O       0.7676   0.9082   0.9416     O
K      0.78394  0.01793  0.68251     K
K      0.78394  0.48207  0.18251     K
O      0.82114  0.21392   0.1846     O
O      0.82114  0.28608   0.6846     O
O      0.84327  0.13871   0.4834     O
O      0.84327  0.36129   0.9834     O
O      0.84481  0.14198   0.8831     O
O      0.84481  0.35802   0.3831     O
C       0.8492   0.1416   0.1822     C
C       0.8492   0.3584   0.6822     C
C        0.863   0.1037   0.3387     C
C        0.863   0.3963   0.8387     C
C       0.8633   0.1053   0.0268     C
C       0.8633   0.3947   0.5268     C
C       0.8943    0.031   0.0279     C
C       0.8943    0.469   0.5279     C
C       0.8956   0.0301   0.3356     C
C       0.8956   0.4699   0.8356     C
H       0.9044   0.0063   0.9259     H
H       0.9044   0.4937   0.4259     H
H       0.9076   0.0053   0.4365     H
H       0.9076   0.4947   0.9365     H
C       0.9102   0.5063     0.68     C
C       0.9102   0.9937     0.18     C
Ca     0.91951  0.19618  0.67959    Ca
Ca     0.91951  0.30382  0.17959    Ca
O       0.9275   0.6277   0.5477     O
O       0.9275   0.8723   0.0477     O
C       0.9412   0.5857    0.678     C
C       0.9412   0.9143    0.178     C
O       0.9782   0.6103   0.8041     O
O       0.9782   0.8897   0.3041     O
O       0.9924   0.2449   0.4266     O
O       0.9924   0.2551   0.9266     O
