data_I
_chemical_name_common  '/home/zhangsd/repos/MofS-CGCNN/ML/data/TSD/clean_cifs/TAZLIR_clean'
_cell_length_a 19.48760
_cell_length_b 19.48760
_cell_length_c 26.37700
_cell_angle_alpha 90.00000
_cell_angle_beta  90.00000
_cell_angle_gamma 90.00000
_space_group_name_H-M_alt      'P 1'


loop_
_space_group_symop_operation_xyz
  'x, y, z' 

loop_
_atom_site_label
_atom_site_fract_x
_atom_site_fract_y
_atom_site_fract_z
_atom_site_type_symbol
H       0.0127   0.2488   0.7308     H
H       0.0127   0.2512   0.2308     H
O       0.0132   0.1264   0.7598     O
O       0.0132   0.3736   0.2598     O
C       0.0155   0.7441   0.7974     C
C       0.0155   0.7559   0.2974     C
C       0.0164   0.6286   0.3064     C
C       0.0164   0.8714   0.8064     C
C       0.0195   0.6182   0.7803     C
C       0.0195   0.8818   0.2803     C
O       0.0209   0.1233   0.2325     O
O       0.0209   0.3767   0.7325     O
Cd      0.0299   0.0299  0.80393    Cd
Cd      0.0299   0.4701  0.30393    Cd
C       0.0347   0.6991   0.3246     C
C       0.0347   0.8009   0.8246     C
O       0.0377   0.5787   0.3302     O
O       0.0377   0.9213   0.8302     O
C        0.038   0.6797   0.8119     C
C        0.038   0.8203   0.3119     C
O       0.0397   0.5623    0.794     O
O       0.0397   0.9377    0.294     O
Sm     0.05899  0.05899  0.30287    Sm
Sm     0.05899  0.44101  0.80287    Sm
O       0.0623   0.5397    0.206     O
O       0.0623   0.9603    0.706     O
C       0.0768   0.7058   0.3668     C
C       0.0768   0.7942   0.8668     C
O       0.0787   0.5377   0.6698     O
O       0.0787   0.9623   0.1698     O
C       0.0801   0.6727   0.8544     C
C       0.0801   0.8273   0.3544     C
H         0.09   0.6671   0.3849     H
H         0.09   0.8329   0.8849     H
H       0.0955   0.6296   0.8643     H
H       0.0955   0.8704   0.3643     H
C       0.0988   0.7304   0.8816     C
C       0.0988   0.7696   0.3816     C
C       0.1182   0.5195   0.2197     C
C       0.1182   0.9805   0.7197     C
O       0.1233   0.0209   0.2325     O
O       0.1233   0.4791   0.7325     O
O       0.1264   0.0132   0.7598     O
O       0.1264   0.4868   0.2598     O
C       0.1286   0.5164   0.6936     C
C       0.1286   0.9836   0.1936     C
H       0.1296   0.5955   0.1357     H
H       0.1296   0.9045   0.6357     H
C       0.1476    0.725   0.9255     C
C       0.1476    0.775   0.4255     C
O       0.1635   0.7214   0.4489     O
O       0.1635   0.7786   0.9489     O
H       0.1671     0.59   0.6151     H
H       0.1671     0.91   0.1151     H
O       0.1677   0.6728   0.0639     O
O       0.1677   0.8272   0.5639     O
C       0.1727   0.5801   0.1456     C
C       0.1727   0.9199   0.6456     C
O       0.1728   0.6677   0.9361     O
O       0.1728   0.8323   0.4361     O
C       0.1797    0.538   0.1881     C
C       0.1797    0.962   0.6881     C
C       0.1991   0.5347   0.6754     C
C       0.1991   0.9653   0.1754     C
C       0.2058   0.5768   0.6332     C
C       0.2058   0.9232   0.1332     C
O       0.2214   0.6635   0.5511     O
O       0.2214   0.8365   0.0511     O
C        0.225   0.6476   0.0745     C
C        0.225   0.8524   0.5745     C
C       0.2304   0.5988   0.1184     C
C       0.2304   0.9012   0.6184     C
C       0.2441   0.5155   0.2026     C
C       0.2441   0.9845   0.7026     C
H       0.2488   0.0127   0.7308     H
H       0.2488   0.4873   0.2308     H
Cd        0.25     0.75      0.0    Cd
Cd        0.25     0.75      0.5    Cd
H       0.2512   0.0127   0.2308     H
H       0.2512   0.4873   0.7308     H
C       0.2559   0.5155   0.7026     C
C       0.2559   0.9845   0.2026     C
C       0.2696   0.5988   0.6184     C
C       0.2696   0.9012   0.1184     C
C        0.275   0.6476   0.5745     C
C        0.275   0.8524   0.0745     C
O       0.2786   0.6635   0.0511     O
O       0.2786   0.8365   0.5511     O
C       0.2942   0.5768   0.1332     C
C       0.2942   0.9232   0.6332     C
C       0.3009   0.5347   0.1754     C
C       0.3009   0.9653   0.6754     C
C       0.3203    0.538   0.6881     C
C       0.3203    0.962   0.1881     C
O       0.3272   0.6677   0.4361     O
O       0.3272   0.8323   0.9361     O
C       0.3273   0.5801   0.6456     C
C       0.3273   0.9199   0.1456     C
O       0.3323   0.6728   0.5639     O
O       0.3323   0.8272   0.0639     O
H       0.3329     0.59   0.1151     H
H       0.3329     0.91   0.6151     H
O       0.3365   0.7214   0.9489     O
O       0.3365   0.7786   0.4489     O
C       0.3524    0.725   0.4255     C
C       0.3524    0.775   0.9255     C
H       0.3704   0.5955   0.6357     H
H       0.3704   0.9045   0.1357     H
C       0.3714   0.5164   0.1936     C
C       0.3714   0.9836   0.6936     C
O       0.3736   0.0132   0.2598     O
O       0.3736   0.4868   0.7598     O
O       0.3767   0.0209   0.7325     O
O       0.3767   0.4791   0.2325     O
C       0.3818   0.5195   0.7197     C
C       0.3818   0.9805   0.2197     C
C       0.4012   0.7304   0.3816     C
C       0.4012   0.7696   0.8816     C
H       0.4045   0.6296   0.3643     H
H       0.4045   0.8704   0.8643     H
H         0.41   0.6671   0.8849     H
H         0.41   0.8329   0.3849     H
C       0.4199   0.6727   0.3544     C
C       0.4199   0.8273   0.8544     C
O       0.4213   0.5377   0.1698     O
O       0.4213   0.9623   0.6698     O
C       0.4232   0.7058   0.8668     C
C       0.4232   0.7942   0.3668     C
O       0.4377   0.5397    0.706     O
O       0.4377   0.9603    0.206     O
Sm     0.44101  0.05899  0.80287    Sm
Sm     0.44101  0.44101  0.30287    Sm
O       0.4603   0.5623    0.294     O
O       0.4603   0.9377    0.794     O
C        0.462   0.6797   0.3119     C
C        0.462   0.8203   0.8119     C
O       0.4623   0.5787   0.8302     O
O       0.4623   0.9213   0.3302     O
C       0.4653   0.6991   0.8246     C
C       0.4653   0.8009   0.3246     C
Cd      0.4701   0.0299  0.30393    Cd
Cd      0.4701   0.4701  0.80393    Cd
O       0.4791   0.1233   0.7325     O
O       0.4791   0.3767   0.2325     O
C       0.4805   0.6182   0.2803     C
C       0.4805   0.8818   0.7803     C
C       0.4836   0.6286   0.8064     C
C       0.4836   0.8714   0.3064     C
C       0.4845   0.7441   0.2974     C
C       0.4845   0.7559   0.7974     C
O       0.4868   0.1264   0.2598     O
O       0.4868   0.3736   0.7598     O
H       0.4873   0.2488   0.2308     H
H       0.4873   0.2512   0.7308     H
H       0.5127   0.7488   0.2692     H
H       0.5127   0.7512   0.7692     H
O       0.5132   0.6264   0.2402     O
O       0.5132   0.8736   0.7402     O
C       0.5155   0.2441   0.2026     C
C       0.5155   0.2559   0.7026     C
C       0.5164   0.1286   0.6936     C
C       0.5164   0.3714   0.1936     C
C       0.5195   0.1182   0.2197     C
C       0.5195   0.3818   0.7197     C
O       0.5209   0.6233   0.7675     O
O       0.5209   0.8767   0.2675     O
Cd      0.5299   0.5299  0.19607    Cd
Cd      0.5299   0.9701  0.69607    Cd
C       0.5347   0.1991   0.6754     C
C       0.5347   0.3009   0.1754     C
O       0.5377   0.0787   0.6698     O
O       0.5377   0.4213   0.1698     O
C        0.538   0.1797   0.1881     C
C        0.538   0.3203   0.6881     C
O       0.5397   0.0623    0.206     O
O       0.5397   0.4377    0.706     O
Sm     0.55899  0.55899  0.69713    Sm
Sm     0.55899  0.94101  0.19713    Sm
O       0.5623   0.0397    0.794     O
O       0.5623   0.4603    0.294     O
C       0.5768   0.2058   0.6332     C
C       0.5768   0.2942   0.1332     C
O       0.5787   0.0377   0.3302     O
O       0.5787   0.4623   0.8302     O
C       0.5801   0.1727   0.1456     C
C       0.5801   0.3273   0.6456     C
H         0.59   0.1671   0.6151     H
H         0.59   0.3329   0.1151     H
H       0.5955   0.1296   0.1357     H
H       0.5955   0.3704   0.6357     H
C       0.5988   0.2304   0.1184     C
C       0.5988   0.2696   0.6184     C
C       0.6182   0.0195   0.7803     C
C       0.6182   0.4805   0.2803     C
O       0.6233   0.5209   0.7675     O
O       0.6233   0.9791   0.2675     O
O       0.6264   0.5132   0.2402     O
O       0.6264   0.9868   0.7402     O
C       0.6286   0.0164   0.3064     C
C       0.6286   0.4836   0.8064     C
H       0.6296   0.0955   0.8643     H
H       0.6296   0.4045   0.3643     H
C       0.6476    0.225   0.0745     C
C       0.6476    0.275   0.5745     C
O       0.6635   0.2214   0.5511     O
O       0.6635   0.2786   0.0511     O
H       0.6671     0.09   0.3849     H
H       0.6671     0.41   0.8849     H
O       0.6677   0.1728   0.9361     O
O       0.6677   0.3272   0.4361     O
C       0.6727   0.0801   0.8544     C
C       0.6727   0.4199   0.3544     C
O       0.6728   0.1677   0.0639     O
O       0.6728   0.3323   0.5639     O
C       0.6797    0.038   0.8119     C
C       0.6797    0.462   0.3119     C
C       0.6991   0.0347   0.3246     C
C       0.6991   0.4653   0.8246     C
C       0.7058   0.0768   0.3668     C
C       0.7058   0.4232   0.8668     C
O       0.7214   0.1635   0.4489     O
O       0.7214   0.3365   0.9489     O
C        0.725   0.1476   0.9255     C
C        0.725   0.3524   0.4255     C
C       0.7304   0.0988   0.8816     C
C       0.7304   0.4012   0.3816     C
C       0.7441   0.0155   0.7974     C
C       0.7441   0.4845   0.2974     C
H       0.7488   0.5127   0.2692     H
H       0.7488   0.9873   0.7692     H
Cd        0.75     0.25      0.0    Cd
Cd        0.75     0.25      0.5    Cd
H       0.7512   0.5127   0.7692     H
H       0.7512   0.9873   0.2692     H
C       0.7559   0.0155   0.2974     C
C       0.7559   0.4845   0.7974     C
C       0.7696   0.0988   0.3816     C
C       0.7696   0.4012   0.8816     C
C        0.775   0.1476   0.4255     C
C        0.775   0.3524   0.9255     C
O       0.7786   0.1635   0.9489     O
O       0.7786   0.3365   0.4489     O
C       0.7942   0.0768   0.8668     C
C       0.7942   0.4232   0.3668     C
C       0.8009   0.0347   0.8246     C
C       0.8009   0.4653   0.3246     C
C       0.8203    0.038   0.3119     C
C       0.8203    0.462   0.8119     C
O       0.8272   0.1677   0.5639     O
O       0.8272   0.3323   0.0639     O
C       0.8273   0.0801   0.3544     C
C       0.8273   0.4199   0.8544     C
O       0.8323   0.1728   0.4361     O
O       0.8323   0.3272   0.9361     O
H       0.8329     0.09   0.8849     H
H       0.8329     0.41   0.3849     H
O       0.8365   0.2214   0.0511     O
O       0.8365   0.2786   0.5511     O
C       0.8524    0.225   0.5745     C
C       0.8524    0.275   0.0745     C
H       0.8704   0.0955   0.3643     H
H       0.8704   0.4045   0.8643     H
C       0.8714   0.0164   0.8064     C
C       0.8714   0.4836   0.3064     C
O       0.8736   0.5132   0.7402     O
O       0.8736   0.9868   0.2402     O
O       0.8767   0.5209   0.2675     O
O       0.8767   0.9791   0.7675     O
C       0.8818   0.0195   0.2803     C
C       0.8818   0.4805   0.7803     C
C       0.9012   0.2304   0.6184     C
C       0.9012   0.2696   0.1184     C
H       0.9045   0.1296   0.6357     H
H       0.9045   0.3704   0.1357     H
H         0.91   0.1671   0.1151     H
H         0.91   0.3329   0.6151     H
C       0.9199   0.1727   0.6456     C
C       0.9199   0.3273   0.1456     C
O       0.9213   0.0377   0.8302     O
O       0.9213   0.4623   0.3302     O
C       0.9232   0.2058   0.1332     C
C       0.9232   0.2942   0.6332     C
O       0.9377   0.0397    0.294     O
O       0.9377   0.4603    0.794     O
Sm     0.94101  0.55899  0.19713    Sm
Sm     0.94101  0.94101  0.69713    Sm
O       0.9603   0.0623    0.706     O
O       0.9603   0.4377    0.206     O
C        0.962   0.1797   0.6881     C
C        0.962   0.3203   0.1881     C
O       0.9623   0.0787   0.1698     O
O       0.9623   0.4213   0.6698     O
C       0.9653   0.1991   0.1754     C
C       0.9653   0.3009   0.6754     C
Cd      0.9701   0.5299  0.69607    Cd
Cd      0.9701   0.9701  0.19607    Cd
O       0.9791   0.6233   0.2675     O
O       0.9791   0.8767   0.7675     O
C       0.9805   0.1182   0.7197     C
C       0.9805   0.3818   0.2197     C
C       0.9836   0.1286   0.1936     C
C       0.9836   0.3714   0.6936     C
C       0.9845   0.2441   0.7026     C
C       0.9845   0.2559   0.2026     C
O       0.9868   0.6264   0.7402     O
O       0.9868   0.8736   0.2402     O
H       0.9873   0.7488   0.7692     H
H       0.9873   0.7512   0.2692     H
