data_I
_chemical_name_common  '/home/zhangsd/repos/MofS-CGCNN/ML/data/TSD/clean_cifs/TEDSIG_clean'
_cell_length_a 10.18410
_cell_length_b 12.03860
_cell_length_c 18.83000
_cell_angle_alpha 90.00000
_cell_angle_beta  99.15900
_cell_angle_gamma 90.00000
_space_group_name_H-M_alt      'P 1'


loop_
_space_group_symop_operation_xyz
  'x, y, z' 

loop_
_atom_site_label
_atom_site_fract_x
_atom_site_fract_y
_atom_site_fract_z
_atom_site_type_symbol
C       0.0056   0.5171  0.66951     C
O      0.00596  0.80815  0.73691     O
C        0.012   0.6355  0.23982     C
H       0.0121   0.6019   0.5376     H
H       0.0148   0.4042   0.3306     H
C       0.0229   0.8236   0.8058     C
C       0.0256   0.5221  0.53736     C
H       0.0265   0.6099   0.4031     H
O      0.02755  0.96229  0.34551     O
C       0.0427   0.5305  0.40413     C
O      0.05125  0.12293   0.1615     O
N       0.0563  0.53856   0.2744     N
H       0.0648   0.3255   0.7551     H
H       0.0675   0.1155   0.5505     H
C       0.0748   0.0801    0.692     C
H       0.0959   0.7248   0.1672     H
C       0.1012   0.6631  0.19716     C
H       0.1015   0.5089   0.6806     H
O       0.1071  0.06895  0.75795     O
H       0.1205   0.5084   0.5485     H
Zn     0.12061  0.10079  0.32646    Zn
H       0.1218   0.8218   0.9454     H
O      0.12515  0.14647  0.42683     O
H        0.138    0.519    0.416     H
C       0.1386   0.1543  0.57618     C
C       0.1449   0.7679  0.84671     C
H       0.1592   0.9209    0.233     H
C       0.1627   0.1484  0.65113     C
C       0.1726   0.5106  0.25261     C
C       0.1739   0.7764  0.92119     C
N       0.2014  0.58523  0.20502     N
C       0.2044   0.2191  0.45827     C
H       0.2088   0.6966   0.7615     H
H       0.2125   0.3475   0.2505     H
C       0.2204    0.218  0.53975     C
C       0.2274   0.7033  0.81127     C
O       0.2307   0.7843  0.07162     O
H        0.247   0.9003   0.1731     H
C       0.2484   0.9112   0.2237     C
C       0.2516   0.4112   0.2763     C
H        0.253   0.4003   0.3269     H
O       0.2693   0.2843  0.42838     O
C       0.2726   0.2033  0.68873     C
C       0.2796    0.718  0.96025     C
H       0.2875   0.8475   0.2495     H
H       0.2912   0.1966   0.7385     H
C       0.2956   0.7191  0.04173     C
N       0.2986  0.08523  0.29498     N
C       0.3261   0.2764  0.57881     C
C       0.3274   0.0106  0.24739     C
C       0.3373   0.6484  0.84887     C
H       0.3408   0.4209    0.267     H
C       0.3551   0.2679  0.65329     C
C       0.3614   0.6543  0.92382     C
H        0.362    0.019    0.084     H
O      0.37485  0.64647  0.07317     O
H       0.3782   0.3218   0.5546     H
Zn     0.37939  0.60079  0.17354    Zn
H       0.3795   0.0084   0.9515     H
O       0.3929  0.56895  0.74205     O
H       0.3985   0.0089   0.8194     H
C       0.3988   0.1631  0.30284     C
H       0.4041   0.2248   0.3328     H
C       0.4252   0.5801    0.808     C
H       0.4325   0.6155   0.9495     H
H       0.4352   0.8255   0.7449     H
N       0.4437  0.03856   0.2256     N
O      0.44875  0.62293   0.3385     O
C       0.4573   0.0305  0.09587     C
O      0.47245  0.46229  0.15449     O
H       0.4735   0.1099   0.0969     H
C       0.4744   0.0221  0.96264     C
C       0.4771   0.3236   0.6942     C
H       0.4852   0.9042   0.1694     H
H       0.4879   0.1019   0.9624     H
C        0.488   0.1355  0.26018     C
O      0.49404  0.30815  0.76309     O
C       0.4944   0.0171  0.83049     C
C       0.5056   0.9829  0.16951     C
O      0.50596  0.69185  0.23691     O
C        0.512   0.8645  0.73982     C
H       0.5121   0.8981   0.0376     H
H       0.5148   0.0958   0.8306     H
C       0.5229   0.6764   0.3058     C
C       0.5256   0.9779  0.03736     C
H       0.5265   0.8901   0.9031     H
O      0.52755  0.53771  0.84551     O
C       0.5427   0.9695  0.90413     C
O      0.55125  0.37707   0.6615     O
N       0.5563  0.96144   0.7744     N
H       0.5648   0.1745   0.2551     H
H       0.5675   0.3845   0.0505     H
C       0.5748   0.4199    0.192     C
H       0.5959   0.7752   0.6672     H
C       0.6012   0.8369  0.69716     C
H       0.6015   0.9911   0.1806     H
O       0.6071  0.43105  0.25795     O
H       0.6205   0.9916   0.0485     H
Zn     0.62061  0.39921  0.82646    Zn
H       0.6218   0.6782   0.4454     H
O      0.62515  0.35353  0.92683     O
H        0.638    0.981    0.916     H
C       0.6386   0.3457  0.07618     C
C       0.6449   0.7321  0.34671     C
H       0.6592   0.5791    0.733     H
C       0.6627   0.3516  0.15113     C
C       0.6726   0.9894  0.75261     C
C       0.6739   0.7236  0.42119     C
N       0.7014  0.91477  0.70502     N
C       0.7044   0.2809  0.95827     C
H       0.7088   0.8034   0.2615     H
H       0.7125   0.1525   0.7505     H
C       0.7204    0.282  0.03975     C
C       0.7274   0.7967  0.31127     C
O       0.7307   0.7157  0.57162     O
H        0.747   0.5997   0.6731     H
C       0.7484   0.5888   0.7237     C
C       0.7516   0.0888   0.7763     C
H        0.753   0.0997   0.8269     H
O       0.7693   0.2157  0.92838     O
C       0.7726   0.2967  0.18873     C
C       0.7796    0.782  0.46025     C
H       0.7875   0.6525   0.7495     H
H       0.7912   0.3034   0.2385     H
C       0.7956   0.7809  0.54173     C
N       0.7986  0.41477  0.79498     N
C       0.8261   0.2236  0.07881     C
C       0.8274   0.4894  0.74739     C
C       0.8373   0.8516  0.34887     C
H       0.8408   0.0791    0.767     H
C       0.8551   0.2321  0.15329     C
C       0.8614   0.8457  0.42382     C
H        0.862    0.481    0.584     H
O      0.87485  0.85353  0.57317     O
H       0.8782   0.1782   0.0546     H
Zn     0.87939  0.89921  0.67354    Zn
H       0.8795   0.4916   0.4515     H
O       0.8929  0.93105  0.24205     O
H       0.8985   0.4911   0.3194     H
C       0.8988   0.3369  0.80284     C
H       0.9041   0.2752   0.8328     H
C       0.9252   0.9199    0.308     C
H       0.9325   0.8845   0.4495     H
H       0.9352   0.6745   0.2449     H
N       0.9437  0.46144   0.7256     N
O      0.94875  0.87707   0.8385     O
C       0.9573   0.4695  0.59587     C
O      0.97245  0.03771  0.65449     O
H       0.9735   0.3901   0.5969     H
C       0.9744   0.4779  0.46264     C
C       0.9771   0.1764   0.1942     C
H       0.9852   0.5958   0.6694     H
H       0.9879   0.3981   0.4624     H
C        0.988   0.3645  0.76018     C
O      0.99404  0.19185  0.26309     O
C       0.9944   0.4829  0.33049     C
