data_I
_chemical_name_common  '/home/zhangsd/repos/MofS-CGCNN/ML/data/TSD/clean_cifs/TETWEW_clean'
_cell_length_a 12.39700
_cell_length_b 15.19470
_cell_length_c 20.95080
_cell_angle_alpha 90.95000
_cell_angle_beta  92.99700
_cell_angle_gamma 96.04900
_space_group_name_H-M_alt      'P 1'


loop_
_space_group_symop_operation_xyz
  'x, y, z' 

loop_
_atom_site_label
_atom_site_fract_x
_atom_site_fract_y
_atom_site_fract_z
_atom_site_type_symbol
Na         0.0      0.0      0.5    Na
P      0.01042  0.86915  0.65572     P
O       0.0124    0.154   0.5047     O
O       0.0144   0.3125   0.4299     O
O       0.0144   0.8185   0.7178     O
O       0.0214   0.9694   0.6713     O
O       0.0274   0.1323   0.6363     O
Zn     0.04033  0.87359   0.8026    Zn
P      0.05071  0.08443  0.79413     P
O       0.0563   0.1561   0.8458     O
O       0.0605   0.9188   0.2438     O
O       0.0644   0.2341     0.05     O
O       0.0645   0.9955   0.8248     O
Mo      0.0891  0.76185  0.52209    Mo
O       0.0936   0.1737   0.1597     O
O       0.0978   0.1571   0.3827     O
O       0.1035   0.8483    0.614     O
Mo     0.11837  0.94234  0.33699    Mo
Mo     0.12079  0.24434  0.47359    Mo
O       0.1277   0.9866   0.4254     O
O       0.1327   0.8076   0.9475     O
P      0.14188  0.23479   0.1096     P
O       0.1427   0.1062   0.7482     O
O       0.1481   0.0204   0.5687     O
O       0.1675    0.329   0.1392     O
Mo     0.16978  0.06788  0.65602    Mo
O       0.1757   0.8269   0.8329     O
O       0.1795   0.6787   0.8788     O
P      0.20195    0.778  0.89318     P
O       0.2059    0.045   0.3039     O
O       0.2076   0.7032   0.5768     O
O       0.2126   0.8676   0.5127     O
O       0.2281   0.3112   0.4135     O
O       0.2284   0.1448   0.4806     O
Mo     0.24058  0.07174  0.39493    Mo
Na       0.243   0.2532  0.74944    Na
Mo     0.24803  0.56643  0.90619    Mo
O       0.2485   0.9716   0.6892     O
O       0.2489   0.2002   0.0904     O
O       0.2489   0.5347   0.8151     O
Mo     0.25481  0.94265  0.59804    Mo
Mo     0.25831  0.44159  0.10757    Mo
O       0.2634   0.3653   0.0231     O
O       0.2636   0.1547   0.6485     O
O       0.2959   0.4721   0.1981     O
O       0.3014   0.6433   0.9885     O
O       0.3192   0.8056   0.9168     O
O       0.3218   0.1889   0.3636     O
P      0.32264  0.73825  0.60125     P
Mo     0.32354  0.43543  0.84715    Mo
O       0.3238   0.8314   0.6299     O
P      0.33706  0.28302  0.39249     P
O       0.3432   0.3981   0.7541     O
O       0.3517   0.4849   0.9334     O
O       0.3596   0.6786   0.6541     O
Mo     0.36236  0.25944  0.03045    Mo
O        0.377   0.5205   0.0752     O
O       0.3783   0.3461   0.3413     O
Mo     0.39065   0.5683  0.16255    Mo
O       0.3943    0.349   0.1219     O
O       0.3971   0.7398   0.5443     O
O       0.4042   0.6536   0.8842     O
O       0.4163     0.29   0.4517     O
O       0.4232   0.3405   0.6564     O
Mo     0.42954  0.74371   0.9738    Mo
O       0.4353   0.5028   0.6775     O
P      0.43703  0.41244  0.70827     P
O       0.4537   0.5953   0.2538     O
O       0.4593   0.3652   0.8664     O
O       0.4628   0.1887   0.0764     O
O       0.4758   0.3443    0.998     O
O       0.4771   0.5277   0.8277     O
Zn     0.48082  0.62329  0.69394    Zn
O        0.491   0.6797   0.7792     O
P      0.49498  0.62817   0.8421     P
Na         0.5      0.5      0.0    Na
P      0.50502  0.37183   0.1579     P
O        0.509   0.3203   0.2208     O
Zn     0.51918  0.37671  0.30606    Zn
O       0.5229   0.4723   0.1723     O
O       0.5242   0.6557    0.002     O
O       0.5372   0.8113   0.9236     O
O       0.5407   0.6348   0.1336     O
O       0.5463   0.4047   0.7462     O
P      0.56297  0.58756  0.29173     P
O       0.5647   0.4972   0.3225     O
Mo     0.57046  0.25629   0.0262    Mo
O       0.5768   0.6595   0.3436     O
O       0.5837     0.71   0.5483     O
O       0.5958   0.3464   0.1158     O
O       0.6029   0.2602   0.4557     O
O       0.6057    0.651   0.8781     O
Mo     0.60935   0.4317  0.83745    Mo
O       0.6217   0.6539   0.6587     O
O        0.623   0.4795   0.9248     O
Mo     0.63764  0.74056  0.96955    Mo
O       0.6404   0.3214   0.3459     O
O       0.6483   0.5151   0.0666     O
O       0.6568   0.6019   0.2459     O
P      0.66294  0.71698  0.60751     P
O       0.6762   0.1686   0.3701     O
Mo     0.67646  0.56457  0.15285    Mo
P      0.67736  0.26175  0.39875     P
O       0.6782   0.8111   0.6364     O
O       0.6808   0.1944   0.0832     O
O       0.6986   0.3567   0.0115     O
O       0.7041   0.5279   0.8019     O
O       0.7364   0.8453   0.3515     O
O       0.7366   0.6347   0.9769     O
Mo     0.74169  0.55841  0.89243    Mo
Mo     0.74519  0.05735  0.40196    Mo
O       0.7511   0.4653   0.1849     O
O       0.7511   0.7998   0.9096     O
O       0.7515   0.0284   0.3108     O
Mo     0.75197  0.43357  0.09381    Mo
Na       0.757   0.7468  0.25056    Na
Mo     0.75942  0.92826  0.60507    Mo
O       0.7716   0.8552   0.5194     O
O       0.7719   0.6888   0.5865     O
O       0.7874   0.1324   0.4873     O
O       0.7924   0.2968   0.4232     O
O       0.7941    0.955   0.6961     O
P      0.79805    0.222  0.10682     P
O       0.8205   0.3213   0.1212     O
O       0.8243   0.1731   0.1671     O
Mo     0.83022  0.93212  0.34398    Mo
O       0.8325    0.671   0.8608     O
O       0.8519   0.9796   0.4313     O
O       0.8573   0.8938   0.2518     O
P      0.85812  0.76521   0.8904     P
O       0.8673   0.1924   0.0525     O
O       0.8723   0.0134   0.5746     O
Mo     0.87921  0.75566  0.52641    Mo
Mo     0.88163  0.05766  0.66301    Mo
O       0.8965   0.1517    0.386     O
O       0.9022   0.8429   0.6173     O
O       0.9064   0.8263   0.8403     O
Mo      0.9109  0.23815  0.47791    Mo
O       0.9355   0.0045   0.1752     O
O       0.9356   0.7659     0.95     O
O       0.9395   0.0812   0.7562     O
O       0.9437   0.8439   0.1542     O
P      0.94929  0.91557  0.20587     P
Zn     0.95967  0.12641   0.1974    Zn
O       0.9726   0.8677   0.3637     O
O       0.9786   0.0306   0.3287     O
O       0.9856   0.1815   0.2822     O
O       0.9856   0.6875   0.5701     O
O       0.9876    0.846   0.4953     O
P      0.98958  0.13085  0.34428     P
