data_I
_chemical_name_common  '/home/zhangsd/repos/MofS-CGCNN/ML/data/TSD/clean_cifs/TETWOG_clean'
_cell_length_a  9.12380
_cell_length_b  9.62010
_cell_length_c 12.64750
_cell_angle_alpha 94.47500
_cell_angle_beta  104.72200
_cell_angle_gamma 114.43700
_space_group_name_H-M_alt      'P 1'


loop_
_space_group_symop_operation_xyz
  'x, y, z' 

loop_
_atom_site_label
_atom_site_fract_x
_atom_site_fract_y
_atom_site_fract_z
_atom_site_type_symbol
Co         0.0      0.0      0.5    Co
H       0.0072   0.6059   0.0971     H
O       0.0678   0.6832   0.6579     O
H       0.1052   0.7743    0.986     H
O       0.1201   0.2746   0.1922     O
C       0.1238   0.6598   0.1113     C
Co     0.12792  0.48609  0.29804    Co
O       0.1399   0.5484   0.7723     O
C       0.1812   0.6558   0.7197     C
C       0.1815   0.7615   0.0441     C
O       0.1912   0.0376   0.4297     O
O       0.2078    0.659   0.4347     O
N       0.2231   0.6336   0.1948     N
C       0.2605   0.3049   0.2589     C
H       0.2727   0.1183   0.1835     H
C       0.2968   0.6499   0.5244     C
O       0.3069   0.5256   0.5432     O
H        0.315    0.967    0.929     H
C       0.3297   0.1513    0.441     C
O       0.3299   0.4254   0.3388     O
C       0.3492   0.2067   0.2461     C
C       0.3553    0.845   0.0641     C
H       0.3623   0.8751   0.5978     H
H       0.3633    0.027   0.3202     H
C       0.3637    0.758   0.7299     C
C       0.3906   0.7109    0.213     C
C       0.3954   0.7937   0.6183     C
H       0.3971   0.8583   0.7775     H
O       0.4006   0.2707   0.5186     O
C       0.4081    0.139    0.349     C
C        0.419   0.9587   0.9961     C
H        0.423   0.1363   0.8348     H
H       0.4452   0.5877   0.7554     H
C         0.46   0.8142   0.1503     C
H       0.4631   0.6936   0.2709     H
H        0.487   0.2838   0.1352     H
C       0.4894   0.6985   0.7844     C
Co         0.5      0.5      0.5    Co
C       0.5106   0.3015   0.2156     C
H        0.513   0.7162   0.8648     H
H       0.5369   0.3064   0.7291     H
C         0.54   0.1858   0.8497     C
H       0.5548   0.4123   0.2446     H
H        0.577   0.8637   0.1652     H
C        0.581   0.0413   0.0039     C
C       0.5919    0.861    0.651     C
O       0.5994   0.7293   0.4814     O
H       0.6029   0.1417   0.2225     H
C       0.6046   0.2063   0.3817     C
C       0.6094   0.2891    0.787     C
C       0.6363    0.242   0.2701     C
H       0.6367    0.973   0.6798     H
H       0.6377   0.1249   0.4022     H
C       0.6447    0.155   0.9359     C
C       0.6508   0.7933   0.7539     C
O       0.6701   0.5746   0.6612     O
C       0.6703   0.8487    0.559     C
H        0.685    0.033    0.071     H
O       0.6931   0.4744   0.4568     O
C       0.7032   0.3501   0.4756     C
H       0.7273   0.8817   0.8165     H
C       0.7395   0.6951   0.7411     C
N       0.7769   0.3664   0.8052     N
O       0.7922    0.341   0.5653     O
O       0.8088   0.9624   0.5703     O
C       0.8185   0.2385   0.9559     C
C       0.8188   0.3442   0.2803     C
O       0.8601   0.4516   0.2277     O
Co     0.87208  0.51391  0.70196    Co
C       0.8762   0.3402   0.8887     C
O       0.8799   0.7254   0.8078     O
H       0.8948   0.2257    0.014     H
O       0.9322   0.3168   0.3421     O
H       0.9928   0.3941   0.9029     H
