data_I
_chemical_name_common  '/home/zhangsd/repos/MofS-CGCNN/ML/data/TSD/clean_cifs/TIGQOR_clean'
_cell_length_a 13.25770
_cell_length_b 13.25770
_cell_length_c 45.67700
_cell_angle_alpha 90.00000
_cell_angle_beta  90.00000
_cell_angle_gamma 120.00000
_space_group_name_H-M_alt      'P 1'


loop_
_space_group_symop_operation_xyz
  'x, y, z' 

loop_
_atom_site_label
_atom_site_fract_x
_atom_site_fract_y
_atom_site_fract_z
_atom_site_type_symbol
P          0.0  0.23934     0.75     P
Mg         0.0  0.24189     0.25    Mg
Mg         0.0  0.75811     0.75    Mg
Mg     0.00562  0.23701  0.46587    Mg
Al     0.00562  0.76861  0.96587    Al
P      0.00576  0.24098  0.53434     P
P      0.00576  0.76478  0.03434     P
O      0.00733   0.2768   0.5028     O
O      0.00733  0.73053   0.0028     O
O      0.00757  0.35443  0.88587     O
O      0.00757  0.65313  0.38587     O
O      0.01223  0.30987  0.72295     O
O      0.01223  0.70237  0.22295     O
O      0.01353  0.32577  0.21921     O
O      0.01353  0.68777  0.71921     O
O       0.0211   0.3409  0.94746     O
O       0.0211   0.6802  0.44746     O
O      0.02347  0.36903  0.38961     O
O      0.02347  0.65443  0.88961     O
O       0.0357   0.3568  0.44372     O
O       0.0357   0.6789  0.94372     O
O      0.05653   0.3972  0.16947     O
O      0.05653  0.65934  0.66947     O
O      0.06386  0.38987  0.66387     O
O      0.06386    0.674  0.16387     O
O      0.07623  0.53253  0.20982     O
O      0.07623  0.54371  0.70982     O
O       0.0849   0.1998  0.96087     O
O       0.0849   0.8851  0.46087     O
Mg     0.09144  0.42478  0.91667    Mg
Mg     0.09144  0.66667  0.41667    Mg
P      0.09235  0.43145    0.201     P
P      0.09235  0.66091    0.701     P
P      0.09399  0.42733  0.41667     P
P      0.09399  0.66667  0.91667     P
Mg     0.09632  0.43528  0.13254    Mg
Mg     0.09632  0.66105  0.63254    Mg
P      0.09811  0.42569  0.63233     P
P      0.09811  0.67243  0.13233     P
Mg     0.10194  0.42966  0.70079    Mg
Al     0.10194  0.67229  0.20079    Al
O      0.10511  0.22653  0.75425     O
O      0.10511  0.87859  0.25425     O
O      0.10681  0.54525  0.42091     O
O      0.10681  0.56155  0.92091     O
O       0.1149   0.1998  0.46087     O
O       0.1149   0.9151  0.96087     O
O      0.12141  0.22653  0.25425     O
O      0.12141  0.89489  0.75425     O
O      0.12296   0.2571  0.54315     O
O      0.12296  0.86586  0.04315     O
O      0.13353  0.55177  0.62754     O
O      0.13353  0.58177  0.12754     O
O      0.13414   0.2571  0.04315     O
O      0.13414  0.87704  0.54315     O
O      0.19919  0.40957  0.62352     O
O      0.19919  0.78963  0.12352     O
O       0.1998   0.0849  0.53913     O
O       0.1998   0.1149  0.03913     O
O      0.21037  0.40957  0.12352     O
O      0.21037  0.80081  0.62352     O
O      0.21192  0.44014  0.41242     O
O      0.21192  0.77178  0.91242     O
O      0.21843  0.46687   0.2058     O
O      0.21843  0.75157   0.7058     O
O      0.22653  0.10511  0.74575     O
O      0.22653  0.12141  0.24575     O
O      0.22822  0.44014  0.91242     O
O      0.22822  0.78808  0.41242     O
Mg     0.23139  0.23701  0.96587    Mg
Al     0.23139  0.99438  0.46587    Al
P      0.23522  0.24098  0.03434     P
P      0.23522  0.99424  0.53434     P
Mg     0.23701  0.00562  0.03413    Mg
Mg     0.23701  0.23139  0.53413    Mg
P      0.23934      0.0     0.75     P
P      0.23934  0.23934     0.25     P
P      0.24098  0.00576  0.96566     P
P      0.24098  0.23522  0.46566     P
Mg     0.24189      0.0     0.25    Mg
Mg     0.24189  0.24189     0.75    Mg
O      0.24843  0.46687   0.7058     O
O      0.24843  0.78157   0.2058     O
O       0.2571  0.12296  0.95685     O
O       0.2571  0.13414  0.45685     O
O      0.26947   0.2768   0.0028     O
O      0.26947  0.99267   0.5028     O
O       0.2768  0.00733   0.9972     O
O       0.2768  0.26947   0.4972     O
O      0.29763  0.30987  0.22295     O
O      0.29763  0.98777  0.72295     O
O      0.30987  0.01223  0.77705     O
O      0.30987  0.29763  0.27705     O
O      0.31223  0.32577  0.71921     O
O      0.31223  0.98647  0.21921     O
O       0.3198   0.3409  0.44746     O
O       0.3198   0.9789  0.94746     O
O       0.3211   0.3568  0.94372     O
O       0.3211   0.9643  0.44372     O
O      0.32577  0.01353  0.28079     O
O      0.32577  0.31223  0.78079     O
O        0.326  0.38987  0.16387     O
O        0.326  0.93614  0.66387     O
P      0.32757  0.42569  0.13233     P
P      0.32757  0.90189  0.63233     P
Mg     0.32771  0.42966  0.20079    Mg
Al     0.32771  0.89806  0.70079    Al
Mg     0.33333  0.42478  0.41667    Mg
P      0.33333  0.42733  0.91667     P
P      0.33333  0.90601  0.41667     P
Mg     0.33333  0.90856  0.91667    Mg
Al     0.33895  0.43528  0.63254    Al
Mg     0.33895  0.90368  0.13254    Mg
P      0.33909  0.43145    0.701     P
P      0.33909  0.90765    0.201     P
O      0.34066   0.3972  0.66947     O
O      0.34066  0.94347  0.16947     O
O       0.3409   0.0211  0.55254     O
O       0.3409   0.3198  0.05254     O
O      0.34557  0.36903  0.88961     O
O      0.34557  0.97653  0.38961     O
O      0.34687  0.35443  0.38587     O
O      0.34687  0.99243  0.88587     O
O      0.35443  0.00757  0.61413     O
O      0.35443  0.34687  0.11413     O
O       0.3568   0.0357  0.05628     O
O       0.3568   0.3211  0.55628     O
O      0.36903  0.02347  0.11039     O
O      0.36903  0.34557  0.61039     O
O      0.38987  0.06386  0.83613     O
O      0.38987    0.326  0.33613     O
O       0.3972  0.05653  0.33053     O
O       0.3972  0.34066  0.83053     O
O      0.40957  0.19919  0.87648     O
O      0.40957  0.21037  0.37648     O
O      0.41823  0.55177  0.12754     O
O      0.41823  0.86647  0.62754     O
Mg     0.42478  0.09144  0.58333    Mg
Mg     0.42478  0.33333  0.08333    Mg
P      0.42569  0.09811  0.86767     P
P      0.42569  0.32757  0.36767     P
P      0.42733  0.09399  0.08333     P
P      0.42733  0.33333  0.58333     P
Mg     0.42966  0.10194  0.79921    Mg
Mg     0.42966  0.32771  0.29921    Mg
P      0.43145  0.09235    0.299     P
P      0.43145  0.33909    0.799     P
Mg     0.43528  0.09632  0.36746    Mg
Al     0.43528  0.33895  0.86746    Al
O      0.43845  0.54525  0.92091     O
O      0.43845  0.89319  0.42091     O
O      0.44014  0.21192  0.08758     O
O      0.44014  0.22822  0.58758     O
O      0.44823  0.58177  0.62754     O
O      0.44823  0.86647  0.12754     O
O      0.45475  0.56155  0.42091     O
O      0.45475  0.89319  0.92091     O
O      0.45629  0.53253  0.70982     O
O      0.45629  0.92377  0.20982     O
O      0.46687  0.21843   0.2942     O
O      0.46687  0.24843   0.7942     O
O      0.46747  0.54371  0.20982     O
O      0.46747  0.92377  0.70982     O
O      0.53253  0.07623  0.29018     O
O      0.53253  0.45629  0.79018     O
O      0.53313  0.75157   0.2058     O
O      0.53313  0.78157   0.7058     O
O      0.54371  0.07623  0.79018     O
O      0.54371  0.46747  0.29018     O
O      0.54525  0.10681  0.07909     O
O      0.54525  0.43845  0.57909     O
O      0.55177  0.13353  0.87246     O
O      0.55177  0.41823  0.37246     O
O      0.55986  0.77178  0.41242     O
O      0.55986  0.78808  0.91242     O
O      0.56155  0.10681  0.57909     O
O      0.56155  0.45475  0.07909     O
Al     0.56472  0.66105  0.13254    Al
Mg     0.56472  0.90368  0.63254    Mg
P      0.56855  0.66091    0.201     P
P      0.56855  0.90765    0.701     P
Mg     0.57034  0.67229  0.70079    Mg
Mg     0.57034  0.89806  0.20079    Mg
P      0.57267  0.66667  0.41667     P
P      0.57267  0.90601  0.91667     P
P      0.57431  0.67243  0.63233     P
P      0.57431  0.90189  0.13233     P
Mg     0.57522  0.66667  0.91667    Mg
Mg     0.57522  0.90856  0.41667    Mg
O      0.58177  0.13353  0.37246     O
O      0.58177  0.44823  0.87246     O
O      0.59043  0.78963  0.62352     O
O      0.59043  0.80081  0.12352     O
O       0.6028  0.65934  0.16947     O
O       0.6028  0.94347  0.66947     O
O      0.61013    0.674  0.66387     O
O      0.61013  0.93614  0.16387     O
O      0.63097  0.65443  0.38961     O
O      0.63097  0.97653  0.88961     O
O       0.6432   0.6789  0.44372     O
O       0.6432   0.9643  0.94372     O
O      0.64557  0.65313  0.88587     O
O      0.64557  0.99243  0.38587     O
O      0.65313  0.00757  0.11413     O
O      0.65313  0.64557  0.61413     O
O      0.65443  0.02347  0.61039     O
O      0.65443  0.63097  0.11039     O
O       0.6591   0.6802  0.94746     O
O       0.6591   0.9789  0.44746     O
O      0.65934  0.05653  0.83053     O
O      0.65934   0.6028  0.33053     O
P      0.66091  0.09235    0.799     P
P      0.66091  0.56855    0.299     P
Mg     0.66105  0.09632  0.86746    Mg
Al     0.66105  0.56472  0.36746    Al
Mg     0.66667  0.09144  0.08333    Mg
P      0.66667  0.09399  0.58333     P
P      0.66667  0.57267  0.08333     P
Mg     0.66667  0.57522  0.58333    Mg
Al     0.67229  0.10194  0.29921    Al
Mg     0.67229  0.57034  0.79921    Mg
P      0.67243  0.09811  0.36767     P
P      0.67243  0.57431  0.86767     P
O        0.674  0.06386  0.33613     O
O        0.674  0.61013  0.83613     O
O      0.67423  0.68777  0.21921     O
O      0.67423  0.98647  0.71921     O
O       0.6789   0.0357  0.55628     O
O       0.6789   0.6432  0.05628     O
O       0.6802   0.0211  0.05254     O
O       0.6802   0.6591  0.55254     O
O      0.68777  0.01353  0.78079     O
O      0.68777  0.67423  0.28079     O
O      0.69013  0.70237  0.72295     O
O      0.69013  0.98777  0.22295     O
O      0.70237  0.01223  0.27705     O
O      0.70237  0.69013  0.77705     O
O       0.7232  0.73053   0.5028     O
O       0.7232  0.99267   0.0028     O
O      0.73053  0.00733   0.4972     O
O      0.73053   0.7232   0.9972     O
O       0.7429  0.86586  0.54315     O
O       0.7429  0.87704  0.04315     O
O      0.75157  0.21843   0.7942     O
O      0.75157  0.53313   0.2942     O
Mg     0.75811      0.0     0.75    Mg
Mg     0.75811  0.75811     0.25    Mg
P      0.75902  0.76478  0.53434     P
P      0.75902  0.99424  0.03434     P
P      0.76066      0.0     0.25     P
P      0.76066  0.76066     0.75     P
Mg     0.76299  0.76861  0.46587    Mg
Mg     0.76299  0.99438  0.96587    Mg
P      0.76478  0.00576  0.46566     P
P      0.76478  0.75902  0.96566     P
Al     0.76861  0.00562  0.53413    Al
Mg     0.76861  0.76299  0.03413    Mg
O      0.77178  0.21192  0.58758     O
O      0.77178  0.55986  0.08758     O
O      0.77347  0.87859  0.75425     O
O      0.77347  0.89489  0.25425     O
O      0.78157  0.24843   0.2942     O
O      0.78157  0.53313   0.7942     O
O      0.78808  0.22822  0.08758     O
O      0.78808  0.55986  0.58758     O
O      0.78963  0.19919  0.37648     O
O      0.78963  0.59043  0.87648     O
O       0.8002   0.8851  0.96087     O
O       0.8002   0.9151  0.46087     O
O      0.80081  0.21037  0.87648     O
O      0.80081  0.59043  0.37648     O
O      0.86586  0.12296  0.45685     O
O      0.86586   0.7429  0.95685     O
O      0.86647  0.41823  0.87246     O
O      0.86647  0.44823  0.37246     O
O      0.87704  0.13414  0.95685     O
O      0.87704   0.7429  0.45685     O
O      0.87859  0.10511  0.24575     O
O      0.87859  0.77347  0.74575     O
O       0.8851   0.0849  0.03913     O
O       0.8851   0.8002  0.53913     O
O      0.89319  0.43845  0.07909     O
O      0.89319  0.45475  0.57909     O
O      0.89489  0.12141  0.74575     O
O      0.89489  0.77347  0.24575     O
Al     0.89806  0.32771  0.79921    Al
Mg     0.89806  0.57034  0.29921    Mg
P      0.90189  0.32757  0.86767     P
P      0.90189  0.57431  0.36767     P
Mg     0.90368  0.33895  0.36746    Mg
Mg     0.90368  0.56472  0.86746    Mg
P      0.90601  0.33333  0.08333     P
P      0.90601  0.57267  0.58333     P
P      0.90765  0.33909    0.299     P
P      0.90765  0.56855    0.799     P
Mg     0.90856  0.33333  0.58333    Mg
Mg     0.90856  0.57522  0.08333    Mg
O       0.9151   0.1149  0.53913     O
O       0.9151   0.8002  0.03913     O
O      0.92377  0.45629  0.29018     O
O      0.92377  0.46747  0.79018     O
O      0.93614    0.326  0.83613     O
O      0.93614  0.61013  0.33613     O
O      0.94347  0.34066  0.33053     O
O      0.94347   0.6028  0.83053     O
O       0.9643   0.3211  0.05628     O
O       0.9643   0.6432  0.55628     O
O      0.97653  0.34557  0.11039     O
O      0.97653  0.63097  0.61039     O
O       0.9789   0.3198  0.55254     O
O       0.9789   0.6591  0.05254     O
O      0.98647  0.31223  0.28079     O
O      0.98647  0.67423  0.78079     O
O      0.98777  0.29763  0.77705     O
O      0.98777  0.69013  0.27705     O
O      0.99243  0.34687  0.61413     O
O      0.99243  0.64557  0.11413     O
O      0.99267  0.26947   0.9972     O
O      0.99267   0.7232   0.4972     O
P      0.99424  0.23522  0.96566     P
P      0.99424  0.75902  0.46566     P
Al     0.99438  0.23139  0.03413    Al
Mg     0.99438  0.76299  0.53413    Mg
P          1.0  0.76066     0.25     P
