data_I
_chemical_name_common  '/home/zhangsd/repos/MofS-CGCNN/ML/data/TSD/clean_cifs/TILHAZ_clean'
_cell_length_a 28.36500
_cell_length_b 28.36500
_cell_length_c 13.36100
_cell_angle_alpha 90.00000
_cell_angle_beta  90.00000
_cell_angle_gamma 90.00000
_space_group_name_H-M_alt      'P 1'


loop_
_space_group_symop_operation_xyz
  'x, y, z' 

loop_
_atom_site_label
_atom_site_fract_x
_atom_site_fract_y
_atom_site_fract_z
_atom_site_type_symbol
C      0.00329  0.40098    0.532     C
C      0.00329  0.90098    0.468     C
H       0.0062   0.0659   0.5202     H
H       0.0062   0.5659   0.4798     H
H       0.0172   0.4138    0.682     H
H       0.0172   0.9138    0.318     H
H       0.0217   0.3903   0.4734     H
H       0.0217   0.8903   0.5266     H
H       0.0307   0.1626   0.5548     H
H       0.0307   0.6626   0.4452     H
C      0.03401  0.39831    0.626     C
C      0.03401  0.89831    0.374     C
H       0.0387   0.3648   0.6442     H
H       0.0387   0.8648   0.3558     H
C      0.04047  0.12957    0.543     C
C      0.04047  0.62957    0.457     C
H       0.0539   0.1369   0.3917     H
H       0.0539   0.6369   0.6083     H
H       0.0585   0.1189   0.6023     H
H       0.0585   0.6189   0.3977     H
C      0.07251  0.12788   0.4513     C
C      0.07251  0.62788   0.5487     C
C      0.08145   0.4213   0.6131     C
C      0.08145   0.9213   0.3869     C
O      0.08251  0.46558   0.6032     O
O      0.08251  0.96558   0.3968     O
H       0.0874   0.2807   0.6952     H
H       0.0874   0.7807   0.3048     H
C      0.09489  0.08044   0.4322     C
C      0.09489  0.58044   0.5678     C
H       0.0978   0.1516   0.4597     H
H       0.0978   0.6516   0.5403     H
H       0.0984   0.3478   0.7903     H
H       0.0984   0.8478   0.2097     H
O       0.1001  0.06533   0.3455     O
O       0.1001  0.56533   0.6545     O
H       0.1063   0.0278   0.0295     H
H       0.1063   0.5278   0.9705     H
H        0.107    0.499   0.8128     H
H        0.107    0.999   0.1872     H
O      0.11024   0.0555    0.507     O
O      0.11024   0.5555    0.493     O
H       0.1131   0.3039   0.8583     H
H       0.1131   0.8039   0.1417     H
H       0.1148   0.2113   0.6058     H
H       0.1148   0.7113   0.3942     H
O      0.11618  0.39408    0.612     O
O      0.11618  0.89408    0.388     O
C      0.12043  0.29047    0.707     C
C      0.12043  0.79047    0.293     C
C      0.12212  0.32251   0.7987     C
C      0.12212  0.82251   0.2013     C
H       0.1311   0.3085   0.6477     H
H       0.1311   0.8085   0.3523     H
H       0.1331   0.4785   0.9813     H
H       0.1331   0.9785   0.0187     H
C      0.13548  0.01056   0.0474     C
C      0.13548  0.51056   0.9526     C
C       0.1387  0.00675   0.1608     C
C       0.1387  0.50675   0.8392     C
H       0.1403   0.2283   0.7766     H
H       0.1403   0.7283   0.2234     H
H       0.1407   0.0589   0.8776     H
H       0.1407   0.5589   0.1224     H
Co     0.14183  0.00639  0.40522    Co
Co     0.14183  0.50639  0.59478    Co
O      0.14408  0.13382    0.638     O
O      0.14408  0.63382    0.362     O
H       0.1476    0.038   0.1879     H
H       0.1476    0.538   0.8121     H
C      0.14831  0.21599    0.624     C
C      0.14831  0.71599    0.376     C
C      0.15098  0.24671    0.718     C
C      0.15098  0.74671    0.282     C
Co     0.15434  0.06324  0.63308    Co
Co     0.15434  0.56324  0.36692    Co
H       0.1638   0.2328    0.568     H
H       0.1638   0.7328    0.432     H
O      0.16385  0.49209   0.3595     O
O      0.16385  0.99209   0.6405     O
H        0.168   0.0105   0.8578     H
H        0.168   0.5105   0.1422     H
C      0.16956  0.34489   0.8178     C
C      0.16956  0.84489   0.1822     C
C      0.17076    0.042   0.8893     C
C      0.17076    0.542   0.1107     C
C       0.1713  0.16855   0.6369     C
C       0.1713  0.66855   0.3631     C
C       0.1733  0.47064      0.8     C
C       0.1733  0.97064      0.2     C
O      0.17444  0.46495   0.7054     O
O      0.17444  0.96495   0.2946     O
C      0.17732  0.03557    0.001     C
C      0.17732  0.53557    0.999     C
O      0.17785  0.45832   0.5068     O
O      0.17785  0.95832   0.4932     O
H       0.1813   0.0668   0.0329     H
H       0.1813   0.5668   0.9671     H
C      0.18141  0.45971   0.4116     C
C      0.18141  0.95971   0.5884     C
H       0.1832   0.4313   0.2171     H
H       0.1832   0.9313   0.7829     H
H       0.1841   0.2562   0.7298     H
H       0.1841   0.7562   0.2702     H
O      0.18467   0.3501   0.9045     O
O      0.18467   0.8501   0.0955     O
Co     0.18676  0.40434  0.61692    Co
Co     0.18676  0.90434  0.38308    Co
H       0.1911   0.3907   0.3724     H
H       0.1911   0.8907   0.6276     H
O       0.1945  0.36024    0.743     O
O       0.1945  0.86024    0.257     O
O      0.19729  0.05263   0.3897     O
O      0.19729  0.55263   0.6103     O
O      0.19737  0.44729   0.8603     O
O      0.19737  0.94729   0.1397     O
H       0.2063    0.017   0.0134     H
H       0.2063    0.517   0.9866     H
C        0.208  0.42076   0.3607     C
C        0.208  0.92076   0.6393     C
O      0.20832  0.07215   0.7432     O
O      0.20832  0.57215   0.2568     O
C      0.20971  0.06859   0.8384     C
C      0.20971  0.56859   0.1616     C
H        0.212   0.3976   0.0621     H
H        0.212   0.8976   0.9379     H
C      0.21443  0.42732    0.249     C
C      0.21443  0.92732    0.751     C
O      0.21495  0.07556   0.5446     O
O      0.21495  0.57556   0.4554     O
O      0.21558  0.16749   0.6468     O
O      0.21558  0.66749   0.3532     O
C      0.22064   0.0767     0.45     C
C      0.22064   0.5767     0.55     C
H       0.2222   0.3563   0.2205     H
H       0.2222   0.8563   0.7795     H
H       0.2285   0.1169   0.2687     H
H       0.2285   0.6169   0.7313     H
H        0.233   0.4563   0.2366     H
H        0.233   0.9563   0.7634     H
C      0.23944  0.38548   0.2026     C
C      0.23944  0.88548   0.7974     C
H       0.2395    0.418   0.3922     H
H       0.2395    0.918   0.6078     H
O      0.24209  0.08615   0.8905     O
O      0.24209  0.58615   0.1095     O
C      0.24325   0.3887   0.0892     C
C      0.24325   0.8887   0.9108     C
Co     0.24361  0.39183  0.84478    Co
Co     0.24361  0.89183  0.15522    Co
H        0.249    0.143   0.4372     H
H        0.249    0.643   0.5628     H
H        0.251    0.357   0.0628     H
H        0.251    0.857   0.9372     H
Co     0.25639  0.10817  0.65522    Co
Co     0.25639  0.60817  0.34478    Co
C      0.25675   0.1113   0.4108     C
C      0.25675   0.6113   0.5892     C
O      0.25791  0.41385   0.6095     O
O      0.25791  0.91385   0.3905     O
H       0.2605    0.082   0.1078     H
H       0.2605    0.582   0.8922     H
C      0.26056  0.11452   0.2974     C
C      0.26056  0.61452   0.7026     C
H        0.267   0.0437   0.2634     H
H        0.267   0.5437   0.7366     H
H       0.2715   0.3831   0.2313     H
H       0.2715   0.8831   0.7687     H
H       0.2778   0.1437   0.2795     H
H       0.2778   0.6437   0.7205     H
C      0.27936   0.4233     0.05     C
C      0.27936   0.9233     0.95     C
O      0.28442  0.33251   0.8532     O
O      0.28442  0.83251   0.1468     O
O      0.28505  0.42444   0.9554     O
O      0.28505  0.92444   0.0446     O
C      0.28557  0.07268    0.251     C
C      0.28557  0.57268    0.749     C
H        0.288   0.1024   0.4379     H
H        0.288   0.6024   0.5621     H
C      0.29029  0.43141   0.6616     C
C      0.29029  0.93141   0.3384     C
O      0.29168  0.42785   0.7568     O
O      0.29168  0.92785   0.2432     O
C        0.292  0.07924   0.1393     C
C        0.292  0.57924   0.8607     C
H       0.2937    0.483   0.4866     H
H       0.2937    0.983   0.5134     H
O      0.30263  0.05271   0.6397     O
O      0.30263  0.55271   0.3603     O
O      0.30271  0.44737   0.1103     O
O      0.30271  0.94737   0.8897     O
O       0.3055  0.13976    0.757     O
O       0.3055  0.63976    0.243     O
H       0.3089   0.1093   0.1276     H
H       0.3089   0.6093   0.8724     H
Co     0.31324  0.09566  0.88308    Co
Co     0.31324  0.59566  0.11692    Co
O      0.31533   0.1499   0.5955     O
O      0.31533   0.6499   0.4045     O
H       0.3159   0.2438   0.7702     H
H       0.3159   0.7438   0.2298     H
H       0.3168   0.0687   0.2829     H
H       0.3168   0.5687   0.7171     H
C      0.31859  0.04029   0.0884     C
C      0.31859  0.54029   0.9116     C
H       0.3187   0.4332   0.4671     H
H       0.3187   0.9332   0.5329     H
O      0.32215  0.04168   0.9932     O
O      0.32215  0.54168   0.0068     O
C      0.32268  0.46443    0.499     C
C      0.32268  0.96443    0.501     C
O      0.32556  0.03505   0.7946     O
O      0.32556  0.53505   0.2054     O
C       0.3267  0.02936      0.7     C
C       0.3267  0.52936      0.3     C
C       0.3287  0.33145   0.8631     C
C       0.3287  0.83145   0.1369     C
C      0.32924    0.458   0.6107     C
C      0.32924    0.958   0.3893     C
C      0.33044  0.15511   0.6822     C
C      0.33044  0.65511   0.3178     C
H        0.332   0.4895   0.6422     H
H        0.332   0.9895   0.3578     H
O      0.33615  0.00791   0.1405     O
O      0.33615  0.50791   0.8595     O
H       0.3362   0.2672    0.932     H
H       0.3362   0.7672    0.068     H
Co     0.34566  0.43676  0.86692    Co
Co     0.34566  0.93676  0.13308    Co
C      0.34902  0.25329    0.782     C
C      0.34902  0.75329    0.218     C
C      0.35169  0.28401    0.876     C
C      0.35169  0.78401    0.124     C
H       0.3524    0.462   0.3121     H
H       0.3524    0.962   0.6879     H
O      0.35592  0.36618    0.862     O
O      0.35592  0.86618    0.138     O
Co     0.35817  0.49361  0.09478    Co
Co     0.35817  0.99361  0.90522    Co
H       0.3593   0.4411   0.6224     H
H       0.3593   0.9411   0.3776     H
H       0.3597   0.2717   0.7234     H
H       0.3597   0.7717   0.2766     H
C       0.3613  0.49325   0.3392     C
C       0.3613  0.99325   0.6608     C
C      0.36452  0.48944   0.4526     C
C      0.36452  0.98944   0.5474     C
H       0.3669   0.0215   0.5187     H
H       0.3669   0.5215   0.4813     H
H       0.3689   0.1915   0.8523     H
H       0.3689   0.6915   0.1477     H
C      0.37788  0.17749   0.7013     C
C      0.37788  0.67749   0.2987     C
C      0.37957  0.20953    0.793     C
C      0.37957  0.70953    0.207     C
O      0.38382  0.10592    0.888     O
O      0.38382  0.60592    0.112     O
H       0.3852   0.2887   0.8942     H
H       0.3852   0.7887   0.1058     H
H       0.3869   0.1961   0.6417     H
H       0.3869   0.6961   0.3583     H
O      0.38976   0.4445    0.993     O
O      0.38976   0.9445    0.007     O
H        0.393    0.001   0.6872     H
H        0.393    0.501   0.3128     H
H       0.3937   0.4722   0.4705     H
H       0.3937   0.9722   0.5295     H
O       0.3999  0.43467   0.1545     O
O       0.3999  0.93467   0.8455     O
H       0.4016   0.1522   0.7097     H
H       0.4016   0.6522   0.2903     H
H       0.4022   0.3484   0.0403     H
H       0.4022   0.8484   0.9597     H
C      0.40511  0.41956   0.0678     C
C      0.40511  0.91956   0.9322     C
H       0.4126   0.2193   0.8048     H
H       0.4126   0.7193   0.1952     H
O      0.41749  0.03442   0.8968     O
O      0.41749  0.53442   0.1032     O
C      0.41855   0.0787   0.8869     C
C      0.41855   0.5787   0.1131     C
C      0.42749  0.37212   0.0487     C
C      0.42749  0.87212   0.9513     C
H       0.4415   0.3811   0.8977     H
H       0.4415   0.8811   0.1023     H
H       0.4461   0.3631   0.1083     H
H       0.4461   0.8631   0.8917     H
C      0.45953  0.37043    0.957     C
C      0.45953  0.87043    0.043     C
H       0.4613   0.1352   0.8558     H
H       0.4613   0.6352   0.1442     H
C      0.46599  0.10169    0.874     C
C      0.46599  0.60169    0.126     C
H       0.4693   0.3374   0.9452     H
H       0.4693   0.8374   0.0548     H
H       0.4783   0.1097   0.0266     H
H       0.4783   0.6097   0.9734     H
H       0.4828   0.0862    0.818     H
H       0.4828   0.5862    0.182     H
H       0.4938   0.4341   0.9798     H
H       0.4938   0.9341   0.0202     H
C      0.49671  0.09902    0.968     C
C      0.49671  0.59902    0.032     C
C      0.50329  0.40098    0.968     C
C      0.50329  0.90098    0.032     C
H       0.5062   0.0659   0.9798     H
H       0.5062   0.5659   0.0202     H
H       0.5172   0.4138    0.818     H
H       0.5172   0.9138    0.182     H
H       0.5217   0.3903   0.0266     H
H       0.5217   0.8903   0.9734     H
H       0.5307   0.1626   0.9452     H
H       0.5307   0.6626   0.0548     H
C      0.53401  0.39831    0.874     C
C      0.53401  0.89831    0.126     C
H       0.5387   0.3648   0.8558     H
H       0.5387   0.8648   0.1442     H
C      0.54047  0.12957    0.957     C
C      0.54047  0.62957    0.043     C
H       0.5539   0.1369   0.1083     H
H       0.5539   0.6369   0.8917     H
H       0.5585   0.1189   0.8977     H
H       0.5585   0.6189   0.1023     H
C      0.57251  0.12788   0.0487     C
C      0.57251  0.62788   0.9513     C
C      0.58145   0.4213   0.8869     C
C      0.58145   0.9213   0.1131     C
O      0.58251  0.46558   0.8968     O
O      0.58251  0.96558   0.1032     O
H       0.5874   0.2807   0.8048     H
H       0.5874   0.7807   0.1952     H
C      0.59489  0.08044   0.0678     C
C      0.59489  0.58044   0.9322     C
H       0.5978   0.1516   0.0403     H
H       0.5978   0.6516   0.9597     H
H       0.5984   0.3478   0.7097     H
H       0.5984   0.8478   0.2903     H
O       0.6001  0.06533   0.1545     O
O       0.6001  0.56533   0.8455     O
H       0.6063   0.0278   0.4705     H
H       0.6063   0.5278   0.5295     H
H        0.607    0.499   0.6872     H
H        0.607    0.999   0.3128     H
O      0.61024   0.0555    0.993     O
O      0.61024   0.5555    0.007     O
H       0.6131   0.3039   0.6417     H
H       0.6131   0.8039   0.3583     H
H       0.6148   0.2113   0.8942     H
H       0.6148   0.7113   0.1058     H
O      0.61618  0.39408    0.888     O
O      0.61618  0.89408    0.112     O
C      0.62043  0.29047    0.793     C
C      0.62043  0.79047    0.207     C
C      0.62212  0.32251   0.7013     C
C      0.62212  0.82251   0.2987     C
H       0.6311   0.3085   0.8523     H
H       0.6311   0.8085   0.1477     H
H       0.6331   0.4785   0.5187     H
H       0.6331   0.9785   0.4813     H
C      0.63548  0.01056   0.4526     C
C      0.63548  0.51056   0.5474     C
C       0.6387  0.00675   0.3392     C
C       0.6387  0.50675   0.6608     C
H       0.6403   0.2283   0.7234     H
H       0.6403   0.7283   0.2766     H
H       0.6407   0.0589   0.6224     H
H       0.6407   0.5589   0.3776     H
Co     0.64183  0.00639  0.09478    Co
Co     0.64183  0.50639  0.90522    Co
O      0.64408  0.13382    0.862     O
O      0.64408  0.63382    0.138     O
H       0.6476    0.038   0.3121     H
H       0.6476    0.538   0.6879     H
C      0.64831  0.21599    0.876     C
C      0.64831  0.71599    0.124     C
C      0.65098  0.24671    0.782     C
C      0.65098  0.74671    0.218     C
Co     0.65434  0.06324  0.86692    Co
Co     0.65434  0.56324  0.13308    Co
H       0.6638   0.2328    0.932     H
H       0.6638   0.7328    0.068     H
O      0.66385  0.49209   0.1405     O
O      0.66385  0.99209   0.8595     O
H        0.668   0.0105   0.6422     H
H        0.668   0.5105   0.3578     H
C      0.66956  0.34489   0.6822     C
C      0.66956  0.84489   0.3178     C
C      0.67076    0.042   0.6107     C
C      0.67076    0.542   0.3893     C
C       0.6713  0.16855   0.8631     C
C       0.6713  0.66855   0.1369     C
C       0.6733  0.47064      0.7     C
C       0.6733  0.97064      0.3     C
O      0.67444  0.46495   0.7946     O
O      0.67444  0.96495   0.2054     O
C      0.67732  0.03557    0.499     C
C      0.67732  0.53557    0.501     C
O      0.67785  0.45832   0.9932     O
O      0.67785  0.95832   0.0068     O
H       0.6813   0.0668   0.4671     H
H       0.6813   0.5668   0.5329     H
C      0.68141  0.45971   0.0884     C
C      0.68141  0.95971   0.9116     C
H       0.6832   0.4313   0.2829     H
H       0.6832   0.9313   0.7171     H
H       0.6841   0.2562   0.7702     H
H       0.6841   0.7562   0.2298     H
O      0.68467   0.3501   0.5955     O
O      0.68467   0.8501   0.4045     O
Co     0.68676  0.40434  0.88308    Co
Co     0.68676  0.90434  0.11692    Co
H       0.6911   0.3907   0.1276     H
H       0.6911   0.8907   0.8724     H
O       0.6945  0.36024    0.757     O
O       0.6945  0.86024    0.243     O
O      0.69729  0.05263   0.1103     O
O      0.69729  0.55263   0.8897     O
O      0.69737  0.44729   0.6397     O
O      0.69737  0.94729   0.3603     O
H       0.7063    0.017   0.4866     H
H       0.7063    0.517   0.5134     H
C        0.708  0.42076   0.1393     C
C        0.708  0.92076   0.8607     C
O      0.70832  0.07215   0.7568     O
O      0.70832  0.57215   0.2432     O
C      0.70971  0.06859   0.6616     C
C      0.70971  0.56859   0.3384     C
H        0.712   0.3976   0.4379     H
H        0.712   0.8976   0.5621     H
C      0.71443  0.42732    0.251     C
C      0.71443  0.92732    0.749     C
O      0.71495  0.07556   0.9554     O
O      0.71495  0.57556   0.0446     O
O      0.71558  0.16749   0.8532     O
O      0.71558  0.66749   0.1468     O
C      0.72064   0.0767     0.05     C
C      0.72064   0.5767     0.95     C
H       0.7222   0.3563   0.2795     H
H       0.7222   0.8563   0.7205     H
H       0.7285   0.1169   0.2313     H
H       0.7285   0.6169   0.7687     H
H        0.733   0.4563   0.2634     H
H        0.733   0.9563   0.7366     H
C      0.73944  0.38548   0.2974     C
C      0.73944  0.88548   0.7026     C
H       0.7395    0.418   0.1078     H
H       0.7395    0.918   0.8922     H
O      0.74209  0.08615   0.6095     O
O      0.74209  0.58615   0.3905     O
C      0.74325   0.3887   0.4108     C
C      0.74325   0.8887   0.5892     C
Co     0.74361  0.39183  0.65522    Co
Co     0.74361  0.89183  0.34478    Co
H        0.749    0.143   0.0628     H
H        0.749    0.643   0.9372     H
H        0.751    0.357   0.4372     H
H        0.751    0.857   0.5628     H
Co     0.75639  0.10817  0.84478    Co
Co     0.75639  0.60817  0.15522    Co
C      0.75675   0.1113   0.0892     C
C      0.75675   0.6113   0.9108     C
O      0.75791  0.41385   0.8905     O
O      0.75791  0.91385   0.1095     O
H       0.7605    0.082   0.3922     H
H       0.7605    0.582   0.6078     H
C      0.76056  0.11452   0.2026     C
C      0.76056  0.61452   0.7974     C
H        0.767   0.0437   0.2366     H
H        0.767   0.5437   0.7634     H
H       0.7715   0.3831   0.2687     H
H       0.7715   0.8831   0.7313     H
H       0.7778   0.1437   0.2205     H
H       0.7778   0.6437   0.7795     H
C      0.77936   0.4233     0.45     C
C      0.77936   0.9233     0.55     C
O      0.78442  0.33251   0.6468     O
O      0.78442  0.83251   0.3532     O
O      0.78505  0.42444   0.5446     O
O      0.78505  0.92444   0.4554     O
C      0.78557  0.07268    0.249     C
C      0.78557  0.57268    0.751     C
H        0.788   0.1024   0.0621     H
H        0.788   0.6024   0.9379     H
C      0.79029  0.43141   0.8384     C
C      0.79029  0.93141   0.1616     C
O      0.79168  0.42785   0.7432     O
O      0.79168  0.92785   0.2568     O
C        0.792  0.07924   0.3607     C
C        0.792  0.57924   0.6393     C
H       0.7937    0.483   0.0134     H
H       0.7937    0.983   0.9866     H
O      0.80263  0.05271   0.8603     O
O      0.80263  0.55271   0.1397     O
O      0.80271  0.44737   0.3897     O
O      0.80271  0.94737   0.6103     O
O       0.8055  0.13976    0.743     O
O       0.8055  0.63976    0.257     O
H       0.8089   0.1093   0.3724     H
H       0.8089   0.6093   0.6276     H
Co     0.81324  0.09566  0.61692    Co
Co     0.81324  0.59566  0.38308    Co
O      0.81533   0.1499   0.9045     O
O      0.81533   0.6499   0.0955     O
H       0.8159   0.2438   0.7298     H
H       0.8159   0.7438   0.2702     H
H       0.8168   0.0687   0.2171     H
H       0.8168   0.5687   0.7829     H
C      0.81859  0.04029   0.4116     C
C      0.81859  0.54029   0.5884     C
H       0.8187   0.4332   0.0329     H
H       0.8187   0.9332   0.9671     H
O      0.82215  0.04168   0.5068     O
O      0.82215  0.54168   0.4932     O
C      0.82268  0.46443    0.001     C
C      0.82268  0.96443    0.999     C
O      0.82556  0.03505   0.7054     O
O      0.82556  0.53505   0.2946     O
C       0.8267  0.02936      0.8     C
C       0.8267  0.52936      0.2     C
C       0.8287  0.33145   0.6369     C
C       0.8287  0.83145   0.3631     C
C      0.82924    0.458   0.8893     C
C      0.82924    0.958   0.1107     C
C      0.83044  0.15511   0.8178     C
C      0.83044  0.65511   0.1822     C
H        0.832   0.4895   0.8578     H
H        0.832   0.9895   0.1422     H
O      0.83615  0.00791   0.3595     O
O      0.83615  0.50791   0.6405     O
H       0.8362   0.2672    0.568     H
H       0.8362   0.7672    0.432     H
Co     0.84566  0.43676  0.63308    Co
Co     0.84566  0.93676  0.36692    Co
C      0.84902  0.25329    0.718     C
C      0.84902  0.75329    0.282     C
C      0.85169  0.28401    0.624     C
C      0.85169  0.78401    0.376     C
H       0.8524    0.462   0.1879     H
H       0.8524    0.962   0.8121     H
O      0.85592  0.36618    0.638     O
O      0.85592  0.86618    0.362     O
Co     0.85817  0.49361  0.40522    Co
Co     0.85817  0.99361  0.59478    Co
H       0.8593   0.4411   0.8776     H
H       0.8593   0.9411   0.1224     H
H       0.8597   0.2717   0.7766     H
H       0.8597   0.7717   0.2234     H
C       0.8613  0.49325   0.1608     C
C       0.8613  0.99325   0.8392     C
C      0.86452  0.48944   0.0474     C
C      0.86452  0.98944   0.9526     C
H       0.8669   0.0215   0.9813     H
H       0.8669   0.5215   0.0187     H
H       0.8689   0.1915   0.6477     H
H       0.8689   0.6915   0.3523     H
C      0.87788  0.17749   0.7987     C
C      0.87788  0.67749   0.2013     C
C      0.87957  0.20953    0.707     C
C      0.87957  0.70953    0.293     C
O      0.88382  0.10592    0.612     O
O      0.88382  0.60592    0.388     O
H       0.8852   0.2887   0.6058     H
H       0.8852   0.7887   0.3942     H
H       0.8869   0.1961   0.8583     H
H       0.8869   0.6961   0.1417     H
O      0.88976   0.4445    0.507     O
O      0.88976   0.9445    0.493     O
H        0.893    0.001   0.8128     H
H        0.893    0.501   0.1872     H
H       0.8937   0.4722   0.0295     H
H       0.8937   0.9722   0.9705     H
O       0.8999  0.43467   0.3455     O
O       0.8999  0.93467   0.6545     O
H       0.9016   0.1522   0.7903     H
H       0.9016   0.6522   0.2097     H
H       0.9022   0.3484   0.4597     H
H       0.9022   0.8484   0.5403     H
C      0.90511  0.41956   0.4322     C
C      0.90511  0.91956   0.5678     C
H       0.9126   0.2193   0.6952     H
H       0.9126   0.7193   0.3048     H
O      0.91749  0.03442   0.6032     O
O      0.91749  0.53442   0.3968     O
C      0.91855   0.0787   0.6131     C
C      0.91855   0.5787   0.3869     C
C      0.92749  0.37212   0.4513     C
C      0.92749  0.87212   0.5487     C
H       0.9415   0.3811   0.6023     H
H       0.9415   0.8811   0.3977     H
H       0.9461   0.3631   0.3917     H
H       0.9461   0.8631   0.6083     H
C      0.95953  0.37043    0.543     C
C      0.95953  0.87043    0.457     C
H       0.9613   0.1352   0.6442     H
H       0.9613   0.6352   0.3558     H
C      0.96599  0.10169    0.626     C
C      0.96599  0.60169    0.374     C
H       0.9693   0.3374   0.5548     H
H       0.9693   0.8374   0.4452     H
H       0.9783   0.1097   0.4734     H
H       0.9783   0.6097   0.5266     H
H       0.9828   0.0862    0.682     H
H       0.9828   0.5862    0.318     H
H       0.9938   0.4341   0.5202     H
H       0.9938   0.9341   0.4798     H
C      0.99671  0.09902    0.532     C
C      0.99671  0.59902    0.468     C
