data_I
_chemical_name_common  '/home/zhangsd/repos/MofS-CGCNN/ML/data/TSD/clean_cifs/TIQGEG_clean'
_cell_length_a 10.16630
_cell_length_b 14.26040
_cell_length_c 10.56370
_cell_angle_alpha 91.80300
_cell_angle_beta  90.00000
_cell_angle_gamma 90.00000
_space_group_name_H-M_alt      'P 1'


loop_
_space_group_symop_operation_xyz
  'x, y, z' 

loop_
_atom_site_label
_atom_site_fract_x
_atom_site_fract_y
_atom_site_fract_z
_atom_site_type_symbol
Cu         0.0      0.0      0.5    Cu
Cu         0.0      0.5     -0.0    Cu
Cu         0.0      0.5      0.5    Cu
C       0.0004  0.16057   0.6799     C
Cu     0.00224  0.10132  0.02568    Cu
O      0.01536  0.50084   0.3132     O
C       0.0178  0.42552    0.741     C
O      0.02175  0.65634  0.46267     O
O      0.02636   0.8709  0.42901     O
C       0.0275  0.33297   0.6641     C
O      0.04445  0.41871    0.856     O
C       0.0578  0.74402   0.2797     C
H        0.065    0.739    0.193     H
O      0.07462  0.12464  0.76046     O
O      0.11633  0.00609  0.94746     O
H        0.124    0.314    0.651     H
O      0.13671  0.59443   0.9641     O
O      0.13898  0.80984  0.94555     O
Cu     0.15424  0.99902  0.76357    Cu
C       0.1618  0.67577   0.4631     C
O      0.16662  0.98136  0.58118     O
H        0.169    0.004    0.981     H
H        0.175    0.719    0.539     H
H        0.181    0.935     0.58     H
O      0.18788  0.51302   0.5194     O
C       0.1923  0.72372   0.3385     C
C       0.2175  0.80878   0.8531     C
O       0.2274  0.86919  0.76964     O
H        0.237    0.682    0.289     H
C       0.2437  0.58662   0.4825     C
C       0.2563  0.58662   0.9825     C
H        0.263    0.682    0.789     H
O       0.2726  0.86919  0.26964     O
C       0.2825  0.80878   0.3531     C
C       0.3077  0.72372   0.8385     C
O      0.31212  0.51302   0.0194     O
H        0.319    0.935     0.08     H
H        0.325    0.719    0.039     H
H        0.331    0.004    0.481     H
O      0.33338  0.98136  0.08118     O
C       0.3382  0.67577   0.9631     C
Cu     0.34576  0.99902  0.26357    Cu
O      0.36102  0.80984  0.44555     O
O      0.36329  0.59443   0.4641     O
H        0.376    0.314    0.151     H
O      0.38367  0.00609  0.44746     O
O      0.42538  0.12464  0.26046     O
H        0.435    0.739    0.693     H
C       0.4422  0.74402   0.7797     C
O      0.45555  0.41871    0.356     O
C       0.4725  0.33297   0.1641     C
O      0.47364   0.8709  0.92901     O
O      0.47825  0.65634  0.96267     O
C       0.4822  0.42552    0.241     C
O      0.48464  0.50084   0.8132     O
Cu     0.49776  0.10132  0.52568    Cu
C       0.4996  0.16057   0.1799     C
Cu         0.5      0.0      0.0    Cu
Cu         0.5      0.5     -0.0    Cu
Cu         0.5      0.5      0.5    Cu
C       0.5004  0.83943   0.8201     C
Cu     0.50224  0.89868  0.47432    Cu
O      0.51536  0.49916   0.1868     O
C       0.5178  0.57448    0.759     C
O      0.52175  0.34366  0.03733     O
O      0.52636   0.1291  0.07099     O
C       0.5275  0.66703   0.8359     C
O      0.54445  0.58129    0.644     O
C       0.5578  0.25598   0.2203     C
H        0.565    0.261    0.307     H
O      0.57462  0.87536  0.73954     O
O      0.61633  0.99391  0.55254     O
H        0.624    0.686    0.849     H
O      0.63671  0.40557   0.5359     O
O      0.63898  0.19016  0.55445     O
Cu     0.65424  0.00098  0.73643    Cu
C       0.6618  0.32423   0.0369     C
O      0.66662  0.01864  0.91882     O
H        0.669    0.996    0.519     H
H        0.675    0.281    0.961     H
H        0.681    0.065     0.92     H
O      0.68788  0.48698   0.9806     O
C       0.6923  0.27628   0.1615     C
C       0.7175  0.19122   0.6469     C
O       0.7274  0.13081  0.73036     O
H        0.737    0.318    0.211     H
C       0.7437  0.41338   0.0175     C
C       0.7563  0.41338   0.5175     C
H        0.763    0.318    0.711     H
O       0.7726  0.13081  0.23036     O
C       0.7825  0.19122   0.1469     C
C       0.8077  0.27628   0.6615     C
O      0.81212  0.48698   0.4806     O
H        0.819    0.065     0.42     H
H        0.825    0.281    0.461     H
H        0.831    0.996    0.019     H
O      0.83338  0.01864  0.41882     O
C       0.8382  0.32423   0.5369     C
Cu     0.84576  0.00098  0.23643    Cu
O      0.86102  0.19016  0.05445     O
O      0.86329  0.40557   0.0359     O
H        0.876    0.686    0.349     H
O      0.88367  0.99391  0.05254     O
O      0.92538  0.87536  0.23954     O
H        0.935    0.261    0.807     H
C       0.9422  0.25598   0.7203     C
O      0.95555  0.58129    0.144     O
C       0.9725  0.66703   0.3359     C
O      0.97364   0.1291  0.57099     O
O      0.97825  0.34366  0.53733     O
C       0.9822  0.57448    0.259     C
O      0.98464  0.49916   0.6868     O
Cu     0.99776  0.89868  0.97432    Cu
C       0.9996  0.83943   0.3201     C
