data_I
_chemical_name_common  '/home/zhangsd/repos/MofS-CGCNN/ML/data/TSD/clean_cifs/TIQGEG01_clean'
_cell_length_a 10.14170
_cell_length_b 14.22380
_cell_length_c 10.54740
_cell_angle_alpha 91.79500
_cell_angle_beta  90.00000
_cell_angle_gamma 90.00000
_space_group_name_H-M_alt      'P 1'


loop_
_space_group_symop_operation_xyz
  'x, y, z' 

loop_
_atom_site_label
_atom_site_fract_x
_atom_site_fract_y
_atom_site_fract_z
_atom_site_type_symbol
Cu         0.0      0.0      0.5    Cu
Cu         0.0      0.5     -0.0    Cu
Cu         0.0      0.5      0.5    Cu
C       0.0004   0.1609   0.6804     C
Cu     0.00226  0.10132  0.02585    Cu
O      0.01526  0.50104  0.31305     O
C       0.0182  0.42581   0.7409     C
O      0.02191  0.65649  0.46266     O
O       0.0268  0.87094  0.42871     O
C       0.0279  0.33304   0.6642     C
O      0.04484  0.41871  0.85615     O
C       0.0574  0.74399   0.2799     C
H        0.065     0.74    0.199     H
O      0.07504  0.12478  0.76045     O
O      0.11599  0.00597  0.94756     O
H        0.122    0.316    0.655     H
O      0.13648  0.59449  0.96428     O
O      0.13886  0.80975  0.94521     O
Cu     0.15424  0.99905  0.76354    Cu
C       0.1618   0.6757    0.463     C
O      0.16676   0.9814  0.58132     O
H        0.177    0.003    0.983     H
H        0.177    0.936    0.575     H
H         0.18    0.718    0.538     H
O      0.18787  0.51273   0.5192     O
C       0.1926  0.72375   0.3381     C
C       0.2178  0.80884   0.8528     C
O      0.22734   0.8691  0.76954     O
H        0.237     0.68    0.287     H
C       0.2436  0.58624   0.4823     C
C       0.2564  0.58624   0.9823     C
H        0.263     0.68    0.787     H
O      0.27266   0.8691  0.26954     O
C       0.2822  0.80884   0.3528     C
C       0.3074  0.72375   0.8381     C
O      0.31213  0.51273   0.0192     O
H         0.32    0.718    0.038     H
H        0.323    0.003    0.483     H
H        0.323    0.936    0.075     H
O      0.33324   0.9814  0.08132     O
C       0.3382   0.6757    0.963     C
Cu     0.34576  0.99905  0.26354    Cu
O      0.36114  0.80975  0.44521     O
O      0.36352  0.59449  0.46428     O
H        0.378    0.316    0.155     H
O      0.38401  0.00597  0.44756     O
O      0.42496  0.12478  0.26045     O
H        0.435     0.74    0.699     H
C       0.4426  0.74399   0.7799     C
O      0.45516  0.41871  0.35615     O
C       0.4721  0.33304   0.1642     C
O       0.4732  0.87094  0.92871     O
O      0.47809  0.65649  0.96266     O
C       0.4818  0.42581   0.2409     C
O      0.48474  0.50104  0.81305     O
Cu     0.49774  0.10132  0.52585    Cu
C       0.4996   0.1609   0.1804     C
Cu         0.5      0.0      0.0    Cu
Cu         0.5      0.5     -0.0    Cu
Cu         0.5      0.5      0.5    Cu
C       0.5004   0.8391   0.8196     C
Cu     0.50226  0.89868  0.47415    Cu
O      0.51526  0.49896  0.18695     O
C       0.5182  0.57419   0.7591     C
O      0.52191  0.34351  0.03734     O
O       0.5268  0.12906  0.07129     O
C       0.5279  0.66696   0.8358     C
O      0.54484  0.58129  0.64385     O
C       0.5574  0.25601   0.2201     C
H        0.565     0.26    0.301     H
O      0.57504  0.87522  0.73955     O
O      0.61599  0.99403  0.55244     O
H        0.622    0.684    0.845     H
O      0.63648  0.40551  0.53572     O
O      0.63886  0.19025  0.55479     O
Cu     0.65424  0.00095  0.73646    Cu
C       0.6618   0.3243    0.037     C
O      0.66676   0.0186  0.91868     O
H        0.677    0.064    0.925     H
H        0.677    0.997    0.517     H
H         0.68    0.282    0.962     H
O      0.68787  0.48727   0.9808     O
C       0.6926  0.27625   0.1619     C
C       0.7178  0.19116   0.6472     C
O      0.72734   0.1309  0.73046     O
H        0.737     0.32    0.213     H
C       0.7436  0.41376   0.0177     C
C       0.7564  0.41376   0.5177     C
H        0.763     0.32    0.713     H
O      0.77266   0.1309  0.23046     O
C       0.7822  0.19116   0.1472     C
C       0.8074  0.27625   0.6619     C
O      0.81213  0.48727   0.4808     O
H         0.82    0.282    0.462     H
H        0.823    0.064    0.425     H
H        0.823    0.997    0.017     H
O      0.83324   0.0186  0.41868     O
C       0.8382   0.3243    0.537     C
Cu     0.84576  0.00095  0.23646    Cu
O      0.86114  0.19025  0.05479     O
O      0.86352  0.40551  0.03572     O
H        0.878    0.684    0.345     H
O      0.88401  0.99403  0.05244     O
O      0.92496  0.87522  0.23955     O
H        0.935     0.26    0.801     H
C       0.9426  0.25601   0.7201     C
O      0.95516  0.58129  0.14385     O
C       0.9721  0.66696   0.3358     C
O       0.9732  0.12906  0.57129     O
O      0.97809  0.34351  0.53734     O
C       0.9818  0.57419   0.2591     C
O      0.98474  0.49896  0.68695     O
Cu     0.99774  0.89868  0.97415    Cu
C       0.9996   0.8391   0.3196     C
