data_I
_chemical_name_common  '/home/zhangsd/repos/MofS-CGCNN/ML/data/TSD/clean_cifs/TIVFIO_clean'
_cell_length_a 10.04300
_cell_length_b 14.11900
_cell_length_c 10.21000
_cell_angle_alpha 92.16000
_cell_angle_beta  90.00000
_cell_angle_gamma 90.00000
_space_group_name_H-M_alt      'P 1'


loop_
_space_group_symop_operation_xyz
  'x, y, z' 

loop_
_atom_site_label
_atom_site_fract_x
_atom_site_fract_y
_atom_site_fract_z
_atom_site_type_symbol
C       0.0024   0.3692   0.9188     C
H       0.0055   0.4504   0.7072     H
H        0.025    0.848    0.019     H
C       0.0435   0.5024   0.7649     C
O       0.0465  0.64498    0.194     O
O       0.0587    0.293   0.9392     O
H       0.0587   0.5069   0.9697     H
C       0.0588    0.581   0.2758     C
O       0.0671  0.78683   0.0243     O
H        0.073    0.754    0.429     H
C       0.0806   0.4597   0.8975     C
Cl     0.11134  0.96255  0.54715    Cl
O       0.1209  0.38045   0.4189     O
H       0.1254   0.0935   0.0939     H
Cu      0.1265  0.76946  0.19948    Cu
O       0.1464  0.57404   0.3622     O
O       0.1545  0.76809    0.387     O
H       0.1749   0.5217   0.6077     H
C       0.1763   0.5324   0.7051     C
O       0.1947  0.66421   0.8555     O
O       0.1988  0.20365   0.2985     O
O       0.2106   0.8962   0.2164     O
C       0.2181   0.6328   0.7412     C
C       0.2192   0.1171   0.0982     C
O       0.2212    0.445   0.8954     O
C       0.2252   0.2107   0.1785     C
Cu      0.2325  0.78889  0.93342    Cu
O       0.2441   0.2963   0.7277     O
Cu     0.24873  0.28577  0.92551    Cu
Cu     0.25737  0.28781  0.43813    Cu
O       0.2578   0.2847   0.1234     O
C       0.2582   0.9436   0.1264     C
Cu     0.26349  0.87609  0.44215    Cu
O       0.2679  0.91634   0.0067     O
O       0.2695  0.12938   0.9678     O
C       0.2744   0.4637   0.7682     C
O       0.2784   0.6755   0.6518     O
Cu     0.28175  0.66388  0.40682    Cu
C       0.2844   0.3724   0.6825     C
C       0.3099   0.0424   0.1591     C
H       0.3171   0.0537   0.2561     H
O       0.3272  0.38188   0.5674     O
H       0.3641    0.494   0.7774     H
Cl     0.37204  0.69117  0.14913    Cl
O       0.3867   0.1916   0.4718     O
O       0.3914  0.76816   0.4659     O
O       0.3928  0.80648   0.8387     O
H        0.404   0.8728    0.849     H
O       0.4046  0.96732   0.4615     O
Cu      0.4059  0.78232  0.65479    Cu
C       0.4094   0.1126    0.966     C
H       0.4288   0.0682   0.8898     H
O       0.4389  0.27569   0.9122     O
C       0.4444   0.0609   0.0918     C
C       0.4702   0.9728   0.5663     C
O       0.4729  0.91423   0.6551     O
H        0.473    0.777    0.418     H
C       0.4917   0.2017   0.9488     C
H       0.4962   0.1059   0.1501     H
H       0.5038   0.1059   0.6501     H
C       0.5083   0.2017   0.4488     C
H        0.527    0.777    0.918     H
O       0.5271  0.91423   0.1551     O
C       0.5298   0.9728   0.0663     C
C       0.5556   0.0609   0.5918     C
O       0.5611  0.27569   0.4122     O
H       0.5712   0.0682   0.3898     H
C       0.5906   0.1126    0.466     C
Cu      0.5941  0.78232  0.15479    Cu
O       0.5954  0.96732   0.9615     O
H        0.596   0.8728    0.349     H
O       0.6072  0.80648   0.3387     O
O       0.6086  0.76816   0.9659     O
O       0.6133   0.1916   0.9718     O
Cl     0.62796  0.69117  0.64913    Cl
H       0.6359    0.494   0.2774     H
O       0.6728  0.38188   0.0674     O
H       0.6829   0.0537   0.7561     H
C       0.6901   0.0424   0.6591     C
C       0.7156   0.3724   0.1825     C
Cu     0.71825  0.66388  0.90682    Cu
O       0.7216   0.6755   0.1518     O
C       0.7256   0.4637   0.2682     C
O       0.7305  0.12938   0.4678     O
O       0.7321  0.91634   0.5067     O
Cu     0.73651  0.87609  0.94215    Cu
C       0.7418   0.9436   0.6264     C
O       0.7422   0.2847   0.6234     O
Cu     0.74263  0.28781  0.93813    Cu
Cu     0.75127  0.28577  0.42551    Cu
O       0.7559   0.2963   0.2277     O
Cu      0.7675  0.78889  0.43342    Cu
C       0.7748   0.2107   0.6785     C
O       0.7788    0.445   0.3954     O
C       0.7808   0.1171   0.5982     C
C       0.7819   0.6328   0.2412     C
O       0.7894   0.8962   0.7164     O
O       0.8012  0.20365   0.7985     O
O       0.8053  0.66421   0.3555     O
C       0.8237   0.5324   0.2051     C
H       0.8251   0.5217   0.1077     H
O       0.8455  0.76809    0.887     O
O       0.8536  0.57404   0.8622     O
Cu      0.8735  0.76946  0.69948    Cu
H       0.8746   0.0935   0.5939     H
O       0.8791  0.38045   0.9189     O
Cl     0.88866  0.96255  0.04715    Cl
C       0.9194   0.4597   0.3975     C
H        0.927    0.754    0.929     H
O       0.9329  0.78683   0.5243     O
C       0.9412    0.581   0.7758     C
O       0.9413    0.293   0.4392     O
H       0.9413   0.5069   0.4697     H
O       0.9535  0.64498    0.694     O
C       0.9565   0.5024   0.2649     C
H        0.975    0.848    0.519     H
H       0.9945   0.4504   0.2072     H
C       0.9976   0.3692   0.4188     C
