data_I
_chemical_name_common  '/home/zhangsd/repos/MofS-CGCNN/ML/data/TSD/clean_cifs/TIVFAG_clean'
_cell_length_a 10.03880
_cell_length_b 14.22910
_cell_length_c 10.34130
_cell_angle_alpha 92.44900
_cell_angle_beta  90.00000
_cell_angle_gamma 90.00000
_space_group_name_H-M_alt      'P 1'


loop_
_space_group_symop_operation_xyz
  'x, y, z' 

loop_
_atom_site_label
_atom_site_fract_x
_atom_site_fract_y
_atom_site_fract_z
_atom_site_type_symbol
C       0.0012   0.3681   0.9179     C
H       0.0043   0.4513   0.7103     H
H        0.034    0.829    0.028     H
O       0.0408   0.6449   0.2032     O
C       0.0458   0.5015   0.7677     C
C       0.0528   0.5816   0.2839     C
O       0.0581   0.2912   0.9398     O
H       0.0627   0.5044   0.9691     H
O       0.0728   0.7675   0.0245     O
H        0.075     0.75    0.434     H
C       0.0828   0.4576   0.8969     C
Cl     0.10399  0.97408  0.51113    Cl
Cu     0.11337  0.77353  0.20532    Cu
O       0.1221   0.3794    0.414     O
H        0.123   0.0929   0.0944     H
O       0.1381   0.5771   0.3722     O
O        0.152   0.7725   0.3899     O
H       0.1759   0.5178   0.6115     H
C       0.1787   0.5284   0.7077     C
O       0.2006   0.2036    0.294     O
O       0.2079    0.658   0.8571     O
O       0.2082   0.8964   0.2132     O
C       0.2173   0.1156   0.0972     C
O       0.2227   0.4407   0.8948     O
C       0.2244   0.6282   0.7433     C
C       0.2265   0.2099   0.1758     C
Cu      0.2329  0.78686   0.9286    Cu
O       0.2395    0.292   0.7299     O
Cu     0.24699  0.28248   0.9245    Cu
C       0.2557    0.942   0.1232     C
Cu     0.25772  0.28617  0.43585    Cu
O       0.2582   0.2832   0.1196     O
O        0.265   0.9144   0.0059     O
Cu     0.26534  0.87698  0.43944    Cu
O       0.2664   0.1266    0.968     O
C       0.2768   0.4578   0.7692     C
Cu     0.27701  0.66725  0.40975    Cu
O         0.28   0.6725   0.6534     O
C       0.2812   0.3673   0.6846     C
C       0.3079   0.0415    0.156     C
H       0.3144   0.0526   0.2519     H
O       0.3232   0.3759   0.5702     O
H       0.3678    0.486   0.7776     H
Cl     0.37499  0.69012  0.15661    Cl
O       0.3869   0.1894   0.4698     O
O       0.3894   0.7701   0.4711     O
O       0.3959   0.8052     0.84     O
O       0.4061   0.9662   0.4622     O
H        0.407    0.871    0.853     H
C       0.4079   0.1094   0.9657     C
Cu     0.40903  0.78041  0.65767    Cu
H       0.4273   0.0647   0.8909     H
O       0.4365    0.271   0.9085     O
C       0.4446     0.06    0.091     C
O       0.4679   0.9158    0.657     O
C       0.4698   0.9738   0.5679     C
H         0.48    0.777    0.446     H
C       0.4897    0.198   0.9482     C
H       0.4951   0.1058   0.1483     H
H       0.5049   0.1058   0.6483     H
C       0.5103    0.198   0.4482     C
H         0.52    0.777    0.946     H
C       0.5302   0.9738   0.0679     C
O       0.5321   0.9158    0.157     O
C       0.5554     0.06    0.591     C
O       0.5635    0.271   0.4085     O
H       0.5727   0.0647   0.3909     H
Cu     0.59097  0.78041  0.15767    Cu
C       0.5921   0.1094   0.4657     C
H        0.593    0.871    0.353     H
O       0.5939   0.9662   0.9622     O
O       0.6041   0.8052     0.34     O
O       0.6106   0.7701   0.9711     O
O       0.6131   0.1894   0.9698     O
Cl     0.62501  0.69012  0.65661    Cl
H       0.6322    0.486   0.2776     H
O       0.6768   0.3759   0.0702     O
H       0.6856   0.0526   0.7519     H
C       0.6921   0.0415    0.656     C
C       0.7188   0.3673   0.1846     C
O         0.72   0.6725   0.1534     O
Cu     0.72299  0.66725  0.90975    Cu
C       0.7232   0.4578   0.2692     C
O       0.7336   0.1266    0.468     O
Cu     0.73466  0.87698  0.93944    Cu
O        0.735   0.9144   0.5059     O
O       0.7418   0.2832   0.6196     O
Cu     0.74228  0.28617  0.93585    Cu
C       0.7443    0.942   0.6232     C
Cu     0.75301  0.28248   0.4245    Cu
O       0.7605    0.292   0.2299     O
Cu      0.7671  0.78686   0.4286    Cu
C       0.7735   0.2099   0.6758     C
C       0.7756   0.6282   0.2433     C
O       0.7773   0.4407   0.3948     O
C       0.7827   0.1156   0.5972     C
O       0.7918   0.8964   0.7132     O
O       0.7921    0.658   0.3571     O
O       0.7994   0.2036    0.794     O
C       0.8213   0.5284   0.2077     C
H       0.8241   0.5178   0.1115     H
O        0.848   0.7725   0.8899     O
O       0.8619   0.5771   0.8722     O
H        0.877   0.0929   0.5944     H
O       0.8779   0.3794    0.914     O
Cu     0.88663  0.77353  0.70532    Cu
Cl     0.89601  0.97408  0.01113    Cl
C       0.9172   0.4576   0.3969     C
H        0.925     0.75    0.934     H
O       0.9272   0.7675   0.5245     O
H       0.9373   0.5044   0.4691     H
O       0.9419   0.2912   0.4398     O
C       0.9472   0.5816   0.7839     C
C       0.9542   0.5015   0.2677     C
O       0.9592   0.6449   0.7032     O
H        0.966    0.829    0.528     H
H       0.9957   0.4513   0.2103     H
C       0.9988   0.3681   0.4179     C
