data_I
_chemical_name_common  '/home/zhangsd/repos/MofS-CGCNN/ML/data/TSD/clean_cifs/TIVFEK_clean'
_cell_length_a 10.06010
_cell_length_b 14.18510
_cell_length_c 10.25370
_cell_angle_alpha 92.26200
_cell_angle_beta  90.00000
_cell_angle_gamma 90.00000
_space_group_name_H-M_alt      'P 1'


loop_
_space_group_symop_operation_xyz
  'x, y, z' 

loop_
_atom_site_label
_atom_site_fract_x
_atom_site_fract_y
_atom_site_fract_z
_atom_site_type_symbol
C       0.0016    0.369   0.9193     C
H        0.003    0.454    0.712     H
H        0.025    0.845    0.022     H
C       0.0443    0.502   0.7659     C
O       0.0462  0.64452   0.1963     O
C        0.058   0.5813   0.2782     C
O       0.0595   0.2926   0.9392     O
H        0.065    0.505    0.969     H
O       0.0673   0.7833   0.0243     O
H        0.074    0.764    0.436     H
C       0.0803   0.4597   0.8971     C
Cl     0.10602   0.9702  0.52243    Cl
O       0.1212   0.3799   0.4188     O
Cu     0.12226  0.77066  0.20152    Cu
H        0.131    0.094    0.082     H
O        0.146  0.57437   0.3646     O
O       0.1544   0.7687   0.3875     O
C        0.176   0.5318   0.7064     C
H        0.181    0.521    0.621     H
O       0.1976   0.6627   0.8563     O
O       0.1997  0.20316   0.2972     O
O       0.2118  0.89595   0.2152     O
C       0.2185   0.6321   0.7428     C
C        0.219    0.117    0.098     C
O       0.2222   0.4439   0.8952     O
C       0.2261   0.2107   0.1778     C
Cu     0.23157  0.78866  0.93177    Cu
O       0.2433   0.2954   0.7283     O
Cu      0.2491  0.28527  0.92567    Cu
Cu      0.2572  0.28736  0.43799    Cu
C       0.2582    0.943   0.1247     C
O       0.2586   0.2846    0.123     O
Cu     0.26459  0.87612  0.44017    Cu
O       0.2679  0.91592   0.0072     O
O       0.2692  0.12857   0.9689     O
C       0.2746    0.462   0.7685     C
O       0.2776  0.67535   0.6523     O
Cu     0.28124   0.6643  0.40819    Cu
C       0.2845   0.3717   0.6834     C
C       0.3097   0.0419   0.1588     C
H        0.314    0.054    0.254     H
O       0.3266  0.38087   0.5686     O
H        0.359    0.495    0.769     H
Cl     0.37447  0.69028  0.15256    Cl
O       0.3862    0.191   0.4721     O
O       0.3912  0.76892   0.4676     O
O       0.3935  0.80603   0.8391     O
O       0.4054  0.96689   0.4617     O
Cu     0.40681  0.78158   0.6563    Cu
C       0.4097   0.1108   0.9672     C
H        0.411   0.8704    0.858     H
H        0.433    0.079    0.891     H
O       0.4392   0.2748   0.9118     O
C       0.4458   0.0609   0.0912     C
O       0.4696  0.91547   0.6564     O
C       0.4701   0.9741   0.5675     C
H        0.474    0.774    0.422     H
C       0.4913    0.201   0.9503     C
H        0.499    0.095    0.635     H
H        0.501    0.095    0.135     H
C       0.5087    0.201   0.4503     C
H        0.526    0.774    0.922     H
C       0.5299   0.9741   0.0675     C
O       0.5304  0.91547   0.1564     O
C       0.5542   0.0609   0.5912     C
O       0.5608   0.2748   0.4118     O
H        0.567    0.079    0.391     H
H        0.589   0.8704    0.358     H
C       0.5903   0.1108   0.4672     C
Cu     0.59319  0.78158   0.1563    Cu
O       0.5946  0.96689   0.9617     O
O       0.6065  0.80603   0.3391     O
O       0.6088  0.76892   0.9676     O
O       0.6138    0.191   0.9721     O
Cl     0.62553  0.69028  0.65256    Cl
H        0.641    0.495    0.269     H
O       0.6734  0.38087   0.0686     O
H        0.686    0.054    0.754     H
C       0.6903   0.0419   0.6588     C
C       0.7155   0.3717   0.1834     C
Cu     0.71876   0.6643  0.90819    Cu
O       0.7224  0.67535   0.1523     O
C       0.7254    0.462   0.2685     C
O       0.7308  0.12857   0.4689     O
O       0.7321  0.91592   0.5072     O
Cu     0.73541  0.87612  0.94017    Cu
O       0.7414   0.2846    0.623     O
C       0.7418    0.943   0.6247     C
Cu      0.7428  0.28736  0.93799    Cu
Cu      0.7509  0.28527  0.42567    Cu
O       0.7567   0.2954   0.2283     O
Cu     0.76843  0.78866  0.43177    Cu
C       0.7739   0.2107   0.6778     C
O       0.7778   0.4439   0.3952     O
C        0.781    0.117    0.598     C
C       0.7815   0.6321   0.2428     C
O       0.7882  0.89595   0.7152     O
O       0.8003  0.20316   0.7972     O
O       0.8024   0.6627   0.3563     O
H        0.819    0.521    0.121     H
C        0.824   0.5318   0.2064     C
O       0.8456   0.7687   0.8875     O
O        0.854  0.57437   0.8646     O
H        0.869    0.094    0.582     H
Cu     0.87774  0.77066  0.70152    Cu
O       0.8788   0.3799   0.9188     O
Cl     0.89398   0.9702  0.02243    Cl
C       0.9197   0.4597   0.3971     C
H        0.926    0.764    0.936     H
O       0.9327   0.7833   0.5243     O
H        0.935    0.505    0.469     H
O       0.9405   0.2926   0.4392     O
C        0.942   0.5813   0.7782     C
O       0.9538  0.64452   0.6963     O
C       0.9557    0.502   0.2659     C
H        0.975    0.845    0.522     H
H        0.997    0.454    0.212     H
C       0.9984    0.369   0.4193     C
