data_I
_chemical_name_common  '/home/zhangsd/repos/MofS-CGCNN/ML/data/TSD/clean_cifs/TIXMET_clean'
_cell_length_a 33.89400
_cell_length_b 13.22900
_cell_length_c  8.93700
_cell_angle_alpha 90.00000
_cell_angle_beta  104.37000
_cell_angle_gamma 90.00000
_space_group_name_H-M_alt      'P 1'


loop_
_space_group_symop_operation_xyz
  'x, y, z' 

loop_
_atom_site_label
_atom_site_fract_x
_atom_site_fract_y
_atom_site_fract_z
_atom_site_type_symbol
Zn         0.0  0.48862     0.75    Zn
Zn         0.0  0.51138     0.25    Zn
O      0.01799   0.3952   0.9226     O
O      0.01799   0.6048   0.4226     O
O      0.04392   0.4283     0.21     O
O      0.04392   0.5717     0.71     O
P      0.05163  0.38268   0.0666     P
P      0.05163  0.61732   0.5666     P
H        0.057    0.285    0.107     H
H        0.057    0.715    0.607     H
O      0.09182   0.4117    0.042     O
O      0.09182   0.5883    0.542     O
O      0.14755   0.2747   0.2887     O
O      0.14755   0.7253   0.7887     O
Zn     0.14858   0.3957  0.16001    Zn
Zn     0.14858   0.6043  0.66001    Zn
O      0.15865   0.4804   0.7818     O
O      0.15865   0.5196   0.2818     O
H       0.1624   0.1189    0.388     H
H       0.1624   0.8811    0.888     H
P      0.18005  0.20973   0.3846     P
P      0.18005  0.79027   0.8846     P
O      0.18442     0.38   0.0252     O
O      0.18442     0.62   0.5252     O
O      0.19224   0.2428   0.5477     O
O      0.19224   0.7572   0.0477     O
P       0.1957  0.44836  0.90357     P
P       0.1957  0.55164  0.40357     P
O      0.21503   0.1923   0.3143     O
O      0.21503   0.8077   0.8143     O
O       0.2194   0.4578    0.477     O
O       0.2194   0.5422    0.977     O
O      0.22471    0.373   0.8305     O
O      0.22471    0.627   0.3305     O
Zn     0.22932  0.35837  0.62724    Zn
Zn     0.22932  0.64163  0.12724    Zn
Zn     0.27068  0.14163  0.37276    Zn
Zn     0.27068  0.85837  0.87276    Zn
O      0.27529    0.127   0.1695     O
O      0.27529    0.873   0.6695     O
O       0.2806   0.0422    0.523     O
O       0.2806   0.9578    0.023     O
O      0.28497   0.3077   0.6857     O
O      0.28497   0.6923   0.1857     O
P       0.3043  0.05164  0.09643     P
P       0.3043  0.94836  0.59643     P
O      0.30776   0.2572   0.4523     O
O      0.30776   0.7428   0.9523     O
O      0.31558     0.12   0.9748     O
O      0.31558     0.88   0.4748     O
P      0.31995  0.29027   0.6154     P
P      0.31995  0.70973   0.1154     P
H       0.3376   0.3811    0.612     H
H       0.3376   0.6189    0.112     H
O      0.34135   0.0196   0.2182     O
O      0.34135   0.9804   0.7182     O
Zn     0.35142   0.1043  0.83999    Zn
Zn     0.35142   0.8957  0.33999    Zn
O      0.35245   0.2253   0.7113     O
O      0.35245   0.7747   0.2113     O
O      0.40818   0.0883    0.958     O
O      0.40818   0.9117    0.458     O
H        0.443    0.215    0.893     H
H        0.443    0.785    0.393     H
P      0.44837  0.11732   0.9334     P
P      0.44837  0.88268   0.4334     P
O      0.45608   0.0717     0.79     O
O      0.45608   0.9283     0.29     O
O      0.48201   0.1048   0.0774     O
O      0.48201   0.8952   0.5774     O
Zn         0.5  0.01138     0.25    Zn
Zn         0.5  0.98862     0.75    Zn
O      0.51799   0.1048   0.4226     O
O      0.51799   0.8952   0.9226     O
O      0.54392   0.0717     0.71     O
O      0.54392   0.9283     0.21     O
P      0.55163  0.11732   0.5666     P
P      0.55163  0.88268   0.0666     P
H        0.557    0.215    0.607     H
H        0.557    0.785    0.107     H
O      0.59182   0.0883    0.542     O
O      0.59182   0.9117    0.042     O
O      0.64755   0.2253   0.7887     O
O      0.64755   0.7747   0.2887     O
Zn     0.64858   0.1043  0.66001    Zn
Zn     0.64858   0.8957  0.16001    Zn
O      0.65865   0.0196   0.2818     O
O      0.65865   0.9804   0.7818     O
H       0.6624   0.3811    0.888     H
H       0.6624   0.6189    0.388     H
P      0.68005  0.29027   0.8846     P
P      0.68005  0.70973   0.3846     P
O      0.68442     0.12   0.5252     O
O      0.68442     0.88   0.0252     O
O      0.69224   0.2572   0.0477     O
O      0.69224   0.7428   0.5477     O
P       0.6957  0.05164  0.40357     P
P       0.6957  0.94836  0.90357     P
O      0.71503   0.3077   0.8143     O
O      0.71503   0.6923   0.3143     O
O       0.7194   0.0422    0.977     O
O       0.7194   0.9578    0.477     O
O      0.72471    0.127   0.3305     O
O      0.72471    0.873   0.8305     O
Zn     0.72932  0.14163  0.12724    Zn
Zn     0.72932  0.85837  0.62724    Zn
Zn     0.77068  0.35837  0.87276    Zn
Zn     0.77068  0.64163  0.37276    Zn
O      0.77529    0.373   0.6695     O
O      0.77529    0.627   0.1695     O
O       0.7806   0.4578    0.023     O
O       0.7806   0.5422    0.523     O
O      0.78497   0.1923   0.1857     O
O      0.78497   0.8077   0.6857     O
P       0.8043  0.44836  0.59643     P
P       0.8043  0.55164  0.09643     P
O      0.80776   0.2428   0.9523     O
O      0.80776   0.7572   0.4523     O
O      0.81558     0.38   0.4748     O
O      0.81558     0.62   0.9748     O
P      0.81995  0.20973   0.1154     P
P      0.81995  0.79027   0.6154     P
H       0.8376   0.1189    0.112     H
H       0.8376   0.8811    0.612     H
O      0.84135   0.4804   0.7182     O
O      0.84135   0.5196   0.2182     O
Zn     0.85142   0.3957  0.33999    Zn
Zn     0.85142   0.6043  0.83999    Zn
O      0.85245   0.2747   0.2113     O
O      0.85245   0.7253   0.7113     O
O      0.90818   0.4117    0.458     O
O      0.90818   0.5883    0.958     O
H        0.943    0.285    0.393     H
H        0.943    0.715    0.893     H
P      0.94837  0.38268   0.4334     P
P      0.94837  0.61732   0.9334     P
O      0.95608   0.4283     0.29     O
O      0.95608   0.5717     0.79     O
O      0.98201   0.3952   0.5774     O
O      0.98201   0.6048   0.0774     O
