data_I
_chemical_name_common  '/home/zhangsd/repos/MofS-CGCNN/ML/data/TSD/clean_cifs/TIXMIX_clean'
_cell_length_a 14.11300
_cell_length_b 14.59000
_cell_length_c 10.46900
_cell_angle_alpha 90.00000
_cell_angle_beta  90.00000
_cell_angle_gamma 90.00000
_space_group_name_H-M_alt      'P 1'


loop_
_space_group_symop_operation_xyz
  'x, y, z' 

loop_
_atom_site_label
_atom_site_fract_x
_atom_site_fract_y
_atom_site_fract_z
_atom_site_type_symbol
O       0.0043   0.9104   0.5702     O
O       0.0186   0.3862   0.2302     O
O       0.0969   0.8004   0.7033     O
P        0.101  0.88489   0.6213     P
Co     0.10308   0.6697  0.68264    Co
Co     0.11362  0.15152  0.11921    Co
P      0.11566  0.36821   0.1696     P
O       0.1189   0.2825   0.0908     O
O       0.1272   0.6345    0.506     O
O       0.1354   0.1228   0.2972     O
O        0.145   0.9639   0.6956     O
O       0.1469    0.452   0.0925     O
H        0.158    0.861    0.516     H
H        0.182     0.36    0.275     H
O       0.1856    0.615   0.8048     O
O        0.197   0.5928   0.3005     O
O        0.198   0.0958   0.9934     O
P      0.21776  0.63845   0.4264     P
O       0.2189   0.1134   0.5062     O
P       0.2235  0.08982   0.3649     P
H        0.234   0.9917    0.344     H
H        0.236    0.728    0.404     H
Co     0.24639  0.53869  0.14991    Co
Zn     0.25361  0.03869  0.64991    Zn
H        0.264    0.228    0.904     H
H        0.266   0.4917    0.844     H
P       0.2765  0.58982   0.8649     P
O       0.2811   0.6134   0.0062     O
P      0.28224  0.13845   0.9264     P
O        0.302   0.5958   0.4934     O
O        0.303   0.0928   0.8005     O
O       0.3144    0.115   0.3048     O
H        0.318     0.86    0.775     H
H        0.342    0.361    0.016     H
O       0.3531    0.952   0.5925     O
O        0.355   0.4639   0.1956     O
O       0.3646   0.6228   0.7972     O
O       0.3728   0.1345    0.006     O
O       0.3811   0.7825   0.5908     O
P      0.38434  0.86821   0.6696     P
Zn     0.38638  0.65152  0.61921    Zn
Co     0.39692   0.1697  0.18264    Co
P        0.399  0.38489   0.1213     P
O       0.4031   0.3004   0.2033     O
O       0.4814   0.8862   0.7302     O
O       0.4957   0.4104   0.0702     O
O       0.5043   0.5896   0.5702     O
O       0.5186   0.1138   0.2302     O
O       0.5969   0.6996   0.7033     O
P        0.601  0.61511   0.6213     P
Co     0.60308   0.8303  0.68264    Co
Zn     0.61362  0.34848  0.11921    Zn
P      0.61566  0.13179   0.1696     P
O       0.6189   0.2175   0.0908     O
O       0.6272   0.8655    0.506     O
O       0.6354   0.3772   0.2972     O
O        0.645   0.5361   0.6956     O
O       0.6469    0.048   0.0925     O
H        0.658    0.639    0.516     H
H        0.682     0.14    0.275     H
O       0.6856    0.885   0.8048     O
O        0.697   0.9072   0.3005     O
O        0.698   0.4042   0.9934     O
P      0.71776  0.86155   0.4264     P
O       0.7189   0.3866   0.5062     O
P       0.7235  0.41018   0.3649     P
H        0.734   0.5083    0.344     H
H        0.736    0.772    0.404     H
Zn     0.74639  0.96131  0.14991    Zn
Co     0.75361  0.46131  0.64991    Co
H        0.764    0.272    0.904     H
H        0.766   0.0083    0.844     H
P       0.7765  0.91018   0.8649     P
O       0.7811   0.8866   0.0062     O
P      0.78224  0.36155   0.9264     P
O        0.802   0.9042   0.4934     O
O        0.803   0.4072   0.8005     O
O       0.8144    0.385   0.3048     O
H        0.818     0.64    0.775     H
H        0.842    0.139    0.016     H
O       0.8531    0.548   0.5925     O
O        0.855   0.0361   0.1956     O
O       0.8646   0.8772   0.7972     O
O       0.8728   0.3655    0.006     O
O       0.8811   0.7175   0.5908     O
P      0.88434  0.63179   0.6696     P
Co     0.88638  0.84848  0.61921    Co
Co     0.89692   0.3303  0.18264    Co
P        0.899  0.11511   0.1213     P
O       0.9031   0.1996   0.2033     O
O       0.9814   0.6138   0.7302     O
O       0.9957   0.0896   0.0702     O
