data_I
_chemical_name_common  '/home/zhangsd/repos/MofS-CGCNN/ML/data/TSD/clean_cifs/TOBKEC_clean'
_cell_length_a  6.34620
_cell_length_b 16.58000
_cell_length_c 24.01800
_cell_angle_alpha 90.00000
_cell_angle_beta  90.68300
_cell_angle_gamma 90.00000
_space_group_name_H-M_alt      'P 1'


loop_
_space_group_symop_operation_xyz
  'x, y, z' 

loop_
_atom_site_label
_atom_site_fract_x
_atom_site_fract_y
_atom_site_fract_z
_atom_site_type_symbol
H        0.017   0.0809   0.1536     H
H        0.017   0.4191   0.6536     H
H       0.0281    0.653   0.2658     H
H       0.0281    0.847   0.7658     H
O       0.0558   0.6151   0.6513     O
O       0.0558   0.8849   0.1513     O
O       0.0594    0.519   0.4403     O
O       0.0594    0.981   0.9403     O
H       0.0616   0.7157   0.7288     H
H       0.0616   0.7843   0.2288     H
H       0.0943    0.582    0.627     H
H       0.0943    0.918    0.127     H
C       0.1137   0.6072   0.3404     C
C       0.1137   0.8928   0.8404     C
C       0.1398   0.6497   0.2924     C
C       0.1398   0.8503   0.7924     C
C       0.1949   0.7133   0.7113     C
C       0.1949   0.7867   0.2113     C
C       0.2225   0.6624   0.6667     C
C       0.2225   0.8376   0.1667     C
C       0.2328   0.5559   0.4322     C
C       0.2328   0.9441   0.9322     C
Dy     0.26239  0.06217  0.02321    Dy
Dy     0.26239  0.43783  0.52321    Dy
C       0.2732   0.6009   0.3812     C
C       0.2732   0.8991   0.8812     C
H       0.2903   0.2089   0.8601     H
H       0.2903   0.2911   0.3601     H
O       0.3229   0.5464   0.5847     O
O       0.3229   0.9536   0.0847     O
C       0.3326    0.689   0.2823     C
C       0.3326    0.811   0.7823     C
H       0.3367   0.2061   0.2844     H
H       0.3367   0.2939   0.7844     H
C       0.3593   0.7385   0.2313     C
C       0.3593   0.7615   0.7313     C
O       0.3661   0.1367   0.0936     O
O       0.3661   0.3633   0.5936     O
O       0.3728   0.5508   0.4706     O
O       0.3728   0.9492   0.9706     O
H       0.3751   0.2075   0.1866     H
H       0.3751   0.2925   0.6866     H
O       0.3907   0.1168   0.9403     O
O       0.3907   0.3832   0.4403     O
C       0.4175   0.6596   0.6386     C
C       0.4175   0.8404   0.1386     C
C       0.4223   0.2095   0.8418     C
C       0.4223   0.2905   0.3418     C
C       0.4491   0.2399   0.2965     C
C       0.4491   0.2601   0.7965     C
C       0.4517   0.6044   0.5912     C
C       0.4517   0.8956   0.0912     C
C       0.4711   0.6385   0.3713     C
C       0.4711   0.8615   0.8713     C
C       0.4939   0.6822   0.3208     C
C       0.4939   0.8178   0.8208     C
C       0.5061   0.1822   0.1792     C
C       0.5061   0.3178   0.6792     C
C       0.5289   0.1385   0.1287     C
C       0.5289   0.3615   0.6287     C
C       0.5483   0.1044   0.9088     C
C       0.5483   0.3956   0.4088     C
C       0.5509   0.7399   0.2035     C
C       0.5509   0.7601   0.7035     C
C       0.5777   0.7095   0.6582     C
C       0.5777   0.7905   0.1582     C
C       0.5825   0.1596   0.8614     C
C       0.5825   0.3404   0.3614     C
O       0.6093   0.6168   0.5597     O
O       0.6093   0.8832   0.0597     O
H       0.6249   0.7075   0.3134     H
H       0.6249   0.7925   0.8134     H
O       0.6272   0.0508   0.0294     O
O       0.6272   0.4492   0.5294     O
O       0.6339   0.6367   0.4064     O
O       0.6339   0.8633   0.9064     O
C       0.6407   0.2385   0.2687     C
C       0.6407   0.2615   0.7687     C
H       0.6633   0.7061   0.2156     H
H       0.6633   0.7939   0.7156     H
C       0.6674    0.189   0.2177     C
C       0.6674    0.311   0.7177     C
O       0.6771   0.0464   0.9153     O
O       0.6771   0.4536   0.4153     O
H       0.7097   0.7089   0.6399     H
H       0.7097   0.7911   0.1399     H
C       0.7268   0.1009   0.1188     C
C       0.7268   0.3991   0.6188     C
Dy     0.73761  0.56217  0.47679    Dy
Dy     0.73761  0.93783  0.97679    Dy
C       0.7672   0.0559   0.0678     C
C       0.7672   0.4441   0.5678     C
C       0.7775   0.1624   0.8333     C
C       0.7775   0.3376   0.3333     C
C       0.8051   0.2133   0.7887     C
C       0.8051   0.2867   0.2887     C
C       0.8602   0.1497   0.2076     C
C       0.8602   0.3503   0.7076     C
C       0.8863   0.1072   0.1596     C
C       0.8863   0.3928   0.6596     C
H       0.9057    0.082    0.873     H
H       0.9057    0.418    0.373     H
H       0.9384   0.2157   0.7712     H
H       0.9384   0.2843   0.2712     H
O       0.9406    0.019   0.0597     O
O       0.9406    0.481   0.5597     O
O       0.9442   0.1151   0.8487     O
O       0.9442   0.3849   0.3487     O
H       0.9719    0.153   0.2342     H
H       0.9719    0.347   0.7342     H
H        0.983   0.5809   0.3464     H
H        0.983   0.9191   0.8464     H
