data_I
_chemical_name_common  '/home/zhangsd/repos/MofS-CGCNN/ML/data/TSD/clean_cifs/TUFSUK_clean'
_cell_length_a  7.69570
_cell_length_b 10.21820
_cell_length_c 15.94080
_cell_angle_alpha 86.94500
_cell_angle_beta  86.03500
_cell_angle_gamma 76.83100
_space_group_name_H-M_alt      'P 1'


loop_
_space_group_symop_operation_xyz
  'x, y, z' 

loop_
_atom_site_label
_atom_site_fract_x
_atom_site_fract_y
_atom_site_fract_z
_atom_site_type_symbol
N       0.0176   0.0773   0.7813     N
C       0.0232   0.9628   0.8281     C
O       0.0391   0.3712   0.0782     O
C         0.05   0.5331   0.9638     C
C       0.0601    0.488   0.7052     C
N       0.0615   0.3677   0.7435     N
H       0.0763   0.1144   0.0637     H
C       0.0769    0.034   0.0967     C
C       0.0812   0.8023   0.1941     C
C       0.0855   0.6858   0.2532     C
C       0.0888   0.4426   0.3352     C
H       0.0913   0.3558   0.3603     H
H       0.0959   0.8803   0.8094     H
O       0.1049    0.071   0.7058     O
H        0.162   0.5257   0.7058     H
C       0.1779   0.9125     0.07     C
C       0.1797   0.7958   0.1174     C
O       0.2102    0.296   0.7769     O
O        0.215   0.4838   0.9526     O
C       0.2326   0.6235   0.2978     C
C       0.2337   0.5003   0.3386     C
O       0.2458    0.556   0.1175     O
H       0.2473   0.9093   0.0182     H
C       0.2879     0.66   0.0879     C
O       0.2908   0.2518   0.2025     O
H       0.3338   0.4557   0.3689     H
O       0.3388   0.9694   0.5768     O
Tb     0.35401  0.33674  0.06341    Tb
O       0.3614    0.814   0.2714     O
C        0.379   0.6987   0.3057     C
O       0.3864   0.0456   0.8184     O
Tb     0.38725  0.12948  0.67557    Tb
C       0.3883   0.1427   0.2265     C
O       0.3964   0.0905   0.2999     O
O       0.4065   0.8905   0.4468     O
O       0.4115   0.6634   0.0314     O
C       0.4273   0.9588   0.5065     C
O       0.4894   0.3548   0.6515     O
C       0.4895   0.9392   0.8416     C
O       0.4991    0.107   0.0832     O
O       0.5009    0.893   0.9168     O
C       0.5105   0.0608   0.1584     C
O       0.5106   0.6452   0.3485     O
C       0.5727   0.0412   0.4935     C
O       0.5885   0.3366   0.9686     O
O       0.5935   0.1095   0.5532     O
O       0.6036   0.9095   0.7001     O
C       0.6117   0.8573   0.7735     C
Tb     0.61275  0.87052  0.32443    Tb
O       0.6136   0.9544   0.1816     O
C        0.621   0.3013   0.6943     C
O       0.6386    0.186   0.7286     O
Tb     0.64599  0.66326  0.93659    Tb
O       0.6612   0.0306   0.4232     O
H       0.6662   0.5443   0.6311     H
O       0.7092   0.7482   0.7975     O
C       0.7121     0.34   0.9121     C
H       0.7527   0.0907   0.9818     H
O       0.7542    0.444   0.8825     O
C       0.7663   0.4997   0.6614     C
C       0.7674   0.3765   0.7022     C
O        0.785   0.5162   0.0474     O
O       0.7898    0.704   0.2231     O
C       0.8203   0.2042   0.8826     C
C       0.8221   0.0875     0.93     C
H        0.838   0.4743   0.2942     H
O       0.8951    0.929   0.2942     O
H       0.9041   0.1197   0.1906     H
H       0.9087   0.6442   0.6397     H
C       0.9112   0.5574   0.6648     C
C       0.9145   0.3142   0.7468     C
C       0.9188   0.1977   0.8059     C
C       0.9231    0.966   0.9033     C
H       0.9237   0.8856   0.9363     H
N       0.9385   0.6323   0.2565     N
C       0.9399    0.512   0.2948     C
C         0.95   0.4669   0.0362     C
O       0.9609   0.6288   0.9218     O
C       0.9768   0.0372   0.1719     C
N       0.9824   0.9227   0.2187     N
