data_I
_chemical_name_common  '/home/zhangsd/repos/MofS-CGCNN/ML/data/TSD/clean_cifs/UCAXEC_clean'
_cell_length_a  7.41300
_cell_length_b 23.88900
_cell_length_c  7.46700
_cell_angle_alpha 90.00000
_cell_angle_beta  92.22400
_cell_angle_gamma 90.00000
_space_group_name_H-M_alt      'P 1'


loop_
_space_group_symop_operation_xyz
  'x, y, z' 

loop_
_atom_site_label
_atom_site_fract_x
_atom_site_fract_y
_atom_site_fract_z
_atom_site_type_symbol
C       0.0117   0.5214   0.0309     C
H       0.0162   0.6153   0.1822     H
O       0.0242  0.26437   0.5483     O
O       0.0318  0.25752   0.1621     O
C       0.0443   0.0999   0.4947     C
H       0.0459   0.6478   0.6609     H
H       0.0689   0.9048   0.4581     H
N       0.0755  0.14557   0.4009     N
C       0.0786  0.33958    0.345     C
H       0.0894   0.4663   0.9105     H
C       0.1133  0.30374   0.1803     C
C       0.1146  0.30791   0.5208     C
C       0.1286   0.6095   0.1341     C
Mn     0.13497  0.78479  0.64487    Mn
H       0.1476   0.0276    0.595     H
H       0.1554   0.3724   0.3436     H
C       0.1578   0.5629   0.0439     C
C       0.1749   0.0586   0.5258     C
O       0.2216  0.32287   0.0709     O
H         0.23   0.6817   0.2207     H
O       0.2323  0.32736   0.6292     O
C       0.2406   0.1495   0.3418     C
C       0.2594   0.6495   0.1582     C
O       0.2677  0.82736   0.8708     O
H         0.27   0.1817   0.2793     H
O       0.2784  0.82287   0.4291     O
C       0.3251   0.5586   0.9742     C
C       0.3422   0.0629   0.4561     C
H       0.3446   0.8724   0.1564     H
H       0.3524   0.5276    0.905     H
Mn     0.36503  0.28479  0.85513    Mn
C       0.3714   0.1095   0.3659     C
C       0.3854  0.80791   0.9792     C
C       0.3867  0.80374   0.3197     C
H       0.4106   0.9663   0.5895     H
C       0.4214  0.83958    0.155     C
N       0.4245  0.64557   0.0991     N
H       0.4311   0.4048   0.0419     H
H       0.4541   0.1478   0.8391     H
C       0.4557   0.5999   0.0053     C
O       0.4682  0.75752   0.3379     O
O       0.4758  0.76437   0.9517     O
H       0.4838   0.1153   0.3178     H
C       0.4883   0.0214   0.4691     C
C       0.5117   0.9786   0.5309     C
H       0.5162   0.8847   0.6822     H
O       0.5242  0.23563   0.0483     O
O       0.5318  0.24248   0.6621     O
C       0.5443   0.4001   0.9947     C
H       0.5459   0.8522   0.1609     H
H       0.5689   0.5952   0.9581     H
N       0.5755  0.35443   0.9009     N
C       0.5786  0.16042    0.845     C
H       0.5894   0.0337   0.4105     H
C       0.6133  0.19626   0.6803     C
C       0.6146  0.19209   0.0208     C
C       0.6286   0.8905   0.6341     C
Mn     0.63497  0.71521  0.14487    Mn
H       0.6476   0.4724    0.095     H
H       0.6554   0.1276   0.8436     H
C       0.6578   0.9371   0.5439     C
C       0.6749   0.4414   0.0258     C
O       0.7216  0.17713   0.5709     O
H         0.73   0.8183   0.7207     H
O       0.7323  0.17264   0.1292     O
C       0.7406   0.3505   0.8418     C
C       0.7594   0.8505   0.6582     C
O       0.7677  0.67264   0.3708     O
H         0.77   0.3183   0.7793     H
O       0.7784  0.67713   0.9291     O
C       0.8251   0.9414   0.4742     C
C       0.8422   0.4371   0.9561     C
H       0.8446   0.6276   0.6564     H
H       0.8524   0.9724    0.405     H
Mn     0.86503  0.21521  0.35513    Mn
C       0.8714   0.3905   0.8659     C
C       0.8854  0.69209   0.4792     C
C       0.8867  0.69626   0.8197     C
H       0.9106   0.5337   0.0895     H
C       0.9214  0.66042    0.655     C
N       0.9245  0.85443   0.5991     N
H       0.9311   0.0952   0.5419     H
H       0.9541   0.3522   0.3391     H
C       0.9557   0.9001   0.5053     C
O       0.9682  0.74248   0.8379     O
O       0.9758  0.73563   0.4517     O
H       0.9838   0.3847   0.8178     H
C       0.9883   0.4786   0.9691     C
