data_I
_chemical_name_common  '/home/zhangsd/repos/MofS-CGCNN/ML/data/TSD/clean_cifs/UFEXEJ_clean'
_cell_length_a  7.00120
_cell_length_b 16.00200
_cell_length_c 16.00200
_cell_angle_alpha 62.08920
_cell_angle_beta  81.61410
_cell_angle_gamma 98.38590
_space_group_name_H-M_alt      'P 1'


loop_
_space_group_symop_operation_xyz
  'x, y, z' 

loop_
_atom_site_label
_atom_site_fract_x
_atom_site_fract_y
_atom_site_fract_z
_atom_site_type_symbol
O          0.0      0.0      0.0     O
Cu         0.0      0.5      0.5    Cu
C       0.0163   0.6488   0.3209     C
O      0.02301    0.295  0.75607     O
O      0.03048  0.92372  0.17498     O
H        0.044   0.1249   0.2844     H
C       0.0544   0.6102   0.0952     C
H       0.0658   0.4883   0.0888     H
H       0.0809   0.4093   0.8751     H
O      0.10447  0.42864  0.61173     O
O      0.10676   0.9013  0.92372     O
Dy     0.13582  0.84684   0.0888    Dy
C        0.142   0.5479   0.0752     C
C       0.1496   0.0952   0.2946     C
H       0.1546   0.0888   0.4229     H
N       0.1572   0.6975   0.0733     N
O      0.20546  0.17498   0.9013     O
C       0.2148   0.6737   0.3389     C
C       0.2172   0.0752   0.3769     C
O      0.22092  0.24393  0.05107     O
Dy     0.22462   0.0888  0.06436    Dy
N       0.2305   0.0733   0.2292     N
N       0.2365   0.6099    0.426     N
O      0.27199  0.05107    0.705     O
O       0.2838  0.38827  0.04037     O
Dy     0.28898  0.06436  0.84684    Dy
O      0.31923     -0.0      0.0     O
O      0.32417  0.04037  0.57136     O
H       0.3284   0.2844   0.5907     H
C       0.3372   0.3209   0.0303     C
N       0.3375    0.574   0.0359     N
C       0.3556   0.7267   0.0299     C
C       0.3675   0.0303   0.6488     C
O      0.36977  0.82149  0.18738     O
C       0.3711   0.7566   0.2733     C
N       0.3734   0.0359   0.3901     N
C       0.3855   0.0299   0.2434     C
C       0.4059   0.6231   0.4521     C
H       0.4225   0.5771   0.5117     H
O      0.44285  0.81262  0.00887     O
C       0.4442   0.2946   0.6102     C
C       0.4463   0.6611   0.0126     C
O      0.45172  0.00887  0.17851     O
C       0.4589   0.0126   0.3263     C
N       0.4597   0.2292   0.6975     N
Cu         0.5      0.5      0.0    Cu
Cu         0.5      1.0      0.5    Cu
N       0.5403   0.7708   0.3025     N
C       0.5411   0.9874   0.6737     C
O      0.54828  0.99113  0.82149     O
C       0.5537   0.3389   0.9874     C
C       0.5558   0.7054   0.3898     C
O      0.55715  0.18738  0.99113     O
H       0.5775   0.4229   0.4883     H
C       0.5941   0.3769   0.5479     C
C       0.6145   0.9701   0.7566     C
N       0.6266   0.9641   0.6099     N
C       0.6289   0.2434   0.7267     C
O      0.63023  0.17851  0.81262     O
C       0.6325   0.9697   0.3512     C
C       0.6444   0.2733   0.9701     C
N       0.6625    0.426   0.9641     N
C       0.6628   0.6791   0.9697     C
H       0.6716   0.7156   0.4093     H
O      0.67583  0.95963  0.42864     O
O      0.68077      1.0      0.0     O
Dy     0.71102  0.93564  0.15316    Dy
O       0.7162  0.61173  0.95963     O
O      0.72801  0.94893    0.295     O
N       0.7635   0.3901    0.574     N
N       0.7695   0.9267   0.7708     N
Dy     0.77538   0.9112  0.93564    Dy
O      0.77908  0.75607  0.94893     O
C       0.7828   0.9248   0.6231     C
C       0.7852   0.3263   0.6611     C
O      0.79454  0.82502   0.0987     O
N       0.8428   0.3025   0.9267     N
H       0.8454   0.9112   0.5771     H
C       0.8504   0.9048   0.7054     C
C        0.858   0.4521   0.9248     C
Dy     0.86418  0.15316   0.9112    Dy
O      0.89324   0.0987  0.07628     O
O      0.89553  0.57136  0.38827     O
H       0.9191   0.5907   0.1249     H
H       0.9342   0.5117   0.9112     H
C       0.9456   0.3898   0.9048     C
H        0.956   0.8751   0.7156     H
O      0.96952  0.07628  0.82502     O
O      0.97699    0.705  0.24393     O
C       0.9837   0.3512   0.6791     C
