data_I
_chemical_name_common  '/home/zhangsd/repos/MofS-CGCNN/ML/data/TSD/clean_cifs/UGOFED_clean'
_cell_length_a  7.44160
_cell_length_b 24.80560
_cell_length_c 30.31400
_cell_angle_alpha 90.00000
_cell_angle_beta  91.63700
_cell_angle_gamma 90.00000
_space_group_name_H-M_alt      'P 1'


loop_
_space_group_symop_operation_xyz
  'x, y, z' 

loop_
_atom_site_label
_atom_site_fract_x
_atom_site_fract_y
_atom_site_fract_z
_atom_site_type_symbol
Cs         0.0  0.24602     0.25    Cs
Fe         0.0  0.33305     0.75    Fe
Fe         0.0      0.5      0.0    Fe
Fe         0.0      0.5      0.5    Fe
Fe         0.0  0.66695     0.25    Fe
Cs         0.0  0.75398     0.75    Cs
H       0.0002   0.0956   0.6132     H
H       0.0002   0.9044   0.1132     H
H       0.0036   0.4055   0.1501     H
H       0.0036   0.5945   0.6501     H
C       0.0052   0.0966    0.179     C
C       0.0052   0.9034    0.679     C
C       0.0054   0.2466   0.6924     C
C       0.0054   0.7534   0.1924     C
C       0.0114   0.1646   0.6481     C
C       0.0114   0.8354   0.1481     C
H       0.0276   0.1442   0.9717     H
H       0.0276   0.8558   0.4717     H
O       0.0292  0.39574  0.70023     O
O       0.0292  0.60426  0.20023     O
H       0.0328   0.1116   0.4546     H
H       0.0328   0.8884   0.9546     H
C       0.0346   0.4293    0.372     C
C       0.0346   0.5707    0.872     C
C       0.0421    0.436  0.08468     C
C       0.0421    0.564  0.58468     C
H       0.0465   0.1168   0.2032     H
H       0.0465   0.8832   0.7032     H
N       0.0475   0.4751  0.43882     N
N       0.0475   0.5249  0.93882     N
C       0.0545   0.0992   0.0269     C
C       0.0545   0.9008   0.5269     C
C       0.0631   0.1268   0.8801     C
C       0.0631   0.8732   0.3801     C
C       0.0639   0.0484  0.11251     C
C       0.0639   0.9516  0.61251     C
H       0.0644   0.3124    0.098     H
H       0.0644   0.6876    0.598     H
C       0.0827   0.2095   0.8408     C
C       0.0827   0.7905   0.3408     C
C       0.0891   0.1173   0.9867     C
C       0.0891   0.8827   0.4867     C
O       0.0931   0.2858  0.79499     O
O       0.0931   0.7142  0.29499     O
C       0.1178   0.0362   0.3923     C
C       0.1178   0.9638   0.8923     C
C       0.1244   0.0775   0.1488     C
C       0.1244   0.9225   0.6488     C
H       0.1269   0.1594   0.6597     H
H       0.1269   0.8406   0.1597     H
H       0.1398    0.453   0.6353     H
H       0.1398    0.547   0.1353     H
O       0.1556   0.2394    0.707     O
O       0.1556   0.7606    0.207     O
H       0.1597   0.0152   0.4157     H
H       0.1597   0.9848   0.9157     H
C       0.1693   0.4651  0.37042     C
C       0.1693   0.5349  0.87042     C
C       0.1757   0.3191   0.1111     C
C       0.1757   0.6809   0.6111     C
C       0.1766   0.0862  0.32609     C
C       0.1766   0.9138  0.82609     C
C       0.1794    0.493  0.41167     C
C       0.1794    0.507  0.91167     C
C       0.1818   0.0579   0.0373     C
C       0.1818   0.9421   0.5373     C
C       0.1882   0.4067   0.0704     C
C       0.1882   0.5933   0.5704     C
H       0.1898   0.2506   0.1472     H
H       0.1898   0.7494   0.6472     H
C       0.1919   0.0318  0.07768     C
C       0.1919   0.9682  0.57768     C
C       0.1948    0.389  0.70425     C
C       0.1948    0.611  0.20425     C
N       0.2092   0.4505  0.99772     N
N       0.2092   0.5495  0.49772     N
C       0.2316   0.1345   0.8994     C
C       0.2316   0.8655   0.3994     C
C       0.2345   0.0858   0.9701     C
C       0.2345   0.9142   0.4701     C
C       0.2374   0.0551   0.3615     C
C       0.2374   0.9449   0.8615     C
H       0.2456   0.4705   0.3468     H
H       0.2456   0.5295   0.8468     H
H       0.2459   0.0849   0.1529     H
H       0.2459   0.9151   0.6529     H
C       0.2465   0.2183   0.8595     C
C       0.2465   0.7817   0.3595     C
O       0.2483  0.14271  0.26544     O
O       0.2483  0.85729  0.76544     O
O       0.2517  0.35729  0.73456     O
O       0.2517  0.64271  0.23456     O
C       0.2535   0.2817   0.1405     C
C       0.2535   0.7183   0.6405     C
H       0.2541   0.4151   0.8471     H
H       0.2541   0.5849   0.3471     H
H       0.2544   0.0295   0.6532     H
H       0.2544   0.9705   0.1532     H
C       0.2626   0.4449   0.6385     C
C       0.2626   0.5551   0.1385     C
C       0.2655   0.4142   0.0299     C
C       0.2655   0.5858   0.5299     C
C       0.2684   0.3655   0.1006     C
C       0.2684   0.6345   0.6006     C
N       0.2908   0.0495  0.00228     N
N       0.2908   0.9505  0.50228     N
C       0.3052    0.111  0.29575     C
C       0.3052    0.889  0.79575     C
C       0.3081   0.4682  0.92232     C
C       0.3081   0.5318  0.42232     C
H       0.3102   0.2494   0.8528     H
H       0.3102   0.7506   0.3528     H
C       0.3118   0.0933   0.9296     C
C       0.3118   0.9067   0.4296     C
C       0.3182   0.4421   0.9627     C
C       0.3182   0.5579   0.4627     C
C       0.3206    0.007  0.58833     C
C       0.3206    0.993  0.08833     C
C       0.3234   0.4138  0.67391     C
C       0.3234   0.5862  0.17391     C
C       0.3243   0.1809   0.8889     C
C       0.3243   0.8191   0.3889     C
C       0.3307   0.0349  0.62958     C
C       0.3307   0.9651  0.12958     C
H       0.3403   0.4848   0.5843     H
H       0.3403   0.5152   0.0843     H
O       0.3444   0.2606    0.293     O
O       0.3444   0.7394    0.793     O
H       0.3602    0.047   0.3647     H
H       0.3602    0.953   0.8647     H
H       0.3731   0.3406   0.3403     H
H       0.3731   0.6594   0.8403     H
C       0.3756   0.4225   0.8512     C
C       0.3756   0.5775   0.3512     C
C       0.3822   0.4638   0.6077     C
C       0.3822   0.5362   0.1077     C
O       0.4069   0.2142  0.20501     O
O       0.4069   0.7858  0.70501     O
C       0.4109   0.3827   0.0133     C
C       0.4109   0.6173   0.5133     C
C       0.4173   0.2905   0.1592     C
C       0.4173   0.7095   0.6592     C
H       0.4356   0.1876    0.902     H
H       0.4356   0.8124    0.402     H
C       0.4361   0.4516  0.88749     C
C       0.4361   0.5484  0.38749     C
C       0.4369   0.3732   0.1199     C
C       0.4369   0.6268   0.6199     C
C       0.4455   0.4008   0.9731     C
C       0.4455   0.5992   0.4731     C
N       0.4525   0.0249  0.56118     N
N       0.4525   0.9751  0.06118     N
H       0.4535   0.3832   0.7968     H
H       0.4535   0.6168   0.2968     H
C       0.4579    0.064  0.91532     C
C       0.4579    0.936  0.41532     C
C       0.4654   0.0707    0.628     C
C       0.4654   0.9293    0.128     C
H       0.4672   0.3884   0.5454     H
H       0.4672   0.6116   0.0454     H
O       0.4708  0.10426  0.29977     O
O       0.4708  0.89574  0.79977     O
H       0.4724   0.3558   0.0283     H
H       0.4724   0.6442   0.5283     H
C       0.4886   0.3354   0.3519     C
C       0.4886   0.6646   0.8519     C
C       0.4946   0.2534   0.3076     C
C       0.4946   0.7466   0.8076     C
C       0.4948   0.4034    0.821     C
C       0.4948   0.5966    0.321     C
H       0.4964   0.0945   0.8499     H
H       0.4964   0.9055   0.3499     H
H       0.4998   0.4044   0.3868     H
H       0.4998   0.5956   0.8868     H
Fe         0.5      0.0      0.0    Fe
Fe         0.5      0.0      0.5    Fe
Fe         0.5  0.16695     0.25    Fe
Cs         0.5  0.25398     0.75    Cs
Cs         0.5  0.74602     0.25    Cs
Fe         0.5  0.83305     0.75    Fe
H       0.5002   0.4044   0.1132     H
H       0.5002   0.5956   0.6132     H
H       0.5036   0.0945   0.6501     H
H       0.5036   0.9055   0.1501     H
C       0.5052   0.4034    0.679     C
C       0.5052   0.5966    0.179     C
C       0.5054   0.2534   0.1924     C
C       0.5054   0.7466   0.6924     C
C       0.5114   0.3354   0.1481     C
C       0.5114   0.6646   0.6481     C
H       0.5276   0.3558   0.4717     H
H       0.5276   0.6442   0.9717     H
O       0.5292  0.10426  0.20023     O
O       0.5292  0.89574  0.70023     O
H       0.5328   0.3884   0.9546     H
H       0.5328   0.6116   0.4546     H
C       0.5346   0.0707    0.872     C
C       0.5346   0.9293    0.372     C
C       0.5421    0.064  0.58468     C
C       0.5421    0.936  0.08468     C
H       0.5465   0.3832   0.7032     H
H       0.5465   0.6168   0.2032     H
N       0.5475   0.0249  0.93882     N
N       0.5475   0.9751  0.43882     N
C       0.5545   0.4008   0.5269     C
C       0.5545   0.5992   0.0269     C
C       0.5631   0.3732   0.3801     C
C       0.5631   0.6268   0.8801     C
C       0.5639   0.4516  0.61251     C
C       0.5639   0.5484  0.11251     C
H       0.5644   0.1876    0.598     H
H       0.5644   0.8124    0.098     H
C       0.5827   0.2905   0.3408     C
C       0.5827   0.7095   0.8408     C
C       0.5891   0.3827   0.4867     C
C       0.5891   0.6173   0.9867     C
O       0.5931   0.2142  0.29499     O
O       0.5931   0.7858  0.79499     O
C       0.6178   0.4638   0.8923     C
C       0.6178   0.5362   0.3923     C
C       0.6244   0.4225   0.6488     C
C       0.6244   0.5775   0.1488     C
H       0.6269   0.3406   0.1597     H
H       0.6269   0.6594   0.6597     H
H       0.6398    0.047   0.1353     H
H       0.6398    0.953   0.6353     H
O       0.6556   0.2606    0.207     O
O       0.6556   0.7394    0.707     O
H       0.6597   0.4848   0.9157     H
H       0.6597   0.5152   0.4157     H
C       0.6693   0.0349  0.87042     C
C       0.6693   0.9651  0.37042     C
C       0.6757   0.1809   0.6111     C
C       0.6757   0.8191   0.1111     C
C       0.6766   0.4138  0.82609     C
C       0.6766   0.5862  0.32609     C
C       0.6794    0.007  0.91167     C
C       0.6794    0.993  0.41167     C
C       0.6818   0.4421   0.5373     C
C       0.6818   0.5579   0.0373     C
C       0.6882   0.0933   0.5704     C
C       0.6882   0.9067   0.0704     C
H       0.6898   0.2494   0.6472     H
H       0.6898   0.7506   0.1472     H
C       0.6919   0.4682  0.57768     C
C       0.6919   0.5318  0.07768     C
C       0.6948    0.111  0.20425     C
C       0.6948    0.889  0.70425     C
N       0.7092   0.0495  0.49772     N
N       0.7092   0.9505  0.99772     N
C       0.7316   0.3655   0.3994     C
C       0.7316   0.6345   0.8994     C
C       0.7345   0.4142   0.4701     C
C       0.7345   0.5858   0.9701     C
C       0.7374   0.4449   0.8615     C
C       0.7374   0.5551   0.3615     C
H       0.7456   0.0295   0.8468     H
H       0.7456   0.9705   0.3468     H
H       0.7459   0.4151   0.6529     H
H       0.7459   0.5849   0.1529     H
C       0.7465   0.2817   0.3595     C
C       0.7465   0.7183   0.8595     C
O       0.7483  0.35729  0.76544     O
O       0.7483  0.64271  0.26544     O
O       0.7517  0.14271  0.23456     O
O       0.7517  0.85729  0.73456     O
C       0.7535   0.2183   0.6405     C
C       0.7535   0.7817   0.1405     C
H       0.7541   0.0849   0.3471     H
H       0.7541   0.9151   0.8471     H
H       0.7544   0.4705   0.1532     H
H       0.7544   0.5295   0.6532     H
C       0.7626   0.0551   0.1385     C
C       0.7626   0.9449   0.6385     C
C       0.7655   0.0858   0.5299     C
C       0.7655   0.9142   0.0299     C
C       0.7684   0.1345   0.6006     C
C       0.7684   0.8655   0.1006     C
N       0.7908   0.4505  0.50228     N
N       0.7908   0.5495  0.00228     N
C       0.8052    0.389  0.79575     C
C       0.8052    0.611  0.29575     C
C       0.8081   0.0318  0.42232     C
C       0.8081   0.9682  0.92232     C
H       0.8102   0.2506   0.3528     H
H       0.8102   0.7494   0.8528     H
C       0.8118   0.4067   0.4296     C
C       0.8118   0.5933   0.9296     C
C       0.8182   0.0579   0.4627     C
C       0.8182   0.9421   0.9627     C
C       0.8206    0.493  0.08833     C
C       0.8206    0.507  0.58833     C
C       0.8234   0.0862  0.17391     C
C       0.8234   0.9138  0.67391     C
C       0.8243   0.3191   0.3889     C
C       0.8243   0.6809   0.8889     C
C       0.8307   0.4651  0.12958     C
C       0.8307   0.5349  0.62958     C
H       0.8403   0.0152   0.0843     H
H       0.8403   0.9848   0.5843     H
O       0.8444   0.2394    0.793     O
O       0.8444   0.7606    0.293     O
H       0.8602    0.453   0.8647     H
H       0.8602    0.547   0.3647     H
H       0.8731   0.1594   0.8403     H
H       0.8731   0.8406   0.3403     H
C       0.8756   0.0775   0.3512     C
C       0.8756   0.9225   0.8512     C
C       0.8822   0.0362   0.1077     C
C       0.8822   0.9638   0.6077     C
O       0.9069   0.2858  0.70501     O
O       0.9069   0.7142  0.20501     O
C       0.9109   0.1173   0.5133     C
C       0.9109   0.8827   0.0133     C
C       0.9173   0.2095   0.6592     C
C       0.9173   0.7905   0.1592     C
H       0.9356   0.3124    0.402     H
H       0.9356   0.6876    0.902     H
C       0.9361   0.0484  0.38749     C
C       0.9361   0.9516  0.88749     C
C       0.9369   0.1268   0.6199     C
C       0.9369   0.8732   0.1199     C
C       0.9455   0.0992   0.4731     C
C       0.9455   0.9008   0.9731     C
N       0.9525   0.4751  0.06118     N
N       0.9525   0.5249  0.56118     N
H       0.9535   0.1168   0.2968     H
H       0.9535   0.8832   0.7968     H
C       0.9579    0.436  0.41532     C
C       0.9579    0.564  0.91532     C
C       0.9654   0.4293    0.128     C
C       0.9654   0.5707    0.628     C
H       0.9672   0.1116   0.0454     H
H       0.9672   0.8884   0.5454     H
O       0.9708  0.39574  0.79977     O
O       0.9708  0.60426  0.29977     O
H       0.9724   0.1442   0.5283     H
H       0.9724   0.8558   0.0283     H
C       0.9886   0.1646   0.8519     C
C       0.9886   0.8354   0.3519     C
C       0.9946   0.2466   0.8076     C
C       0.9946   0.7534   0.3076     C
C       0.9948   0.0966    0.321     C
C       0.9948   0.9034    0.821     C
H       0.9964   0.4055   0.3499     H
H       0.9964   0.5945   0.8499     H
H       0.9998   0.0956   0.8868     H
H       0.9998   0.9044   0.3868     H
