data_I
_chemical_name_common  '/home/zhangsd/repos/MofS-CGCNN/ML/data/TSD/clean_cifs/UGUHEK_clean'
_cell_length_a  8.93990
_cell_length_b 13.69300
_cell_length_c 22.10300
_cell_angle_alpha 90.00000
_cell_angle_beta  90.00000
_cell_angle_gamma 95.46000
_space_group_name_H-M_alt      'P 1'


loop_
_space_group_symop_operation_xyz
  'x, y, z' 

loop_
_atom_site_label
_atom_site_fract_x
_atom_site_fract_y
_atom_site_fract_z
_atom_site_type_symbol
N       0.0055   0.3643   0.7709     N
N       0.0055   0.8643   0.7291     N
N        0.017   0.0149   0.5591     N
N        0.017   0.5149   0.9409     N
Er     0.01716   0.0239  0.67364    Er
Er     0.01716   0.5239  0.82636    Er
N       0.0329   0.1836   0.7272     N
N       0.0329   0.6836   0.7728     N
C       0.0652   0.3052   0.2717     C
C       0.0652   0.8052   0.2283     C
C       0.0714   0.4297   0.0293     C
C       0.0714   0.9297   0.4707     C
C       0.0816   0.2116   0.2928     C
C       0.0816   0.7116   0.2072     C
C       0.0905    0.446   0.9671     C
C       0.0905    0.946   0.5329     C
C       0.1038   0.3533   0.7271     C
C       0.1038   0.8533   0.7729     C
C       0.1193   0.2594   0.7046     C
C       0.1193   0.7594   0.7954     C
C       0.1352   0.3534   0.0703     C
C       0.1352   0.8534   0.4297     C
C       0.1395   0.4034   0.2935     C
C       0.1395   0.9034   0.2065     C
O       0.1507   0.3804   0.1251     O
O       0.1507   0.8804   0.3749     O
O       0.1541   0.4687   0.2525     O
O       0.1541   0.9687   0.2475     O
O       0.1575   0.2722     0.05     O
O       0.1575   0.7722     0.45     O
O       0.1707   0.0977   0.3606     O
O       0.1707   0.5977   0.1394     O
O       0.1708   0.4164   0.3476     O
O       0.1708   0.9164   0.1524     O
O       0.1767   0.4215   0.8684     O
O       0.1767   0.9215   0.6316     O
C       0.1811    0.452    0.706     C
C       0.1811    0.952    0.794     C
C       0.1898   0.3965   0.9231     C
C       0.1898   0.8965   0.5769     C
O       0.1965   0.0163   0.7523     O
O       0.1965   0.5163   0.7477     O
C       0.1983    0.182   0.3377     C
C       0.1983    0.682   0.1623     C
O       0.2026   0.1409   0.6381     O
O       0.2026   0.6409   0.8619     O
O       0.2107   0.4645   0.6521     O
O       0.2107   0.9645   0.8479     O
C       0.2355   0.2268   0.6595     C
C       0.2355   0.7268   0.8405     C
O       0.2812   0.3408   0.9415     O
O       0.2812   0.8408   0.5585     O
O       0.3113   0.2403   0.3457     O
O       0.3113   0.7403   0.1543     O
O       0.3514   0.2806   0.6505     O
O       0.3514   0.7806   0.8495     O
Er      0.4535  0.24456  0.89091    Er
Er      0.4535  0.74456  0.60909    Er
Er      0.5465  0.25544  0.39091    Er
Er      0.5465  0.75544  0.10909    Er
O       0.6486   0.2194   0.1505     O
O       0.6486   0.7194   0.3495     O
O       0.6887   0.2597   0.8457     O
O       0.6887   0.7597   0.6543     O
O       0.7188   0.1592   0.4415     O
O       0.7188   0.6592   0.0585     O
C       0.7645   0.2732   0.1595     C
C       0.7645   0.7732   0.3405     C
O       0.7893   0.0355   0.1521     O
O       0.7893   0.5355   0.3479     O
O       0.7974   0.3591   0.1381     O
O       0.7974   0.8591   0.3619     O
C       0.8017    0.318   0.8377     C
C       0.8017    0.818   0.6623     C
O       0.8035   0.4837   0.2523     O
O       0.8035   0.9837   0.2477     O
C       0.8102   0.1035   0.4231     C
C       0.8102   0.6035   0.0769     C
C       0.8189    0.048    0.206     C
C       0.8189    0.548    0.294     C
O       0.8233   0.0785   0.3684     O
O       0.8233   0.5785   0.1316     O
O       0.8292   0.0836   0.8476     O
O       0.8292   0.5836   0.6524     O
O       0.8293   0.4023   0.8606     O
O       0.8293   0.9023   0.6394     O
O       0.8425   0.2278     0.55     O
O       0.8425   0.7278     0.95     O
O       0.8459   0.0313   0.7525     O
O       0.8459   0.5313   0.7475     O
O       0.8493   0.1196   0.6251     O
O       0.8493   0.6196   0.8749     O
C       0.8605   0.0966   0.7935     C
C       0.8605   0.5966   0.7065     C
C       0.8648   0.1466   0.5703     C
C       0.8648   0.6466   0.9297     C
C       0.8807   0.2406   0.2046     C
C       0.8807   0.7406   0.2954     C
C       0.8962   0.1467   0.2271     C
C       0.8962   0.6467   0.2729     C
C       0.9095    0.054   0.4671     C
C       0.9095    0.554   0.0329     C
C       0.9184   0.2884   0.7928     C
C       0.9184   0.7884   0.7072     C
C       0.9286   0.0703   0.5293     C
C       0.9286   0.5703   0.9707     C
C       0.9348   0.1948   0.7717     C
C       0.9348   0.6948   0.7283     C
N       0.9671   0.3164   0.2272     N
N       0.9671   0.8164   0.2728     N
Er     0.98284   0.4761  0.17365    Er
Er     0.98284   0.9761  0.32636    Er
N        0.983   0.4851   0.0591     N
N        0.983   0.9851   0.4409     N
N       0.9945   0.1357   0.2709     N
N       0.9945   0.6357   0.2291     N
