data_I
_chemical_name_common  '/home/zhangsd/repos/MofS-CGCNN/ML/data/TSD/clean_cifs/UHASED_clean'
_cell_length_a  8.53000
_cell_length_b 11.28000
_cell_length_c 13.91700
_cell_angle_alpha 90.00000
_cell_angle_beta  112.75000
_cell_angle_gamma 90.00000
_space_group_name_H-M_alt      'P 1'


loop_
_space_group_symop_operation_xyz
  'x, y, z' 

loop_
_atom_site_label
_atom_site_fract_x
_atom_site_fract_y
_atom_site_fract_z
_atom_site_type_symbol
H       0.0038   0.5961   0.4543     H
H       0.0038   0.9039   0.9543     H
H       0.0073   0.6278   0.7669     H
H       0.0073   0.8722   0.2669     H
C       0.0478   0.1849   0.7093     C
C       0.0478   0.3151   0.2093     C
C       0.0497   0.1533   0.0958     C
C       0.0497   0.3467   0.5958     C
C       0.0507   0.7317   0.3695     C
C       0.0507   0.7683   0.8695     C
O       0.2087    0.729  0.40361     O
O       0.2087    0.771  0.90361     O
C       0.2188   0.1889   0.7488     C
C       0.2188   0.3111   0.2488     C
C       0.2203    0.162   0.1354     C
C       0.2203    0.338   0.6354     C
O       0.2679    0.018  0.85064     O
O       0.2679    0.482  0.35064     O
O       0.2694   0.0003   0.0451     O
O       0.2694   0.4997   0.5451     O
O       0.3088   0.2372  0.21283     O
O       0.3088   0.2628  0.71283     O
C       0.3284   0.1156   0.8409     C
C       0.3284   0.3844   0.3409     C
C       0.3309   0.0956   0.0912     C
C       0.3309   0.4044   0.5912     C
Cu     0.38358  0.58777  0.46907    Cu
Cu     0.38358  0.91223  0.96907    Cu
O       0.4664   0.1616   0.8994     O
O       0.4664   0.3384   0.3994     O
O       0.4669   0.1443   0.1001     O
O       0.4669   0.3557   0.6001     O
O       0.5331   0.6443   0.3999     O
O       0.5331   0.8557   0.8999     O
O       0.5336   0.6616   0.6006     O
O       0.5336   0.8384   0.1006     O
Cu     0.61642  0.08777  0.03093    Cu
Cu     0.61642  0.41223  0.53093    Cu
C       0.6691   0.5956   0.4088     C
C       0.6691   0.9044   0.9088     C
C       0.6716   0.6156   0.6591     C
C       0.6716   0.8844   0.1591     C
O       0.6912   0.7372  0.28717     O
O       0.6912   0.7628  0.78717     O
O       0.7306   0.5003   0.4549     O
O       0.7306   0.9997   0.9549     O
O       0.7321    0.518  0.64936     O
O       0.7321    0.982  0.14936     O
C       0.7797    0.662   0.3646     C
C       0.7797    0.838   0.8646     C
C       0.7812   0.6889   0.7512     C
C       0.7812   0.8111   0.2512     C
O       0.7913    0.229  0.09639     O
O       0.7913    0.271  0.59639     O
C       0.9493   0.2317   0.1305     C
C       0.9493   0.2683   0.6305     C
C       0.9503   0.6533   0.4042     C
C       0.9503   0.8467   0.9042     C
C       0.9522   0.6849   0.7907     C
C       0.9522   0.8151   0.2907     C
H       0.9927   0.1278   0.7331     H
H       0.9927   0.3722   0.2331     H
H       0.9962   0.0961   0.0457     H
H       0.9962   0.4039   0.5457     H
