data_I
_chemical_name_common  '/home/zhangsd/repos/MofS-CGCNN/ML/data/TSD/clean_cifs/UHIYOB_clean'
_cell_length_a  9.48900
_cell_length_b 13.44100
_cell_length_c 18.52900
_cell_angle_alpha 109.80400
_cell_angle_beta  90.00800
_cell_angle_gamma 107.13500
_space_group_name_H-M_alt      'P 1'


loop_
_space_group_symop_operation_xyz
  'x, y, z' 

loop_
_atom_site_label
_atom_site_fract_x
_atom_site_fract_y
_atom_site_fract_z
_atom_site_type_symbol
H        0.001   0.8476   0.1537     H
H       0.0018   0.4667   0.4372     H
H       0.0071   0.1086   0.3291     H
C       0.0079   0.3932   0.4166     C
C       0.0093   0.1834   0.3549     C
C       0.0139   0.2631   0.9556     C
C       0.0181   0.5676   0.7908     C
C       0.0215   0.4599   0.7238     C
N       0.0298   0.9169   0.0248     N
C       0.0356   0.2288   0.8781     C
H       0.0549   0.4044   0.0503     H
H       0.0574   0.1522    0.559     H
C        0.065   0.7917   0.5803     C
N       0.0654   0.9491   0.5425     N
C        0.066   0.6833   0.5515     C
H        0.067   0.1331   0.0837     H
C       0.0689   0.3765   0.9973     C
C       0.0759   0.1104   0.5065     C
C       0.0814   0.8208   0.0133     C
H       0.0839   0.7838   0.9573     H
C       0.0844   0.2624   0.3275     C
O       0.0873   0.5842   0.3285     O
N       0.0883   0.3682   0.3573     N
O       0.0922      0.4   0.2131     O
C       0.0961   0.1089   0.0308     C
C       0.1121   0.3084   0.8478     C
H       0.1189   0.6609   0.5085     H
O       0.1248   0.4227   0.7281     O
H       0.1269   0.2836   0.7948     H
O       0.1273   0.6116   0.8402     O
H       0.1376   0.2414   0.2845     H
H       0.1385   0.1648   0.4853     H
C       0.1427   0.4472   0.9625     C
C       0.1478   0.8742   0.5453     C
C       0.1481   0.0102   0.0179     C
C       0.1569   0.0325   0.5114     C
N       0.1658   0.4165    0.888     N
H       0.1659    0.834   0.4923     H
H       0.1783   0.1711   0.0261     H
H       0.1807   0.5241   0.9932     H
H       0.1809   0.9938   0.4595     H
H       0.1813   0.9879   0.9658     H
H       0.1841   0.8473   0.0387     H
H       0.2243   0.8985   0.7806     H
Co      0.2301  0.48802  0.31735    Co
H       0.2339   0.0303   0.0562     H
H       0.2438   0.0753   0.8727     H
H       0.2452   0.9183   0.5761     H
H       0.2513   0.0754   0.5454     H
Co      0.2755   0.5234  0.82856    Co
H       0.2806   0.9819   0.2586     H
H       0.2887   0.9701   0.7275     H
H       0.3108   0.1433   0.3637     H
H       0.3157   0.7934   0.6754     H
C       0.3163   0.9356   0.7625     C
H       0.3288   0.4828   0.4765     H
H         0.34   0.1477   0.8262     H
N       0.3422    0.595   0.4281     N
C       0.3461   0.1102   0.8633     C
H       0.3559   0.0563   0.2087     H
C       0.3651   0.5602   0.4853     C
H       0.3678   0.7712   0.9092     H
H       0.3713   0.8737   0.1517     H
C       0.3759   0.0167   0.2419     C
O       0.3759    0.397    0.293     O
H        0.379   0.3241   0.9266     H
O       0.3825   0.5808   0.2626     O
H       0.3851   0.7336   0.4039     H
C       0.3862   0.8512   0.7194     C
C       0.3986   0.7062   0.4436     C
H       0.4006   0.2253   0.3221     H
H       0.4112   0.8147   0.7536     H
C       0.4113   0.1808   0.3536     C
N       0.4131   0.6459   0.9266     N
O       0.4159   0.6042   0.7623     O
N       0.4168   0.0237   0.8299     N
O       0.4172   0.4273   0.7987     O
C       0.4173   0.7515   0.9443     C
C       0.4324   0.1948   0.9379     C
C        0.433   0.3028   0.9588     C
C       0.4393   0.6318   0.5567     C
C       0.4422   0.9278   0.1968     C
H       0.4494   0.6036   0.5964     H
H       0.4595   0.8872   0.2299     H
C       0.4736    0.781   0.5125     C
N       0.4785   0.0956   0.3093     N
C       0.4808   0.4344   0.2569     C
C       0.4823   0.5359   0.2384     C
H       0.4882   0.5463   0.9613     H
C       0.4889   0.6213   0.9746     C
H       0.4911   0.1417   0.4791     H
H       0.4928    0.908   0.0258     H
C        0.493   0.8334   0.0131     C
C       0.4972   0.7414     0.57     C
C       0.5028   0.2586     0.43     C
C        0.507   0.1666   0.9869     C
H       0.5072    0.092   0.9742     H
H       0.5089   0.8583   0.5209     H
C       0.5111   0.3787   0.0254     C
H       0.5118   0.4537   0.0387     H
C       0.5177   0.4641   0.7616     C
C       0.5192   0.5656   0.7431     C
N       0.5215   0.9044   0.6907     N
C       0.5264    0.219   0.4875     C
H       0.5405   0.1128   0.7701     H
H       0.5506   0.3964   0.4036     H
C       0.5578   0.0722   0.8032     C
C       0.5607   0.3682   0.4433     C
C        0.567   0.6972   0.0412     C
C       0.5676   0.8052   0.0621     C
C       0.5827   0.2485   0.0557     C
O       0.5828   0.5727   0.2013     O
N       0.5832   0.9763   0.1701     N
O       0.5841   0.3958   0.2377     O
N       0.5869   0.3541   0.0734     N
C       0.5887   0.8192   0.6464     C
H       0.5888   0.1853   0.2464     H
H       0.5994   0.7747   0.6779     H
C       0.6014   0.2938   0.5564     C
C       0.6138   0.1488   0.2806     C
H       0.6149   0.2664   0.5961     H
O       0.6175   0.4192   0.7374     O
H        0.621   0.6759   0.0734     H
O       0.6241    0.603    0.707     O
C       0.6241   0.9833   0.7581     C
H       0.6287   0.1263   0.8483     H
H       0.6322   0.2288   0.0908     H
C       0.6349   0.4398   0.5147     C
H       0.6441   0.9437   0.7913     H
C       0.6539   0.8898   0.1367     C
N       0.6578    0.405   0.5719     N
H         0.66   0.8523   0.1738     H
H       0.6712   0.5172   0.5235     H
C       0.6837   0.0644   0.2375     C
H       0.6843   0.2066   0.3246     H
H       0.6892   0.8567   0.6363     H
H       0.7113   0.0299   0.2725     H
H       0.7194   0.0181   0.7414     H
Co      0.7245   0.4766  0.17144    Co
H       0.7487   0.9246   0.4546     H
H       0.7548   0.0817   0.4239     H
H       0.7562   0.9247   0.1273     H
H       0.7661   0.9697   0.9438     H
Co      0.7699  0.51198  0.68265    Co
H       0.7757   0.1015   0.2194     H
H       0.8159   0.1527   0.9613     H
H       0.8187   0.0121   0.0342     H
H       0.8191   0.0062   0.5405     H
H       0.8193   0.4759   0.0068     H
H       0.8217   0.8289   0.9739     H
H       0.8341    0.166   0.5077     H
N       0.8342   0.5835    0.112     N
C       0.8431   0.9675   0.4886     C
C       0.8519   0.9898   0.9821     C
C       0.8522   0.1258   0.4547     C
C       0.8573   0.5528   0.0375     C
H       0.8615   0.8352   0.5147     H
H       0.8624   0.7586   0.7155     H
O       0.8727   0.3884   0.1598     O
H       0.8731   0.7164   0.2052     H
O       0.8752   0.5773   0.2719     O
H       0.8811   0.3391   0.4915     H
C       0.8879   0.6916   0.1522     C
C       0.9039   0.8911   0.9692     C
O       0.9078      0.6   0.7869     O
N       0.9117   0.6318   0.6427     N
O       0.9127   0.4158   0.6715     O
C       0.9156   0.7376   0.6725     C
H       0.9161   0.2162   0.0427     H
C       0.9186   0.1792   0.9867     C
C       0.9241   0.8896   0.4935     C
C       0.9311   0.6235   0.0027     C
H        0.933   0.8669   0.9163     H
C        0.934   0.3167   0.4485     C
N       0.9346   0.0509   0.4575     N
C        0.935   0.2083   0.4197     C
H       0.9426   0.8478    0.441     H
H       0.9451   0.5956   0.9497     H
C       0.9644   0.7712   0.1219     C
N       0.9702   0.0831   0.9752     N
C       0.9785   0.5401   0.2762     C
C       0.9819   0.4324   0.2092     C
C       0.9861   0.7369   0.0444     C
C       0.9907   0.8166   0.6451     C
C       0.9921   0.6068   0.5834     C
H       0.9929   0.8914   0.6709     H
H       0.9982   0.5333   0.5628     H
H        0.999   0.1524   0.8463     H
