data_I
_chemical_name_common  '/home/zhangsd/repos/MofS-CGCNN/ML/data/TSD/clean_cifs/UJUPUM_clean'
_cell_length_a 22.38190
_cell_length_b 22.38190
_cell_length_c 22.38190
_cell_angle_alpha 90.00000
_cell_angle_beta  90.00000
_cell_angle_gamma 90.00000
_space_group_name_H-M_alt      'P 1'


loop_
_space_group_symop_operation_xyz
  'x, y, z' 

loop_
_atom_site_label
_atom_site_fract_x
_atom_site_fract_y
_atom_site_fract_z
_atom_site_type_symbol
Zn         0.0     0.25    0.375    Zn
Zn         0.0     0.75    0.125    Zn
H       0.0078   0.0715   0.8161     H
H       0.0078   0.9285   0.6839     H
C       0.0079    0.349   0.4664     C
C       0.0079    0.651   0.0336     C
H       0.0096   0.4372   0.8834     H
H       0.0096   0.5628   0.6166     H
N       0.0102   0.0513    0.616     N
N       0.0102   0.9487    0.884     N
C        0.021   0.0565   0.8541     C
C        0.021   0.9435   0.6459     C
N       0.0334   0.3129   0.4267     N
N       0.0334   0.6871   0.0733     N
C       0.0336   0.0079    0.651     C
C       0.0336   0.9921    0.849     C
N       0.0379   0.1008   0.6278     N
N       0.0379   0.8992   0.8722     N
N       0.0513    0.384   0.4898     N
N       0.0513    0.616   0.0102     N
Zn     0.05323  0.44677  0.55323    Zn
Zn     0.05323  0.55323  0.94677    Zn
C       0.0565   0.1459    0.479     C
C       0.0565   0.8541    0.021     C
H       0.0567   0.0772    0.866     H
H       0.0567   0.9228    0.634     H
H       0.0628   0.1166   0.5096     H
H       0.0628   0.8834   0.9904     H
N       0.0629   0.2166   0.3233     N
N       0.0629   0.7834   0.1767     N
H       0.0661   0.3215   0.2578     H
H       0.0661   0.6785   0.2422     H
H       0.0715   0.1839   0.4922     H
H       0.0715   0.8161   0.0078     H
N       0.0733   0.0334   0.6871     N
N       0.0733   0.9666   0.8129     N
N       0.0736   0.0926   0.6722     N
N       0.0736   0.9074   0.8278     N
H       0.0772    0.134   0.4433     H
H       0.0772    0.866   0.0567     H
N       0.0778   0.1574   0.3236     N
N       0.0778   0.8426   0.1764     N
N       0.0926   0.3278   0.4264     N
N       0.0926   0.6722   0.0736     N
C        0.099   0.2421   0.2836     C
C        0.099   0.7579   0.2164     C
N       0.1008   0.3722   0.4621     N
N       0.1008   0.6278   0.0379     N
C       0.1041   0.3065    0.271     C
C       0.1041   0.6935    0.229     C
H        0.116   0.3272   0.3067     H
N        0.116   0.4898   0.9487     N
N        0.116   0.5102   0.5513     N
H        0.116   0.6728   0.1933     H
H       0.1166   0.4904   0.4372     H
H       0.1166   0.5096   0.0628     H
N       0.1222   0.1492   0.2879     N
N       0.1222   0.8508   0.2121     N
Zn       0.125      0.0     0.75    Zn
N       0.1278   0.4621   0.8992     N
N       0.1278   0.5379   0.6008     N
H       0.1334   0.3128   0.2404     H
H       0.1334   0.6872   0.2596     H
N        0.134   0.1987   0.2602     N
H        0.134   0.4433   0.0772     H
H        0.134   0.5567   0.4228     H
N        0.134   0.8013   0.2398     N
C       0.1459    0.479   0.0565     C
C       0.1459    0.521   0.4435     C
N       0.1492   0.2879   0.1222     N
N       0.1492   0.7121   0.3778     N
C        0.151   0.4664   0.9921     C
C        0.151   0.5336   0.5079     C
N       0.1574   0.3236   0.0778     N
N       0.1574   0.6764   0.4222     N
N       0.1722   0.4264   0.9074     N
N       0.1722   0.5736   0.5926     N
H       0.1728   0.3067    0.884     H
H       0.1728   0.6933    0.616     H
N       0.1764   0.0778   0.8426     N
N       0.1764   0.9222   0.6574     N
N       0.1767   0.0629   0.7834     N
N       0.1767   0.9371   0.7166     N
H       0.1785   0.2578   0.9339     H
H       0.1785   0.7422   0.5661     H
H       0.1839   0.4922   0.0715     H
H       0.1839   0.5078   0.4285     H
N       0.1871   0.4267   0.9666     N
N       0.1871   0.5733   0.5334     N
H       0.1872   0.2404   0.8666     H
H       0.1872   0.7596   0.6334     H
H       0.1933    0.116   0.6728     H
H       0.1933    0.884   0.8272     H
C       0.1935    0.271   0.8959     C
C       0.1935    0.729   0.6041     C
Zn     0.19677  0.19677  0.19677    Zn
Zn     0.19677  0.80323  0.30323    Zn
N       0.1987   0.2602    0.134     N
N       0.1987   0.7398    0.366     N
N       0.2121   0.1222   0.8508     N
N       0.2121   0.8778   0.6492     N
C       0.2164    0.099   0.7579     C
C       0.2164    0.901   0.7421     C
N       0.2166   0.3233   0.0629     N
N       0.2166   0.6767   0.4371     N
C        0.229   0.1041   0.6935     C
C        0.229   0.8959   0.8065     C
N       0.2398    0.134   0.8013     N
N       0.2398    0.866   0.6987     N
H       0.2404   0.1334   0.3128     H
H       0.2404   0.8666   0.1872     H
C       0.2421   0.2836    0.099     C
C       0.2421   0.7164    0.401     C
H       0.2422   0.0661   0.6785     H
H       0.2422   0.9339   0.8215     H
Zn        0.25    0.375      0.0    Zn
Zn        0.25    0.625      0.5    Zn
H       0.2578   0.0661   0.3215     H
H       0.2578   0.9339   0.1785     H
C       0.2579   0.2836    0.901     C
C       0.2579   0.7164    0.599     C
H       0.2596   0.1334   0.6872     H
H       0.2596   0.8666   0.8128     H
N       0.2602    0.134   0.1987     N
N       0.2602    0.866   0.3013     N
C        0.271   0.1041   0.3065     C
C        0.271   0.8959   0.1935     C
N       0.2834   0.3233   0.9371     N
N       0.2834   0.6767   0.5629     N
C       0.2836    0.099   0.2421     C
C       0.2836    0.901   0.2579     C
N       0.2879   0.1222   0.1492     N
N       0.2879   0.8778   0.3508     N
N       0.3013   0.2602    0.866     N
N       0.3013   0.7398    0.634     N
Zn     0.30323  0.19677  0.80323    Zn
Zn     0.30323  0.80323  0.69677    Zn
C       0.3065    0.271   0.1041     C
C       0.3065    0.729   0.3959     C
H       0.3067    0.116   0.3272     H
H       0.3067    0.884   0.1728     H
H       0.3128   0.2404   0.1334     H
H       0.3128   0.7596   0.3666     H
N       0.3129   0.4267   0.0334     N
N       0.3129   0.5733   0.4666     N
H       0.3161   0.4922   0.9285     H
H       0.3161   0.5078   0.5715     H
H       0.3215   0.2578   0.0661     H
H       0.3215   0.7422   0.4339     H
N       0.3233   0.0629   0.2166     N
N       0.3233   0.9371   0.2834     N
N       0.3236   0.0778   0.1574     N
N       0.3236   0.9222   0.3426     N
H       0.3272   0.3067    0.116     H
H       0.3272   0.6933    0.384     H
N       0.3278   0.4264   0.0926     N
N       0.3278   0.5736   0.4074     N
N       0.3426   0.3236   0.9222     N
N       0.3426   0.6764   0.5778     N
C        0.349   0.4664   0.0079     C
C        0.349   0.5336   0.4921     C
N       0.3508   0.2879   0.8778     N
N       0.3508   0.7121   0.6222     N
C       0.3541    0.479   0.9435     C
C       0.3541    0.521   0.5565     C
N        0.366   0.1987   0.7398     N
H        0.366   0.4433   0.9228     H
H        0.366   0.5567   0.5772     H
N        0.366   0.8013   0.7602     N
H       0.3666   0.3128   0.7596     H
H       0.3666   0.6872   0.7404     H
N       0.3722   0.4621   0.1008     N
N       0.3722   0.5379   0.3992     N
Zn       0.375      0.0     0.25    Zn
N       0.3778   0.1492   0.7121     N
N       0.3778   0.8508   0.7879     N
H       0.3834   0.4904   0.5628     H
H       0.3834   0.5096   0.9372     H
H        0.384   0.3272   0.6933     H
N        0.384   0.4898   0.0513     N
N        0.384   0.5102   0.4487     N
H        0.384   0.6728   0.8067     H
C       0.3959   0.3065    0.729     C
C       0.3959   0.6935    0.771     C
N       0.3992   0.3722   0.5379     N
N       0.3992   0.6278   0.9621     N
C        0.401   0.2421   0.7164     C
C        0.401   0.7579   0.7836     C
N       0.4074   0.3278   0.5736     N
N       0.4074   0.6722   0.9264     N
N       0.4222   0.1574   0.6764     N
N       0.4222   0.8426   0.8236     N
H       0.4228    0.134   0.5567     H
H       0.4228    0.866   0.9433     H
N       0.4264   0.0926   0.3278     N
N       0.4264   0.9074   0.1722     N
N       0.4267   0.0334   0.3129     N
N       0.4267   0.9666   0.1871     N
H       0.4285   0.1839   0.5078     H
H       0.4285   0.8161   0.9922     H
H       0.4339   0.3215   0.7422     H
H       0.4339   0.6785   0.7578     H
N       0.4371   0.2166   0.6767     N
N       0.4371   0.7834   0.8233     N
H       0.4372   0.1166   0.4904     H
H       0.4372   0.8834   0.0096     H
H       0.4433   0.0772    0.134     H
H       0.4433   0.9228    0.366     H
C       0.4435   0.1459    0.521     C
C       0.4435   0.8541    0.979     C
Zn     0.44677  0.44677  0.44677    Zn
Zn     0.44677  0.55323  0.05323    Zn
N       0.4487    0.384   0.5102     N
N       0.4487    0.616   0.9898     N
N       0.4621   0.1008   0.3722     N
N       0.4621   0.8992   0.1278     N
C       0.4664   0.0079    0.349     C
C       0.4664   0.9921    0.151     C
N       0.4666   0.3129   0.5733     N
N       0.4666   0.6871   0.9267     N
C        0.479   0.0565   0.1459     C
C        0.479   0.9435   0.3541     C
N       0.4898   0.0513    0.384     N
N       0.4898   0.9487    0.116     N
H       0.4904   0.4372   0.1166     H
H       0.4904   0.5628   0.3834     H
C       0.4921    0.349   0.5336     C
C       0.4921    0.651   0.9664     C
H       0.4922   0.0715   0.1839     H
H       0.4922   0.9285   0.3161     H
Zn         0.5     0.25    0.625    Zn
Zn         0.5     0.75    0.875    Zn
H       0.5078   0.4285   0.1839     H
H       0.5078   0.5715   0.3161     H
C       0.5079    0.151   0.5336     C
C       0.5079    0.849   0.9664     C
H       0.5096   0.0628   0.1166     H
H       0.5096   0.9372   0.3834     H
N       0.5102   0.4487    0.384     N
N       0.5102   0.5513    0.116     N
C        0.521   0.4435   0.1459     C
C        0.521   0.5565   0.3541     C
N       0.5334   0.1871   0.5733     N
N       0.5334   0.8129   0.9267     N
C       0.5336   0.4921    0.349     C
C       0.5336   0.5079    0.151     C
N       0.5379   0.3992   0.3722     N
N       0.5379   0.6008   0.1278     N
N       0.5513    0.116   0.5102     N
N       0.5513    0.884   0.9898     N
Zn     0.55323  0.05323  0.44677    Zn
Zn     0.55323  0.94677  0.05323    Zn
C       0.5565   0.3541    0.521     C
C       0.5565   0.6459    0.979     C
H       0.5567   0.4228    0.134     H
H       0.5567   0.5772    0.366     H
H       0.5628   0.3834   0.4904     H
H       0.5628   0.6166   0.0096     H
N       0.5629   0.2834   0.6767     N
N       0.5629   0.7166   0.8233     N
H       0.5661   0.1785   0.7422     H
H       0.5661   0.8215   0.7578     H
H       0.5715   0.3161   0.5078     H
H       0.5715   0.6839   0.9922     H
N       0.5733   0.4666   0.3129     N
N       0.5733   0.5334   0.1871     N
N       0.5736   0.4074   0.3278     N
N       0.5736   0.5926   0.1722     N
H       0.5772    0.366   0.5567     H
H       0.5772    0.634   0.9433     H
N       0.5778   0.3426   0.6764     N
N       0.5778   0.6574   0.8236     N
N       0.5926   0.1722   0.5736     N
N       0.5926   0.8278   0.9264     N
C        0.599   0.2579   0.7164     C
C        0.599   0.7421   0.7836     C
N       0.6008   0.1278   0.5379     N
N       0.6008   0.8722   0.9621     N
C       0.6041   0.1935    0.729     C
C       0.6041   0.8065    0.771     C
N        0.616   0.0102   0.0513     N
H        0.616   0.1728   0.6933     H
H        0.616   0.8272   0.8067     H
N        0.616   0.9898   0.4487     N
H       0.6166   0.0096   0.5628     H
H       0.6166   0.9904   0.9372     H
N       0.6222   0.3508   0.7121     N
N       0.6222   0.6492   0.7879     N
Zn       0.625      0.5     0.25    Zn
N       0.6278   0.0379   0.1008     N
N       0.6278   0.9621   0.3992     N
H       0.6334   0.1872   0.7596     H
H       0.6334   0.8128   0.7404     H
H        0.634   0.0567   0.9228     H
N        0.634   0.3013   0.7398     N
N        0.634   0.6987   0.7602     N
H        0.634   0.9433   0.5772     H
C       0.6459    0.021   0.9435     C
C       0.6459    0.979   0.5565     C
N       0.6492   0.2121   0.8778     N
N       0.6492   0.7879   0.6222     N
C        0.651   0.0336   0.0079     C
C        0.651   0.9664   0.4921     C
N       0.6574   0.1764   0.9222     N
N       0.6574   0.8236   0.5778     N
N       0.6722   0.0736   0.0926     N
N       0.6722   0.9264   0.4074     N
H       0.6728   0.1933    0.116     H
H       0.6728   0.8067    0.384     H
N       0.6764   0.4222   0.1574     N
N       0.6764   0.5778   0.3426     N
N       0.6767   0.4371   0.2166     N
N       0.6767   0.5629   0.2834     N
H       0.6785   0.2422   0.0661     H
H       0.6785   0.7578   0.4339     H
H       0.6839   0.0078   0.9285     H
H       0.6839   0.9922   0.5715     H
N       0.6871   0.0733   0.0334     N
N       0.6871   0.9267   0.4666     N
H       0.6872   0.2596   0.1334     H
H       0.6872   0.7404   0.3666     H
H       0.6933    0.384   0.3272     H
H       0.6933    0.616   0.1728     H
C       0.6935    0.229   0.1041     C
C       0.6935    0.771   0.3959     C
Zn     0.69677  0.30323  0.80323    Zn
Zn     0.69677  0.69677  0.69677    Zn
N       0.6987   0.2398    0.866     N
N       0.6987   0.7602    0.634     N
N       0.7121   0.3778   0.1492     N
N       0.7121   0.6222   0.3508     N
C       0.7164    0.401   0.2421     C
C       0.7164    0.599   0.2579     C
N       0.7166   0.1767   0.9371     N
N       0.7166   0.8233   0.5629     N
C        0.729   0.3959   0.3065     C
C        0.729   0.6041   0.1935     C
N       0.7398    0.366   0.1987     N
N       0.7398    0.634   0.3013     N
H       0.7404   0.3666   0.6872     H
H       0.7404   0.6334   0.8128     H
C       0.7421   0.2164    0.901     C
C       0.7421   0.7836    0.599     C
H       0.7422   0.4339   0.3215     H
H       0.7422   0.5661   0.1785     H
Zn        0.75    0.125      0.0    Zn
Zn        0.75    0.875      0.5    Zn
H       0.7578   0.4339   0.6785     H
H       0.7578   0.5661   0.8215     H
C       0.7579   0.2164    0.099     C
C       0.7579   0.7836    0.401     C
H       0.7596   0.3666   0.3128     H
H       0.7596   0.6334   0.1872     H
N       0.7602    0.366   0.8013     N
N       0.7602    0.634   0.6987     N
C        0.771   0.3959   0.6935     C
C        0.771   0.6041   0.8065     C
N       0.7834   0.1767   0.0629     N
N       0.7834   0.8233   0.4371     N
C       0.7836    0.401   0.7579     C
C       0.7836    0.599   0.7421     C
N       0.7879   0.3778   0.8508     N
N       0.7879   0.6222   0.6492     N
N       0.8013   0.2398    0.134     N
N       0.8013   0.7602    0.366     N
Zn     0.80323  0.30323  0.19677    Zn
Zn     0.80323  0.69677  0.30323    Zn
C       0.8065    0.229   0.8959     C
C       0.8065    0.771   0.6041     C
H       0.8067    0.384   0.6728     H
H       0.8067    0.616   0.8272     H
H       0.8128   0.2596   0.8666     H
H       0.8128   0.7404   0.6334     H
N       0.8129   0.0733   0.9666     N
N       0.8129   0.9267   0.5334     N
H       0.8161   0.0078   0.0715     H
H       0.8161   0.9922   0.4285     H
H       0.8215   0.2422   0.9339     H
H       0.8215   0.7578   0.5661     H
N       0.8233   0.4371   0.7834     N
N       0.8233   0.5629   0.7166     N
N       0.8236   0.4222   0.8426     N
N       0.8236   0.5778   0.6574     N
H       0.8272   0.1933    0.884     H
H       0.8272   0.8067    0.616     H
N       0.8278   0.0736   0.9074     N
N       0.8278   0.9264   0.5926     N
N       0.8426   0.1764   0.0778     N
N       0.8426   0.8236   0.4222     N
C        0.849   0.0336   0.9921     C
C        0.849   0.9664   0.5079     C
N       0.8508   0.2121   0.1222     N
N       0.8508   0.7879   0.3778     N
C       0.8541    0.021   0.0565     C
C       0.8541    0.979   0.4435     C
H        0.866   0.0567   0.0772     H
N        0.866   0.3013   0.2602     N
N        0.866   0.6987   0.2398     N
H        0.866   0.9433   0.4228     H
H       0.8666   0.1872   0.2404     H
H       0.8666   0.8128   0.2596     H
N       0.8722   0.0379   0.8992     N
N       0.8722   0.9621   0.6008     N
Zn       0.875      0.5     0.75    Zn
N       0.8778   0.3508   0.2879     N
N       0.8778   0.6492   0.2121     N
H       0.8834   0.0096   0.4372     H
H       0.8834   0.9904   0.0628     H
N        0.884   0.0102   0.9487     N
H        0.884   0.1728   0.3067     H
H        0.884   0.8272   0.1933     H
N        0.884   0.9898   0.5513     N
C       0.8959   0.1935    0.271     C
C       0.8959   0.8065    0.229     C
N       0.8992   0.1278   0.4621     N
N       0.8992   0.8722   0.0379     N
C        0.901   0.2579   0.2836     C
C        0.901   0.7421   0.2164     C
N       0.9074   0.1722   0.4264     N
N       0.9074   0.8278   0.0736     N
N       0.9222   0.3426   0.3236     N
N       0.9222   0.6574   0.1764     N
H       0.9228    0.366   0.4433     H
H       0.9228    0.634   0.0567     H
N       0.9264   0.4074   0.6722     N
N       0.9264   0.5926   0.8278     N
N       0.9267   0.4666   0.6871     N
N       0.9267   0.5334   0.8129     N
H       0.9285   0.3161   0.4922     H
H       0.9285   0.6839   0.0078     H
H       0.9339   0.1785   0.2578     H
H       0.9339   0.8215   0.2422     H
N       0.9371   0.2834   0.3233     N
N       0.9371   0.7166   0.1767     N
H       0.9372   0.3834   0.5096     H
H       0.9372   0.6166   0.9904     H
H       0.9433   0.4228    0.866     H
H       0.9433   0.5772    0.634     H
C       0.9435   0.3541    0.479     C
C       0.9435   0.6459    0.021     C
Zn     0.94677  0.05323  0.55323    Zn
Zn     0.94677  0.94677  0.94677    Zn
N       0.9487    0.116   0.4898     N
N       0.9487    0.884   0.0102     N
N       0.9621   0.3992   0.6278     N
N       0.9621   0.6008   0.8722     N
C       0.9664   0.4921    0.651     C
C       0.9664   0.5079    0.849     C
N       0.9666   0.1871   0.4267     N
N       0.9666   0.8129   0.0733     N
C        0.979   0.4435   0.8541     C
C        0.979   0.5565   0.6459     C
N       0.9898   0.4487    0.616     N
N       0.9898   0.5513    0.884     N
H       0.9904   0.0628   0.8834     H
H       0.9904   0.9372   0.6166     H
C       0.9921    0.151   0.4664     C
C       0.9921    0.849   0.0336     C
H       0.9922   0.4285   0.8161     H
H       0.9922   0.5715   0.6839     H
