data_I
_chemical_name_common  '/home/zhangsd/repos/MofS-CGCNN/ML/data/TSD/clean_cifs/UKUBIM_clean'
_cell_length_a 12.27310
_cell_length_b 12.27310
_cell_length_c 25.13500
_cell_angle_alpha 90.00000
_cell_angle_beta  90.00000
_cell_angle_gamma 90.00000
_space_group_name_H-M_alt      'P 1'


loop_
_space_group_symop_operation_xyz
  'x, y, z' 

loop_
_atom_site_label
_atom_site_fract_x
_atom_site_fract_y
_atom_site_fract_z
_atom_site_type_symbol
H       0.0002   0.0564    0.566     H
H       0.0046   0.3665    0.259     H
H       0.0087   0.2708   0.0525     H
C       0.0103   0.6847   0.4466     C
C       0.0146   0.1254   0.5524     C
C        0.016   0.3074   0.2814     C
C       0.0249   0.8711   0.6897     C
C       0.0373   0.7839  0.42728     C
H       0.0403   0.6213   0.4327     H
S      0.04178  0.22386  0.07846     S
C       0.0461   0.7852  0.72319     C
H       0.0564   0.4998    0.934     H
C       0.0579   0.1401  0.34754     C
C       0.0644   0.3184   0.5116     C
H       0.0648    0.565   0.1919     H
H        0.065   0.9352   0.6919     H
H        0.073    0.081   0.3694     H
H        0.077   0.3783   0.0023     H
H       0.0806   0.3863   0.4972     H
H        0.081    0.427   0.1306     H
C       0.0882   0.1388   0.5115     C
H       0.0921   0.6932   0.8144     H
C       0.0962    0.311   0.3203     C
H       0.1017   0.6735   0.3391     H
O       0.1092   0.8025   0.3871     O
H       0.1137   0.0806   0.0028     H
N       0.1138   0.2332  0.49086     N
N       0.1172   0.2302  0.35394     N
H       0.1213   0.9597   0.9327     H
H       0.1217    0.077   0.4977     H
C       0.1254   0.4854   0.9476     C
H        0.126   0.1379   0.1771     H
O       0.1277   0.7993  0.75742     O
C       0.1289   0.5249   0.1897     C
H       0.1335   0.0046    0.241     H
H       0.1379    0.374   0.3229     H
C       0.1388   0.4118   0.9885     C
C       0.1401   0.4421  0.15246     C
H       0.1477   0.8247   0.2722     H
C       0.1544   0.7117  0.79247     C
C       0.1557   0.7091  0.36132     C
H       0.1572   0.8185   0.8876     H
H       0.1735   0.8983   0.8391     H
H       0.1753   0.6477   0.7722     H
H       0.1815   0.6572   0.3876     H
C       0.1816   0.0644   0.9884     C
C       0.1847   0.9897   0.9466     C
C        0.189   0.0962   0.1797     C
C       0.1926    0.016   0.2186     C
H       0.1932   0.9079   0.3144     H
O       0.1975   0.6092   0.8871     O
O       0.2007   0.6277  0.25742     O
C       0.2091   0.8443  0.86132     C
C       0.2117   0.8456  0.29247     C
C       0.2148   0.5461  0.22319     C
C       0.2161   0.5373  0.92728     C
S      0.22386  0.45822  0.42154     S
H       0.2292   0.0087   0.4475     H
N       0.2302   0.3828  0.14606     N
N       0.2332   0.3862  0.00914     N
Cd        0.25     0.25  0.07678    Cd
Cd        0.25     0.25  0.42322    Cd
C         0.25     0.75   0.3275     C
C         0.25     0.75   0.8275     C
N       0.2668   0.1138  0.00914     N
N       0.2698   0.1172  0.14606     N
H       0.2708   0.4913   0.4475     H
S      0.27614  0.04178  0.42154     S
C       0.2839   0.9627  0.92728     C
C       0.2852   0.9539  0.22319     C
C       0.2883   0.6544  0.29247     C
C       0.2909   0.6557  0.86132     C
O       0.2993   0.8723  0.25742     O
O       0.3025   0.8908   0.8871     O
H       0.3068   0.5921   0.3144     H
C       0.3074    0.484   0.2186     C
C        0.311   0.4038   0.1797     C
C       0.3153   0.5103   0.9466     C
C       0.3184   0.4356   0.9884     C
H       0.3185   0.8428   0.3876     H
H       0.3247   0.8523   0.7722     H
H       0.3265   0.6017   0.8391     H
H       0.3428   0.6815   0.8876     H
C       0.3443   0.7909  0.36132     C
C       0.3456   0.7883  0.79247     C
H       0.3523   0.6753   0.2722     H
C       0.3599   0.0579  0.15246     C
C       0.3612   0.0882   0.9885     C
H       0.3621    0.126   0.3229     H
H       0.3665   0.4954    0.241     H
C       0.3711   0.9751   0.1897     C
O       0.3723   0.7007  0.75742     O
H        0.374   0.3621   0.1771     H
C       0.3746   0.0146   0.9476     C
H       0.3783    0.423   0.4977     H
H       0.3787   0.5403   0.9327     H
N       0.3828   0.2698  0.35394     N
N       0.3862   0.2668  0.49086     N
H       0.3863   0.4194   0.0028     H
O       0.3908   0.6975   0.3871     O
H       0.3983   0.8265   0.3391     H
C       0.4038    0.189   0.3203     C
H       0.4079   0.8068   0.8144     H
C       0.4118   0.3612   0.5115     C
H        0.419    0.073   0.1306     H
H       0.4194   0.1137   0.4972     H
H        0.423   0.1217   0.0023     H
H        0.427    0.419   0.3694     H
H        0.435   0.5648   0.6919     H
H       0.4352    0.935   0.1919     H
C       0.4356   0.1816   0.5116     C
C       0.4421   0.3599  0.34754     C
H       0.4436   0.0002    0.934     H
C       0.4539   0.7148  0.72319     C
S      0.45822  0.27614  0.07846     S
H       0.4597   0.8787   0.4327     H
C       0.4627   0.7161  0.42728     C
C       0.4751   0.6289   0.6897     C
C        0.484   0.1926   0.2814     C
C       0.4854   0.3746   0.5524     C
C       0.4897   0.8153   0.4466     C
H       0.4913   0.2292   0.0525     H
H       0.4954   0.1335    0.259     H
H       0.4998   0.4436    0.566     H
H       0.5002   0.5564    0.434     H
H       0.5046   0.8665    0.741     H
H       0.5087   0.7708   0.9475     H
C       0.5103   0.1847   0.5534     C
C       0.5146   0.6254   0.4476     C
C        0.516   0.8074   0.7186     C
C       0.5249   0.3711   0.3103     C
C       0.5373   0.2839  0.57272     C
H       0.5403   0.1213   0.5673     H
S      0.54178  0.72386  0.92154     S
C       0.5461   0.2852  0.27681     C
H       0.5564   0.9998    0.066     H
C       0.5579   0.6401  0.65246     C
C       0.5644   0.8184   0.4884     C
H       0.5648    0.065   0.8081     H
H        0.565   0.4352   0.3081     H
H        0.573    0.581   0.6306     H
H        0.577   0.8783   0.9977     H
H       0.5806   0.8863   0.5028     H
H        0.581    0.927   0.8694     H
C       0.5882   0.6388   0.4885     C
H       0.5921   0.1932   0.1856     H
C       0.5962    0.811   0.6797     C
H       0.6017   0.1735   0.6609     H
O       0.6092   0.3025   0.6129     O
H       0.6137   0.5806   0.9972     H
N       0.6138   0.7332  0.50914     N
N       0.6172   0.7302  0.64606     N
H       0.6213   0.4597   0.0673     H
H       0.6217    0.577   0.5023     H
C       0.6254   0.9854   0.0524     C
H        0.626   0.6379   0.8229     H
O       0.6277   0.2993  0.24258     O
C       0.6289   0.0249   0.8103     C
H       0.6335   0.5046    0.759     H
H       0.6379    0.874   0.6771     H
C       0.6388   0.9118   0.0115     C
C       0.6401   0.9421  0.84754     C
H       0.6477   0.3247   0.7278     H
C       0.6544   0.2117  0.20753     C
C       0.6557   0.2091  0.63868     C
H       0.6572   0.3185   0.1124     H
H       0.6735   0.3983   0.1609     H
H       0.6753   0.1477   0.2278     H
H       0.6815   0.1572   0.6124     H
C       0.6816   0.5644   0.0116     C
C       0.6847   0.4897   0.0534     C
C        0.689   0.5962   0.8203     C
C       0.6926    0.516   0.7814     C
H       0.6932   0.4079   0.6856     H
O       0.6975   0.1092   0.1129     O
O       0.7007   0.1277  0.74258     O
C       0.7091   0.3443  0.13868     C
C       0.7117   0.3456  0.70753     C
C       0.7148   0.0461  0.77681     C
C       0.7161   0.0373  0.07272     C
S      0.72386  0.95822  0.57846     S
H       0.7292   0.5087   0.5525     H
N       0.7302   0.8828  0.85394     N
N       0.7332   0.8862  0.99086     N
C         0.75     0.25   0.1725     C
C         0.75     0.25   0.6725     C
Cd        0.75     0.75  0.57678    Cd
Cd        0.75     0.75  0.92322    Cd
N       0.7668   0.6138  0.99086     N
N       0.7698   0.6172  0.85394     N
H       0.7708   0.9913   0.5525     H
S      0.77614  0.54178  0.57846     S
C       0.7839   0.4627  0.07272     C
C       0.7852   0.4539  0.77681     C
C       0.7883   0.1544  0.70753     C
C       0.7909   0.1557  0.13868     C
O       0.7993   0.3723  0.74258     O
O       0.8025   0.3908   0.1129     O
H       0.8068   0.0921   0.6856     H
C       0.8074    0.984   0.7814     C
C        0.811   0.9038   0.8203     C
C       0.8153   0.0103   0.0534     C
C       0.8184   0.9356   0.0116     C
H       0.8185   0.3428   0.6124     H
H       0.8247   0.3523   0.2278     H
H       0.8265   0.1017   0.1609     H
H       0.8428   0.1815   0.1124     H
C       0.8443   0.2909  0.63868     C
C       0.8456   0.2883  0.20753     C
H       0.8523   0.1753   0.7278     H
C       0.8599   0.5579  0.84754     C
C       0.8612   0.5882   0.0115     C
H       0.8621    0.626   0.6771     H
H       0.8665   0.9954    0.759     H
C       0.8711   0.4751   0.8103     C
O       0.8723   0.2007  0.24258     O
H        0.874   0.8621   0.8229     H
C       0.8746   0.5146   0.0524     C
H       0.8783    0.923   0.5023     H
H       0.8787   0.0403   0.0673     H
N       0.8828   0.7698  0.64606     N
N       0.8862   0.7668  0.50914     N
H       0.8863   0.9194   0.9972     H
O       0.8908   0.1975   0.6129     O
H       0.8983   0.3265   0.6609     H
C       0.9038    0.689   0.6797     C
H       0.9079   0.3068   0.1856     H
C       0.9118   0.8612   0.4885     C
H        0.919    0.573   0.8694     H
H       0.9194   0.6137   0.5028     H
H        0.923   0.6217   0.9977     H
H        0.927    0.919   0.6306     H
H        0.935   0.0648   0.3081     H
H       0.9352    0.435   0.8081     H
C       0.9356   0.6816   0.4884     C
C       0.9421   0.8599  0.65246     C
H       0.9436   0.5002    0.066     H
C       0.9539   0.2148  0.27681     C
S      0.95822  0.77614  0.92154     S
H       0.9597   0.3787   0.5673     H
C       0.9627   0.2161  0.57272     C
C       0.9751   0.1289   0.3103     C
C        0.984   0.6926   0.7186     C
C       0.9854   0.8746   0.4476     C
C       0.9897   0.3153   0.5534     C
H       0.9913   0.7292   0.9475     H
H       0.9954   0.6335    0.741     H
H       0.9998   0.9436    0.434     H
