data_I
_chemical_name_common  '/home/zhangsd/repos/MofS-CGCNN/ML/data/TSD/clean_cifs/UMEDIB_clean'
_cell_length_a 33.68890
_cell_length_b 14.64640
_cell_length_c 31.95210
_cell_angle_alpha 90.00000
_cell_angle_beta  99.14920
_cell_angle_gamma 90.00000
_space_group_name_H-M_alt      'P 1'


loop_
_space_group_symop_operation_xyz
  'x, y, z' 

loop_
_atom_site_label
_atom_site_fract_x
_atom_site_fract_y
_atom_site_fract_z
_atom_site_type_symbol
H       0.0082   0.3739   0.0222     H
H       0.0082   0.6261   0.5222     H
C      0.01846   0.1085  0.55083     C
C      0.01846   0.8915  0.05083     C
C       0.0188   0.1643   0.9515     C
C       0.0188   0.8357   0.4515     C
H       0.0195   0.0735   0.6127     H
H       0.0195   0.9265   0.1127     H
H       0.0232   0.4994   0.5659     H
H       0.0232   0.5006   0.0659     H
N      0.02417   0.2343  0.97858     N
N      0.02417   0.7657  0.47858     N
H       0.0277   0.1248   0.4898     H
H       0.0277   0.8752   0.9898     H
I      0.02932  0.32364  0.62252     I
I      0.02932  0.67636  0.12252     I
C       0.0323   0.0636  0.58868     C
C       0.0323   0.9364  0.08868     C
C       0.0335   0.4032   0.0239     C
C       0.0335   0.5968   0.5239     C
C      0.03718   0.0942  0.51563     C
C      0.03718   0.9058  0.01563     C
N      0.04166   0.1457   0.9224     N
N      0.04166   0.8543   0.4224     N
C       0.0427   0.4787   0.0499     C
C       0.0427   0.5213   0.5499     C
C      0.05354   0.2919    0.972     C
C      0.05354   0.7081    0.472     C
C      0.06165   0.3713   0.0004     C
C      0.06165   0.6287   0.5004     C
C       0.0648   0.0044  0.59133     C
C       0.0648   0.9956  0.09133     C
C       0.0697   0.2075   0.9186     C
C       0.0697   0.7925   0.4186     C
C      0.06973   0.0349  0.51829     C
C      0.06973   0.9651  0.01829     C
H       0.0743   0.0262   0.1172     H
H       0.0743   0.9738   0.6172     H
N      0.07639   0.2833  0.94177     N
N      0.07639   0.7167  0.44177     N
N      0.07829   0.4783  0.55308     N
N      0.07829   0.5217  0.05308     N
H       0.0794   0.0586   0.8751     H
H       0.0794   0.9414   0.3751     H
H       0.0825   0.0251   0.4942     H
H       0.0825   0.9749   0.9942     H
N      0.08355   0.0099  0.05613     N
N      0.08355   0.9901  0.55613     N
Zn     0.09278  0.36932  0.59419    Zn
Zn     0.09278  0.63068  0.09419    Zn
C       0.0949   0.1072   0.8663     C
C       0.0949   0.1912   0.8854     C
C       0.0949   0.8088   0.3854     C
C       0.0949   0.8928   0.3663     C
H       0.0963   0.4497   0.1346     H
H       0.0963   0.5503   0.6346     H
C       0.0982   0.4168   0.0034     C
C       0.0982   0.5832   0.5034     C
I      0.09939  0.23758  0.10588     I
I      0.09939  0.76242  0.60588     I
C       0.1056    0.491   0.0303     C
C       0.1056    0.509   0.5303     C
H       0.1168   0.0351   0.8213     H
H       0.1168   0.9649   0.3213     H
C       0.1173   0.0934   0.8344     C
C       0.1173   0.9066   0.3344     C
C       0.1176   0.4788   0.1529     C
C       0.1176   0.5212   0.6529     C
H       0.1179   0.3971   0.9872     H
H       0.1179   0.6029   0.4872     H
C       0.1202   0.2556   0.8739     C
C       0.1202   0.7444   0.3739     C
H       0.1229    0.313   0.8879     H
H       0.1229    0.687   0.3879     H
I      0.12489  0.16038  0.70124     I
I      0.12489  0.83962  0.20124     I
Zn     0.12675  0.10982  0.06414    Zn
Zn     0.12675  0.89018  0.56414    Zn
N      0.12706   0.4355   0.6442     N
N      0.12706   0.5645   0.1442     N
H       0.1297   0.3691   0.1919     H
H       0.1297   0.6309   0.6919     H
H       0.1308   0.4789   0.5327     H
H       0.1308   0.5211   0.0327     H
C        0.137   0.4305   0.1871     C
C        0.137   0.5695   0.6871     C
H       0.1374   0.0346   0.2324     H
H       0.1374   0.9654   0.7324     H
N      0.13954   0.1592   0.8213     N
N      0.13954   0.8408   0.3213     N
I      0.14003  0.26725  0.56072     I
I      0.14003  0.73275  0.06072     I
C       0.1416    0.237   0.8419     C
C       0.1416    0.763   0.3419     C
H       0.1473    0.191   0.2354     H
H       0.1473    0.809   0.7354     H
I      0.15306  0.13259  0.99533     I
I      0.15306  0.86741  0.49533     I
C       0.1564   0.3942   0.6708     C
C       0.1564   0.6058   0.1708     C
C       0.1584   0.0589   0.2527     C
C       0.1584   0.9411   0.7527     C
H        0.159   0.2829   0.8342     H
H        0.159   0.7171   0.3342     H
H       0.1635   0.3333   0.6649     H
H       0.1635   0.6667   0.1649     H
C       0.1639    0.152   0.2545     C
C       0.1639    0.848   0.7545     C
C       0.1673   0.4735   0.2143     C
C       0.1673   0.5265   0.7143     C
H       0.1703   0.0692   0.5733     H
H       0.1703   0.9308   0.0733     H
N       0.1705    0.045  0.10651     N
N       0.1705    0.955  0.60651     N
Zn     0.17068  0.13743  0.77159    Zn
Zn     0.17068  0.86257  0.27159    Zn
C       0.1766   0.4368    0.706     C
C       0.1766   0.5632    0.206     C
N      0.17868   0.3348  0.25431     N
N      0.17868   0.6652  0.75431     N
H       0.1789    0.145   0.1485     H
H       0.1789    0.855   0.6485     H
N      0.18139   0.0015  0.27826     N
N      0.18139   0.9985  0.77826     N
C       0.1824   0.0399   0.5987     C
C       0.1824   0.9601   0.0987     C
C       0.1876   0.0855   0.1422     C
C       0.1876   0.9145   0.6422     C
C       0.1895    0.422   0.2509     C
C       0.1895    0.578   0.7509     C
C       0.1939    0.188   0.2847     C
C       0.1939    0.812   0.7847     C
H       0.1968   0.4051   0.7245     H
H       0.1968   0.5949   0.2245     H
C      0.20157   0.2883    0.285     C
C      0.20157   0.7117    0.785     C
C       0.2105   0.0362   0.3073     C
C       0.2105   0.9638   0.8073     C
C       0.2112   0.0865   0.6257     C
C       0.2112   0.9135   0.1257     C
C       0.2173    0.129   0.3116     C
C       0.2173    0.871   0.8116     C
C       0.2174   0.0439   0.1706     C
C       0.2174   0.9561   0.6706     C
H       0.2183   0.1472   0.6194     H
H       0.2183   0.8528   0.1194     H
N      0.21936   0.4639  0.27611     N
N      0.21936   0.5361  0.77611     N
H       0.2271   0.0044   0.8256     H
H       0.2271   0.9956   0.3256     H
H       0.2294   0.0752   0.1955     H
H       0.2294   0.9248   0.6955     H
C       0.2298   0.0433   0.6625     C
C       0.2298   0.9567   0.1625     C
N      0.23106    0.323  0.31312     N
N      0.23106    0.677  0.81312     N
I      0.23549  0.22715   0.7929     I
I      0.23549  0.77285   0.2929     I
H       0.2379   0.1518   0.3329     H
H       0.2379   0.8482   0.8329     H
C      0.23842   0.4121   0.3076     C
C      0.23842   0.5879   0.8076     C
C      0.26158   0.0879   0.6924     C
C      0.26158   0.9121   0.1924     C
H       0.2621   0.3482   0.6671     H
H       0.2621   0.6518   0.1671     H
I      0.26451  0.27285   0.2071     I
I      0.26451  0.72715   0.7071     I
N      0.26894    0.177  0.68688     N
N      0.26894    0.823  0.18688     N
C       0.2702   0.4567   0.3375     C
C       0.2702   0.5433   0.8375     C
H       0.2706   0.4248   0.8045     H
H       0.2706   0.5752   0.3045     H
H       0.2729   0.4956   0.1744     H
H       0.2729   0.5044   0.6744     H
N      0.28064   0.0361  0.72389     N
N      0.28064   0.9639  0.22389     N
H       0.2817   0.3528   0.3806     H
H       0.2817   0.6472   0.8806     H
C       0.2826   0.4561   0.8294     C
C       0.2826   0.5439   0.3294     C
C       0.2827    0.371   0.6884     C
C       0.2827    0.629   0.1884     C
C       0.2888   0.4135   0.3743     C
C       0.2888   0.5865   0.8743     C
C       0.2895   0.4638   0.6927     C
C       0.2895   0.5362   0.1927     C
C      0.29843   0.2117    0.715     C
C      0.29843   0.7883    0.215     C
H       0.3032   0.0949   0.2755     H
H       0.3032   0.9051   0.7755     H
C       0.3061    0.312   0.7153     C
C       0.3061    0.688   0.2153     C
C       0.3105    0.078   0.7491     C
C       0.3105    0.922   0.2491     C
C       0.3124   0.4145   0.8578     C
C       0.3124   0.5855   0.3578     C
C       0.3176   0.4601   0.4013     C
C       0.3176   0.5399   0.9013     C
N      0.31861   0.4985  0.72174     N
N      0.31861   0.5015  0.22174     N
H       0.3211    0.355   0.8515     H
H       0.3211    0.645   0.3515     H
N      0.32132   0.1652  0.74569     N
N      0.32132   0.8348  0.24569     N
C       0.3234   0.0632    0.294     C
C       0.3234   0.9368    0.794     C
Zn     0.32932  0.36257  0.22841    Zn
Zn     0.32932  0.63743  0.72841    Zn
N       0.3295    0.455  0.89349     N
N       0.3295    0.545  0.39349     N
H       0.3297   0.4308   0.4267     H
H       0.3297   0.5692   0.9267     H
C       0.3327   0.0265   0.7857     C
C       0.3327   0.9735   0.2857     C
C       0.3361    0.348   0.7455     C
C       0.3361    0.652   0.2455     C
H       0.3365   0.1667   0.3351     H
H       0.3365   0.8333   0.8351     H
H        0.341   0.2171   0.1658     H
H        0.341   0.7829   0.6658     H
C       0.3416   0.4411   0.7473     C
C       0.3416   0.5589   0.2473     C
C       0.3436   0.1058   0.3292     C
C       0.3436   0.8942   0.8292     C
I      0.34694  0.36741  0.00467     I
I      0.34694  0.63259  0.50467     I
H       0.3527    0.309   0.7646     H
H       0.3527    0.691   0.2646     H
C       0.3584    0.263   0.1581     C
C       0.3584    0.737   0.6581     C
I      0.35997  0.23275  0.43928     I
I      0.35997  0.76725  0.93928     I
N      0.36046   0.3408   0.1787     N
N      0.36046   0.6592   0.6787     N
H       0.3626   0.4654   0.7676     H
H       0.3626   0.5346   0.2676     H
C        0.363   0.0695   0.8129     C
C        0.363   0.9305   0.3129     C
H       0.3692   0.0211   0.4673     H
H       0.3692   0.9789   0.9673     H
H       0.3703   0.1309   0.8081     H
H       0.3703   0.8691   0.3081     H
N      0.37294   0.0645   0.3558     N
N      0.37294   0.9355   0.8558     N
Zn     0.37325  0.39018  0.93586    Zn
Zn     0.37325  0.60982  0.43586    Zn
I      0.37511  0.33962  0.29876     I
I      0.37511  0.66038  0.79876     I
H       0.3771    0.187   0.1121     H
H       0.3771    0.813   0.6121     H
C       0.3798   0.2444   0.1261     C
C       0.3798   0.7556   0.6261     C
H       0.3821   0.1029   0.0128     H
H       0.3821   0.8971   0.5128     H
C       0.3824   0.0212   0.8471     C
C       0.3824   0.9788   0.3471     C
C       0.3827   0.4066   0.1656     C
C       0.3827   0.5934   0.6656     C
H       0.3832   0.4649   0.1787     H
H       0.3832   0.5351   0.6787     H
C       0.3944    0.009   0.9697     C
C       0.3944    0.991   0.4697     C
I      0.40061  0.26242  0.89412     I
I      0.40061  0.73758  0.39412     I
C       0.4018   0.0832   0.9966     C
C       0.4018   0.9168   0.4966     C
H       0.4037   0.0503   0.8654     H
H       0.4037   0.9497   0.3654     H
C       0.4051   0.3088   0.1146     C
C       0.4051   0.3928   0.1337     C
C       0.4051   0.6072   0.6337     C
C       0.4051   0.6912   0.6146     C
Zn     0.40722  0.13068  0.40581    Zn
Zn     0.40722  0.86932  0.90581    Zn
N      0.41645   0.4901  0.94387     N
N      0.41645   0.5099  0.44387     N
H       0.4175   0.4749   0.5058     H
H       0.4175   0.5251   0.0058     H
H       0.4206   0.4414   0.1249     H
H       0.4206   0.5586   0.6249     H
N      0.42171   0.0217  0.44692     N
N      0.42171   0.9783  0.94692     N
N      0.42361   0.2167  0.05823     N
N      0.42361   0.7833  0.55823     N
H       0.4257   0.4738   0.8828     H
H       0.4257   0.5262   0.3828     H
C      0.43027   0.4651  0.48171     C
C      0.43027   0.5349  0.98171     C
C       0.4303   0.2925   0.0814     C
C       0.4303   0.7075   0.5814     C
C       0.4352   0.4956  0.40867     C
C       0.4352   0.5044  0.90867     C
C      0.43835   0.1287   0.9996     C
C      0.43835   0.8713   0.4996     C
C      0.44646   0.2081    0.028     C
C      0.44646   0.7919    0.528     C
C       0.4573   0.0213   0.9501     C
C       0.4573   0.9787   0.4501     C
N      0.45834   0.3543   0.0776     N
N      0.45834   0.6457   0.5776     N
C      0.46282   0.4058  0.48437     C
C      0.46282   0.5942  0.98437     C
C       0.4665   0.0968   0.9761     C
C       0.4665   0.9032   0.4761     C
C       0.4677   0.4364  0.41132     C
C       0.4677   0.5636  0.91132     C
I      0.47068  0.17636  0.37748     I
I      0.47068  0.82364  0.87748     I
H       0.4723   0.3752   0.5102     H
H       0.4723   0.6248   0.0102     H
N      0.47583   0.2657  0.02142     N
N      0.47583   0.7343  0.52142     N
H       0.4768   0.0006   0.4341     H
H       0.4768   0.9994   0.9341     H
H       0.4805   0.4265   0.3873     H
H       0.4805   0.5735   0.8873     H
C       0.4812   0.3357   0.0485     C
C       0.4812   0.6643   0.5485     C
C      0.48154   0.3915  0.44917     C
C      0.48154   0.6085  0.94917     C
H       0.4918   0.1261   0.9778     H
H       0.4918   0.8739   0.4778     H
H       0.5082   0.1261   0.5222     H
H       0.5082   0.8739   0.0222     H
C      0.51846   0.3915  0.05083     C
C      0.51846   0.6085  0.55083     C
C       0.5188   0.3357   0.4515     C
C       0.5188   0.6643   0.9515     C
H       0.5195   0.4265   0.1127     H
H       0.5195   0.5735   0.6127     H
H       0.5232   0.0006   0.0659     H
H       0.5232   0.9994   0.5659     H
N      0.52417   0.2657  0.47858     N
N      0.52417   0.7343  0.97858     N
H       0.5277   0.3752   0.9898     H
H       0.5277   0.6248   0.4898     H
I      0.52932  0.17636  0.12252     I
I      0.52932  0.82364  0.62252     I
C       0.5323   0.4364  0.08868     C
C       0.5323   0.5636  0.58868     C
C       0.5335   0.0968   0.5239     C
C       0.5335   0.9032   0.0239     C
C      0.53718   0.4058  0.01563     C
C      0.53718   0.5942  0.51563     C
N      0.54166   0.3543   0.4224     N
N      0.54166   0.6457   0.9224     N
C       0.5427   0.0213   0.5499     C
C       0.5427   0.9787   0.0499     C
C      0.55354   0.2081    0.472     C
C      0.55354   0.7919    0.972     C
C      0.56165   0.1287   0.5004     C
C      0.56165   0.8713   0.0004     C
C       0.5648   0.4956  0.09133     C
C       0.5648   0.5044  0.59133     C
C       0.5697   0.2925   0.4186     C
C       0.5697   0.7075   0.9186     C
C      0.56973   0.4651  0.01829     C
C      0.56973   0.5349  0.51829     C
H       0.5743   0.4738   0.6172     H
H       0.5743   0.5262   0.1172     H
N      0.57639   0.2167  0.44177     N
N      0.57639   0.7833  0.94177     N
N      0.57829   0.0217  0.05308     N
N      0.57829   0.9783  0.55308     N
H       0.5794   0.4414   0.3751     H
H       0.5794   0.5586   0.8751     H
H       0.5825   0.4749   0.9942     H
H       0.5825   0.5251   0.4942     H
N      0.58355   0.4901  0.55613     N
N      0.58355   0.5099  0.05613     N
Zn     0.59278  0.13068  0.09419    Zn
Zn     0.59278  0.86932  0.59419    Zn
C       0.5949   0.3088   0.3854     C
C       0.5949   0.3928   0.3663     C
C       0.5949   0.6072   0.8663     C
C       0.5949   0.6912   0.8854     C
H       0.5963   0.0503   0.6346     H
H       0.5963   0.9497   0.1346     H
C       0.5982   0.0832   0.5034     C
C       0.5982   0.9168   0.0034     C
I      0.59939  0.26242  0.60588     I
I      0.59939  0.73758  0.10588     I
C       0.6056    0.009   0.5303     C
C       0.6056    0.991   0.0303     C
H       0.6168   0.4649   0.3213     H
H       0.6168   0.5351   0.8213     H
C       0.6173   0.4066   0.3344     C
C       0.6173   0.5934   0.8344     C
C       0.6176   0.0212   0.6529     C
C       0.6176   0.9788   0.1529     C
H       0.6179   0.1029   0.4872     H
H       0.6179   0.8971   0.9872     H
C       0.6202   0.2444   0.3739     C
C       0.6202   0.7556   0.8739     C
H       0.6229    0.187   0.3879     H
H       0.6229    0.813   0.8879     H
I      0.62489  0.33962  0.20124     I
I      0.62489  0.66038  0.70124     I
Zn     0.62675  0.39018  0.56414    Zn
Zn     0.62675  0.60982  0.06414    Zn
N      0.62706   0.0645   0.1442     N
N      0.62706   0.9355   0.6442     N
H       0.6297   0.1309   0.6919     H
H       0.6297   0.8691   0.1919     H
H       0.6308   0.0211   0.0327     H
H       0.6308   0.9789   0.5327     H
C        0.637   0.0695   0.6871     C
C        0.637   0.9305   0.1871     C
H       0.6374   0.4654   0.7324     H
H       0.6374   0.5346   0.2324     H
N      0.63954   0.3408   0.3213     N
N      0.63954   0.6592   0.8213     N
I      0.64003  0.23275  0.06072     I
I      0.64003  0.76725  0.56072     I
C       0.6416    0.263   0.3419     C
C       0.6416    0.737   0.8419     C
H       0.6473    0.309   0.7354     H
H       0.6473    0.691   0.2354     H
I      0.65306  0.36741  0.49533     I
I      0.65306  0.63259  0.99533     I
C       0.6564   0.1058   0.1708     C
C       0.6564   0.8942   0.6708     C
C       0.6584   0.4411   0.7527     C
C       0.6584   0.5589   0.2527     C
H        0.659   0.2171   0.3342     H
H        0.659   0.7829   0.8342     H
H       0.6635   0.1667   0.1649     H
H       0.6635   0.8333   0.6649     H
C       0.6639    0.348   0.7545     C
C       0.6639    0.652   0.2545     C
C       0.6673   0.0265   0.7143     C
C       0.6673   0.9735   0.2143     C
H       0.6703   0.4308   0.0733     H
H       0.6703   0.5692   0.5733     H
N       0.6705    0.455  0.60651     N
N       0.6705    0.545  0.10651     N
Zn     0.67068  0.36257  0.27159    Zn
Zn     0.67068  0.63743  0.77159    Zn
C       0.6766   0.0632    0.206     C
C       0.6766   0.9368    0.706     C
N      0.67868   0.1652  0.75431     N
N      0.67868   0.8348  0.25431     N
H       0.6789    0.355   0.6485     H
H       0.6789    0.645   0.1485     H
N      0.68139   0.4985  0.77826     N
N      0.68139   0.5015  0.27826     N
C       0.6824   0.4601   0.0987     C
C       0.6824   0.5399   0.5987     C
C       0.6876   0.4145   0.6422     C
C       0.6876   0.5855   0.1422     C
C       0.6895    0.078   0.7509     C
C       0.6895    0.922   0.2509     C
C       0.6939    0.312   0.7847     C
C       0.6939    0.688   0.2847     C
H       0.6968   0.0949   0.2245     H
H       0.6968   0.9051   0.7245     H
C      0.70157   0.2117    0.785     C
C      0.70157   0.7883    0.285     C
C       0.7105   0.4638   0.8073     C
C       0.7105   0.5362   0.3073     C
C       0.7112   0.4135   0.1257     C
C       0.7112   0.5865   0.6257     C
C       0.7173    0.371   0.8116     C
C       0.7173    0.629   0.3116     C
C       0.7174   0.4561   0.6706     C
C       0.7174   0.5439   0.1706     C
H       0.7183   0.3528   0.1194     H
H       0.7183   0.6472   0.6194     H
N      0.71936   0.0361  0.77611     N
N      0.71936   0.9639  0.27611     N
H       0.7271   0.4956   0.3256     H
H       0.7271   0.5044   0.8256     H
H       0.7294   0.4248   0.6955     H
H       0.7294   0.5752   0.1955     H
C       0.7298   0.4567   0.1625     C
C       0.7298   0.5433   0.6625     C
N      0.73106    0.177  0.81312     N
N      0.73106    0.823  0.31312     N
I      0.73549  0.27285   0.2929     I
I      0.73549  0.72715   0.7929     I
H       0.7379   0.3482   0.8329     H
H       0.7379   0.6518   0.3329     H
C      0.73842   0.0879   0.8076     C
C      0.73842   0.9121   0.3076     C
C      0.76158   0.4121   0.1924     C
C      0.76158   0.5879   0.6924     C
H       0.7621   0.1518   0.1671     H
H       0.7621   0.8482   0.6671     H
I      0.76451  0.22715   0.7071     I
I      0.76451  0.77285   0.2071     I
N      0.76894    0.323  0.18688     N
N      0.76894    0.677  0.68688     N
C       0.7702   0.0433   0.8375     C
C       0.7702   0.9567   0.3375     C
H       0.7706   0.0752   0.3045     H
H       0.7706   0.9248   0.8045     H
H       0.7729   0.0044   0.6744     H
H       0.7729   0.9956   0.1744     H
N      0.78064   0.4639  0.22389     N
N      0.78064   0.5361  0.72389     N
H       0.7817   0.1472   0.8806     H
H       0.7817   0.8528   0.3806     H
C       0.7826   0.0439   0.3294     C
C       0.7826   0.9561   0.8294     C
C       0.7827    0.129   0.1884     C
C       0.7827    0.871   0.6884     C
C       0.7888   0.0865   0.8743     C
C       0.7888   0.9135   0.3743     C
C       0.7895   0.0362   0.1927     C
C       0.7895   0.9638   0.6927     C
C      0.79843   0.2883    0.215     C
C      0.79843   0.7117    0.715     C
H       0.8032   0.4051   0.7755     H
H       0.8032   0.5949   0.2755     H
C       0.8061    0.188   0.2153     C
C       0.8061    0.812   0.7153     C
C       0.8105    0.422   0.2491     C
C       0.8105    0.578   0.7491     C
C       0.8124   0.0855   0.3578     C
C       0.8124   0.9145   0.8578     C
C       0.8176   0.0399   0.9013     C
C       0.8176   0.9601   0.4013     C
N      0.81861   0.0015  0.22174     N
N      0.81861   0.9985  0.72174     N
H       0.8211    0.145   0.3515     H
H       0.8211    0.855   0.8515     H
N      0.82132   0.3348  0.24569     N
N      0.82132   0.6652  0.74569     N
C       0.8234   0.4368    0.794     C
C       0.8234   0.5632    0.294     C
Zn     0.82932  0.13743  0.72841    Zn
Zn     0.82932  0.86257  0.22841    Zn
N       0.8295    0.045  0.39349     N
N       0.8295    0.955  0.89349     N
H       0.8297   0.0692   0.9267     H
H       0.8297   0.9308   0.4267     H
C       0.8327   0.4735   0.2857     C
C       0.8327   0.5265   0.7857     C
C       0.8361    0.152   0.2455     C
C       0.8361    0.848   0.7455     C
H       0.8365   0.3333   0.8351     H
H       0.8365   0.6667   0.3351     H
H        0.841   0.2829   0.6658     H
H        0.841   0.7171   0.1658     H
C       0.8416   0.0589   0.2473     C
C       0.8416   0.9411   0.7473     C
C       0.8436   0.3942   0.8292     C
C       0.8436   0.6058   0.3292     C
I      0.84694  0.13259  0.50467     I
I      0.84694  0.86741  0.00467     I
H       0.8527    0.191   0.2646     H
H       0.8527    0.809   0.7646     H
C       0.8584    0.237   0.6581     C
C       0.8584    0.763   0.1581     C
I      0.85997  0.26725  0.93928     I
I      0.85997  0.73275  0.43928     I
N      0.86046   0.1592   0.6787     N
N      0.86046   0.8408   0.1787     N
H       0.8626   0.0346   0.2676     H
H       0.8626   0.9654   0.7676     H
C        0.863   0.4305   0.3129     C
C        0.863   0.5695   0.8129     C
H       0.8692   0.4789   0.9673     H
H       0.8692   0.5211   0.4673     H
H       0.8703   0.3691   0.3081     H
H       0.8703   0.6309   0.8081     H
N      0.87294   0.4355   0.8558     N
N      0.87294   0.5645   0.3558     N
Zn     0.87325  0.10982  0.43586    Zn
Zn     0.87325  0.89018  0.93586    Zn
I      0.87511  0.16038  0.79876     I
I      0.87511  0.83962  0.29876     I
H       0.8771    0.313   0.6121     H
H       0.8771    0.687   0.1121     H
C       0.8798   0.2556   0.6261     C
C       0.8798   0.7444   0.1261     C
H       0.8821   0.3971   0.5128     H
H       0.8821   0.6029   0.0128     H
C       0.8824   0.4788   0.3471     C
C       0.8824   0.5212   0.8471     C
C       0.8827   0.0934   0.6656     C
C       0.8827   0.9066   0.1656     C
H       0.8832   0.0351   0.6787     H
H       0.8832   0.9649   0.1787     H
C       0.8944    0.491   0.4697     C
C       0.8944    0.509   0.9697     C
I      0.90061  0.23758  0.39412     I
I      0.90061  0.76242  0.89412     I
C       0.9018   0.4168   0.4966     C
C       0.9018   0.5832   0.9966     C
H       0.9037   0.4497   0.3654     H
H       0.9037   0.5503   0.8654     H
C       0.9051   0.1072   0.6337     C
C       0.9051   0.1912   0.6146     C
C       0.9051   0.8088   0.1146     C
C       0.9051   0.8928   0.1337     C
Zn     0.90722  0.36932  0.90581    Zn
Zn     0.90722  0.63068  0.40581    Zn
N      0.91645   0.0099  0.44387     N
N      0.91645   0.9901  0.94387     N
H       0.9175   0.0251   0.0058     H
H       0.9175   0.9749   0.5058     H
H       0.9206   0.0586   0.6249     H
H       0.9206   0.9414   0.1249     H
N      0.92171   0.4783  0.94692     N
N      0.92171   0.5217  0.44692     N
N      0.92361   0.2833  0.55823     N
N      0.92361   0.7167  0.05823     N
H       0.9257   0.0262   0.3828     H
H       0.9257   0.9738   0.8828     H
C      0.93027   0.0349  0.98171     C
C      0.93027   0.9651  0.48171     C
C       0.9303   0.2075   0.5814     C
C       0.9303   0.7925   0.0814     C
C       0.9352   0.0044  0.90867     C
C       0.9352   0.9956  0.40867     C
C      0.93835   0.3713   0.4996     C
C      0.93835   0.6287   0.9996     C
C      0.94646   0.2919    0.528     C
C      0.94646   0.7081    0.028     C
C       0.9573   0.4787   0.4501     C
C       0.9573   0.5213   0.9501     C
N      0.95834   0.1457   0.5776     N
N      0.95834   0.8543   0.0776     N
C      0.96282   0.0942  0.98437     C
C      0.96282   0.9058  0.48437     C
C       0.9665   0.4032   0.4761     C
C       0.9665   0.5968   0.9761     C
C       0.9677   0.0636  0.91132     C
C       0.9677   0.9364  0.41132     C
I      0.97068  0.32364  0.87748     I
I      0.97068  0.67636  0.37748     I
H       0.9723   0.1248   0.0102     H
H       0.9723   0.8752   0.5102     H
N      0.97583   0.2343  0.52142     N
N      0.97583   0.7657  0.02142     N
H       0.9768   0.4994   0.9341     H
H       0.9768   0.5006   0.4341     H
H       0.9805   0.0735   0.8873     H
H       0.9805   0.9265   0.3873     H
C       0.9812   0.1643   0.5485     C
C       0.9812   0.8357   0.0485     C
C      0.98154   0.1085  0.94917     C
C      0.98154   0.8915  0.44917     C
H       0.9918   0.3739   0.4778     H
H       0.9918   0.6261   0.9778     H
