data_I
_chemical_name_common  '/home/zhangsd/repos/MofS-CGCNN/ML/data/TSD/clean_cifs/UMELUU_clean'
_cell_length_a  9.15550
_cell_length_b 11.74700
_cell_length_c 11.53810
_cell_angle_alpha 90.00000
_cell_angle_beta  90.00000
_cell_angle_gamma 90.00000
_space_group_name_H-M_alt      'P 1'


loop_
_space_group_symop_operation_xyz
  'x, y, z' 

loop_
_atom_site_label
_atom_site_fract_x
_atom_site_fract_y
_atom_site_fract_z
_atom_site_type_symbol
N       0.0191   0.9016   0.3728     N
N       0.0278   0.2053   0.8773     N
C       0.0348    0.503    0.112     C
O       0.0498   0.3356   0.3618     O
N       0.0772   0.4874   0.0036     N
N        0.086   0.7262   0.3771     N
O       0.1189   0.1503   0.3704     O
C       0.1212   0.4996   0.6506     C
Cd     0.12649  0.94003   0.8468    Cd
Cd     0.12972  0.53121   0.3774    Cd
C       0.1419    0.256   0.3659     C
O       0.1468   0.4749   0.7549     O
N       0.1496   0.5283   0.1792     N
N       0.1652   0.9035   0.3669     N
C       0.2037   0.7939   0.3702     C
O       0.2141   0.5199    0.572     O
N       0.2179   0.5012   0.0036     N
N       0.2348   0.0252   0.1085     N
N       0.2652   0.5252   0.1085     N
N       0.2821   0.0012   0.0036     N
O       0.2859   0.0199    0.572     O
C       0.2963   0.2939   0.3702     C
N       0.3348   0.4035   0.3669     N
N       0.3504   0.0283   0.1792     N
O       0.3532   0.9749   0.7549     O
C       0.3581    0.756   0.3659     C
Cd     0.37028  0.03121   0.3774    Cd
Cd     0.37351  0.44003   0.8468    Cd
C       0.3788   0.9996   0.6506     C
O       0.3811   0.6503   0.3704     O
N        0.414   0.2262   0.3771     N
N       0.4228   0.9874   0.0036     N
O       0.4502   0.8356   0.3618     O
C       0.4652    0.003    0.112     C
N       0.4722   0.7053   0.8773     N
N       0.4809   0.4016   0.3728     N
N       0.5191   0.5984   0.8728     N
N       0.5278   0.2947   0.3773     N
C       0.5348    0.997    0.612     C
O       0.5498   0.1644   0.8618     O
N       0.5772   0.0126   0.5036     N
N        0.586   0.7738   0.8771     N
O       0.6189   0.3497   0.8704     O
C       0.6212   0.0004   0.1506     C
Cd     0.62649  0.55997   0.3468    Cd
Cd     0.62972  0.96879   0.8774    Cd
C       0.6419    0.244   0.8659     C
O       0.6468   0.0251   0.2549     O
N       0.6496   0.9717   0.6792     N
N       0.6652   0.5965   0.8669     N
C       0.7037   0.7061   0.8702     C
O       0.7141   0.9801    0.072     O
N       0.7179   0.9988   0.5036     N
N       0.7348   0.4748   0.6085     N
N       0.7652   0.9748   0.6085     N
N       0.7821   0.4988   0.5036     N
O       0.7859   0.4801    0.072     O
C       0.7963   0.2061   0.8702     C
N       0.8348   0.0965   0.8669     N
N       0.8504   0.4717   0.6792     N
O       0.8532   0.5251   0.2549     O
C       0.8581    0.744   0.8659     C
Cd     0.87028  0.46879   0.8774    Cd
Cd     0.87351  0.05997   0.3468    Cd
C       0.8788   0.5004   0.1506     C
O       0.8811   0.8497   0.8704     O
N        0.914   0.2738   0.8771     N
N       0.9228   0.5126   0.5036     N
O       0.9502   0.6644   0.8618     O
C       0.9652    0.497    0.612     C
N       0.9722   0.7947   0.3773     N
N       0.9809   0.0984   0.8728     N
