data_I
_chemical_name_common  '/home/zhangsd/repos/MofS-CGCNN/ML/data/TSD/clean_cifs/UNABUH01_clean'
_cell_length_a  8.40480
_cell_length_b 10.23790
_cell_length_c 17.66710
_cell_angle_alpha 90.00000
_cell_angle_beta  103.03200
_cell_angle_gamma 90.00000
_space_group_name_H-M_alt      'P 1'


loop_
_space_group_symop_operation_xyz
  'x, y, z' 

loop_
_atom_site_label
_atom_site_fract_x
_atom_site_fract_y
_atom_site_fract_z
_atom_site_type_symbol
C       0.0138   0.2929   0.4834     C
O      0.03032    0.284  0.55582     O
C       0.0358   0.7317   0.0189     C
C       0.0363   0.7697   0.0946     C
H       0.0369   0.7297   0.6696     H
H       0.0634    0.109   0.8418     H
C        0.065   0.1335   0.8926     C
C       0.0668   0.2041   0.0407     C
H       0.0693   0.2258   0.0921     H
C        0.077   0.8059   0.5697     C
O      0.07908   0.3906  0.45828     O
C       0.0887   0.7972   0.6493     C
H       0.1058   0.7289   0.1363     H
O       0.1189   0.7993   0.8125     O
H       0.1351   0.6619   0.9039     H
C       0.1408   0.6171   0.0088     C
H       0.1456   0.9108   0.4848     H
C       0.1544   0.9056   0.5381     C
C        0.166   0.1074   0.0237     C
N       0.1671   0.0722    0.951     N
N       0.1708   0.6016   0.9373     N
Cu     0.17371  0.44226  0.56796    Cu
C       0.1775   0.8892   0.6976     C
H       0.1858   0.5512   0.8002     H
O      0.18965   0.5427  0.06255     O
C       0.1947   0.8809   0.7839     C
O      0.20688   0.4638  0.67638     O
H       0.2355   0.0644   0.0645     H
C       0.2452   0.4889   0.8333     C
C       0.2455   0.9973   0.5882     C
C       0.2545   0.4973   0.9118     C
C       0.2548   0.9889   0.6667     C
H       0.2645   0.5644   0.4355     H
O      0.29312   0.9638  0.82362     O
C       0.3053   0.3809   0.7161     C
O      0.31035   0.0427  0.43745     O
H       0.3142   0.0512   0.6998     H
C       0.3225   0.3892   0.8024     C
Cu     0.32629  0.94226  0.93204    Cu
N       0.3292   0.1016   0.5627     N
N       0.3329   0.5722    0.549     N
C        0.334   0.6074   0.4763     C
C       0.3456   0.4056   0.9619     C
H       0.3544   0.4108   0.0152     H
C       0.3592   0.1171   0.4912     C
H       0.3649   0.1619   0.5961     H
O       0.3811   0.2993   0.6875     O
H       0.3942   0.2289   0.3637     H
C       0.4113   0.2972   0.8507     C
O      0.42092   0.8906  0.04172     O
C        0.423   0.3059   0.9303     C
H       0.4307   0.7258   0.4079     H
C       0.4332   0.7041   0.4593     C
C        0.435   0.6335   0.6074     C
H       0.4366    0.609   0.6582     H
H       0.4631   0.2297   0.8304     H
C       0.4637   0.2697   0.4054     C
C       0.4642   0.2317   0.4811     C
O      0.46968    0.784  0.94418     O
C       0.4862   0.7929   0.0166     C
C       0.5138   0.2071   0.9834     C
O      0.53032    0.216  0.05582     O
C       0.5358   0.7683   0.5189     C
C       0.5363   0.7303   0.5946     C
H       0.5369   0.7703   0.1696     H
H       0.5634    0.391   0.3418     H
C        0.565   0.3665   0.3926     C
C       0.5668   0.2959   0.5407     C
H       0.5693   0.2742   0.5921     H
C        0.577   0.6941   0.0697     C
O      0.57908   0.1094  0.95828     O
C       0.5887   0.7028   0.1493     C
H       0.6058   0.7711   0.6363     H
O       0.6189   0.7007   0.3125     O
H       0.6351   0.8381   0.4039     H
C       0.6408   0.8829   0.5088     C
H       0.6456   0.5892   0.9848     H
C       0.6544   0.5944   0.0381     C
C        0.666   0.3926   0.5237     C
N       0.6671   0.4278    0.451     N
N       0.6708   0.8984   0.4373     N
Cu     0.67371  0.05774  0.06796    Cu
C       0.6775   0.6108   0.1976     C
H       0.6858   0.9488   0.3002     H
O      0.68965   0.9573  0.56255     O
C       0.6947   0.6191   0.2839     C
O      0.70688   0.0362  0.17638     O
H       0.7355   0.4356   0.5645     H
C       0.7452   0.0111   0.3333     C
C       0.7455   0.5027   0.0882     C
C       0.7545   0.0027   0.4118     C
C       0.7548   0.5111   0.1667     C
H       0.7645   0.9356   0.9355     H
O      0.79312   0.5362  0.32362     O
C       0.8053   0.1191   0.2161     C
O      0.81035   0.4573  0.93745     O
H       0.8142   0.4488   0.1998     H
C       0.8225   0.1108   0.3024     C
Cu     0.82629  0.55774  0.43204    Cu
N       0.8292   0.3984   0.0627     N
N       0.8329   0.9278    0.049     N
C        0.834   0.8926   0.9763     C
C       0.8456   0.0944   0.4619     C
H       0.8544   0.0892   0.5152     H
C       0.8592   0.3829   0.9912     C
H       0.8649   0.3381   0.0961     H
O       0.8811   0.2007   0.1875     O
H       0.8942   0.2711   0.8637     H
C       0.9113   0.2028   0.3507     C
O      0.92092   0.6094  0.54172     O
C        0.923   0.1941   0.4303     C
H       0.9307   0.7742   0.9079     H
C       0.9332   0.7959   0.9593     C
C        0.935   0.8665   0.1074     C
H       0.9366    0.891   0.1582     H
H       0.9631   0.2703   0.3304     H
C       0.9637   0.2303   0.9054     C
C       0.9642   0.2683   0.9811     C
O      0.96968    0.716  0.44418     O
C       0.9862   0.7071   0.5166     C
