data_I
_chemical_name_common  '/home/zhangsd/repos/MofS-CGCNN/ML/data/TSD/clean_cifs/UNEBIZ_clean'
_cell_length_a 13.66300
_cell_length_b 18.32900
_cell_length_c 22.17300
_cell_angle_alpha 67.20400
_cell_angle_beta  88.26000
_cell_angle_gamma 86.71200
_space_group_name_H-M_alt      'P 1'


loop_
_space_group_symop_operation_xyz
  'x, y, z' 

loop_
_atom_site_label
_atom_site_fract_x
_atom_site_fract_y
_atom_site_fract_z
_atom_site_type_symbol
H       0.0028   0.5918   0.1098     H
O        0.005   0.2245   0.8722     O
H       0.0064   0.2226   0.6479     H
C        0.007   0.2225   0.2692     C
C       0.0083   0.2503   0.9683     C
H       0.0084   0.5257   0.3137     H
Mn     0.00892   0.3701  0.25223    Mn
H       0.0175   0.2086   0.7218     H
H       0.0205   0.9125   0.5616     H
C       0.0247   0.1844   0.6903     C
C       0.0261   0.4483   0.0442     C
H       0.0266    0.533   0.6948     H
H       0.0295   0.5252   0.6269     H
H       0.0295   0.7173    0.113     H
H        0.033   0.2673   0.0538     H
H       0.0482   0.0604   0.6603     H
C       0.0488   0.4184    0.117     C
C       0.0544   0.2313   0.9195     C
C       0.0589   0.6404    0.618     C
H       0.0594   0.0445   0.7735     H
C       0.0608   0.5471   0.6537     C
C       0.0638   0.2529   0.0218     C
C       0.0646   0.9987   0.3176     C
H       0.0691   0.7089   0.3797     H
C       0.0736   0.0783   0.3035     C
H       0.0765   0.8473   0.4022     H
H       0.0768   0.6421   0.5235     H
H       0.0783   0.4098   0.5493     H
H       0.0795   0.7662   0.2522     H
H       0.0823   0.3499   0.5144     H
H       0.0824    0.661   0.6976     H
C       0.0862   0.4839   0.9321     C
O       0.0896   0.2479   0.2575     O
H         0.09    0.463   0.8163     H
H       0.0918   0.1662   0.6891     H
H       0.0933   0.4405   0.4733     H
C       0.0948   0.6511   0.3168     C
H       0.0967   0.6184   0.4169     H
C       0.1003   0.4545   0.9988     C
C       0.1079   0.3977   0.5143     C
H       0.1101    0.708   0.2178     H
C       0.1113   0.6629     0.55     C
C       0.1113   0.6652   0.3795     C
H       0.1116   0.1223   0.8612     H
H       0.1117   0.7196   0.5285     H
C        0.113   0.6733   0.6554     C
H       0.1137   0.7298   0.6328     H
H       0.1167   0.1212   0.5041     H
H         0.12   0.2681     0.79     H
C       0.1204   0.7206   0.2552     C
H       0.1207   0.8972   0.4375     H
O       0.1216   0.3801   0.3045     O
H       0.1262    0.874   0.2845     H
H       0.1275   0.5266   0.6613     H
C       0.1331   0.8743   0.4056     C
H       0.1346   0.6037   0.8131     H
H       0.1349    0.096   0.3066     H
O        0.135   0.3989   0.1343     O
H       0.1387   0.6475   0.0266     H
H       0.1458   0.3889   0.8676     H
H       0.1471   0.5346    0.357     H
C       0.1501   0.4439   0.8398     C
C       0.1543   0.9393   0.3396     C
H       0.1555   0.5705   0.2805     H
C       0.1562   0.2158   0.9211     C
H       0.1565   0.1024   0.4443     H
H       0.1565   0.3801   0.4117     H
C       0.1611   0.2341   0.0247     C
C       0.1633   0.5806   0.3194     C
H       0.1636   0.4379   0.0142     H
C       0.1684   0.4934   0.8833     C
C       0.1698   0.1282   0.4732     C
H        0.174   0.5636   0.0768     H
H       0.1764   0.1838   0.4483     H
O       0.1768   0.2438   0.1267     O
H       0.1775    0.641   0.5561     H
H       0.1784   0.6772   0.3812     H
H       0.1791   0.6511    0.661     H
C       0.1811   0.1188   0.8679     C
C       0.1811   0.9012   0.2898     C
H       0.1879   0.7318   0.2565     H
H       0.1885   0.8372   0.4187     H
C       0.1893   0.2657   0.7971     C
C       0.1896    0.579   0.8409     C
C       0.1913   0.6076   0.0379     C
H       0.1966    0.078   0.9097     H
H       0.1977   0.9417   0.2485     H
H       0.2002   0.9949   0.5801     H
H       0.2006   0.6072   0.8684     H
H       0.2012   0.9869   0.0691     H
H       0.2026     0.59   0.0026     H
H       0.2035   0.4499   0.8094     H
H       0.2055   0.3324   0.6221     H
C       0.2077   0.2171   0.9732     C
H       0.2083    0.316   0.7954     H
H       0.2083   0.7135   0.0894     H
H       0.2112   0.2721   0.5875     H
C       0.2138   0.3598   0.3046     C
H       0.2145   0.1064   0.8341     H
C       0.2147      0.2   0.8658     C
Mn     0.21701  0.29277  0.19467    Mn
C       0.2214   0.2291   0.0826     C
C       0.2226   0.3858   0.5238     C
C       0.2237   0.3681   0.4141     C
H       0.2238   0.4707   0.5607     H
H       0.2239   0.2532   0.7637     H
H       0.2286   0.0039   0.3784     H
H         0.23   0.5927   0.3224     H
H       0.2346   0.1211   0.5868     H
H       0.2362   0.8642   0.3056     H
C       0.2379    0.319   0.5884     C
H       0.2388   0.9775   0.5195     H
H       0.2401   0.5039   0.4847     H
H       0.2415    0.631   0.1426     H
C       0.2424   0.9812   0.3465     C
H       0.2428   0.8453   0.1266     H
H       0.2469     0.58   0.8145     H
H       0.2501   0.7498   0.9757     H
C       0.2528   0.0025   0.5489     C
H       0.2543   0.9516   0.8285     H
C        0.256   0.4609   0.5254     C
H        0.257   0.9012   0.0105     H
H       0.2571   0.0224   0.3051     H
O       0.2588   0.3442   0.2606     O
C       0.2609   0.6738   0.1035     C
H       0.2625   0.9372   0.7207     H
C       0.2634   0.0928   0.5094     C
H       0.2635   0.4018    0.944     H
C       0.2674   0.0005   0.0711     C
C       0.2684   0.3543   0.3625     C
C        0.269   0.4572   0.9183     C
H       0.2695   0.1513   0.3801     H
C       0.2716   0.3653   0.4694     C
H       0.2748    0.013   0.1089     H
H       0.2751   0.2064   0.9747     H
H       0.2824   0.0456   0.0324     H
H       0.2849   0.4838   0.9463     H
C       0.2853   0.6426     0.05     C
C       0.2871   0.1283   0.5556     C
H       0.2959   0.1839   0.5323     H
H       0.2976   0.9439   0.3603     H
O       0.2996    0.188   0.2568     O
H       0.3036   0.4831   0.0889     H
C        0.305   0.7121   0.9856     C
H       0.3068   0.3095   0.5974     H
C        0.308   0.8574   0.1334     C
O       0.3085   0.2074   0.0828     O
H       0.3091   0.8681   0.1724     H
H       0.3128   0.9795   0.5714     H
H       0.3142    0.693   0.9511     H
H       0.3176   0.6966   0.1122     H
H       0.3185   0.8726   0.8595     H
H       0.3189   0.0645   0.7364     H
H       0.3198   0.4642    0.886     H
C         0.32   0.9292   0.8386     C
C       0.3239   0.9136   0.0125     C
C       0.3253    0.193   0.8745     C
H       0.3257   0.4564   0.5316     H
H       0.3278   0.8587   0.7514     H
C       0.3286   0.9153   0.7297     C
C       0.3325   0.1318   0.3946     C
H       0.3387   0.9602   0.9749     H
C        0.339   0.9289   0.0759     C
H       0.3418   0.1506   0.9153     H
H       0.3427   0.4129   0.7021     H
H       0.3465   0.1032    0.578     H
H       0.3474   0.2418   0.8744     H
O       0.3477   0.3375   0.1296     O
H       0.3491   0.9495   0.8674     H
C       0.3493   0.0982   0.4613     C
H       0.3523    0.813   0.1379     H
H       0.3563   0.1823   0.8392     H
H       0.3629    0.737   0.9897     H
H       0.3648   0.9287   0.6893     H
C       0.3654   0.5017   0.0894     C
H       0.3667     0.87    0.013     H
C        0.368   0.3302   0.3687     C
C       0.3713   0.5827   0.0734     C
C       0.3773   0.3484   0.4711     C
C       0.3799   0.9512    0.776     C
H       0.3811   0.5474   0.6103     H
C       0.3843    0.041   0.7446     C
C       0.3865    0.167   0.2768     C
H       0.3953   0.5262   0.7261     H
H        0.398   0.3155   0.3366     H
C       0.4084   0.1378   0.3469     C
H       0.4086   0.8753   0.2716     H
C         0.41    0.395   0.7014     C
H       0.4164   0.0594   0.7736     H
H       0.4175   0.3673   0.6725     H
H       0.4189   0.6737   0.8366     H
H       0.4202   0.0557   0.7041     H
H       0.4202   0.0559    0.081     H
Mn     0.42318  0.21357   0.1396    Mn
C       0.4237   0.3273   0.4216     C
H       0.4291   0.3599   0.7448     H
O       0.4292   0.3518   0.5193     O
C       0.4318   0.3661   0.1206     C
H       0.4393   0.9971   0.2745     H
C       0.4433   0.4469    0.106     C
C       0.4485   0.5296   0.6098     C
C       0.4496   0.0707   0.4822     C
C       0.4497   0.9472   0.0796     C
O        0.455   0.1693   0.2371     O
H       0.4552   0.5826   0.9402     H
H       0.4576   0.5068   0.5776     H
C       0.4627   0.5086   0.7255     C
O       0.4653   0.0366   0.5452     O
C       0.4662   0.6088   0.0813     C
H       0.4679   0.3415   0.9357     H
C       0.4706   0.0187   0.0831     C
O       0.4726   0.6824   0.0746     O
C       0.4726   0.8972   0.2595     C
H       0.4749   0.9248   0.2124     H
C        0.476   0.4675   0.6771     C
H        0.476   0.5451    0.888     H
H       0.4761   0.9268   0.3378     H
H       0.4799   0.8561   0.8843     H
H       0.4811   0.4719   0.7685     H
C       0.4853   0.9139   0.7868     C
C       0.4866   0.6637   0.8508     C
C       0.4877   0.9535   0.2911     C
H       0.4895   0.5738   0.5991     H
C       0.4969   0.5844   0.9036     C
C       0.5005   0.1129   0.3694     C
H       0.5017    0.703    0.868     H
O       0.5031    0.822   0.0796     O
H       0.5033   0.5533   0.7122     H
O       0.5053   0.3191    0.123     O
O       0.5185   0.1527   0.1035     O
C       0.5209     0.08   0.4351     C
O        0.521   0.9697   0.6751     O
C        0.522   0.8662   0.8485     C
C       0.5251   0.3048   0.4218     C
C       0.5251   0.8916   0.0828     C
C       0.5331   0.4751    0.109     C
H       0.5344   0.6402   0.7685     H
H       0.5362   0.3183   0.8452     H
C       0.5369   0.3486   0.9247     C
H       0.5439   0.4038   0.8966     H
H       0.5439   0.7958   0.3269     H
H       0.5476   0.7964   0.2559     H
H       0.5477   0.2894   0.3883     H
C       0.5484   0.5518   0.0992     C
O       0.5496   0.2112   0.6007     O
O       0.5496   0.3873   0.5957     O
H       0.5504   0.7284   0.7591     H
H       0.5512   0.2443   0.9114     H
C       0.5512    0.928   0.7329     C
H       0.5514   0.1183   0.3394     H
C       0.5531    0.829   0.2811     C
C       0.5547   0.6738   0.7901     C
Mn     0.56047  0.33783  0.53573    Mn
C        0.567   0.0348   0.0898     C
C       0.5686   0.2987   0.8873     C
H       0.5728   0.3699   0.0032     H
H       0.5739   0.2795   0.0169     H
Mn     0.58174  0.99828  0.59211    Mn
Mn     0.58231  0.74021  0.07275    Mn
H       0.5871   0.2096   0.7143     H
N       0.5871   0.3037   0.4628     N
C       0.5871   0.9864   0.2809     C
H       0.5872   0.4395   0.1184     H
C       0.5876   0.4391   0.6746     C
C       0.5885   0.1094    0.098     C
H       0.5922    0.021   0.3043     H
C       0.5922   0.3306   0.9853     C
O       0.5922   0.7858   0.9739     O
H       0.5986   0.0167   0.2347     H
C       0.6049   0.5646   0.9263     C
H       0.6112   0.5119   0.9603     H
H       0.6124   0.2521   0.7955     H
C       0.6132   0.1569   0.6197     C
C       0.6156   0.8334   0.8598     C
C       0.6175   0.0468   0.4535     C
C       0.6176   0.4033   0.6317     C
C       0.6215   0.9076   0.0895     C
H       0.6254   0.6021    0.944     H
O       0.6304   0.1062   0.5941     O
H       0.6351   0.4742   0.7441     H
C       0.6424   0.9792    0.093     C
C       0.6431   0.5729   0.1088     C
H       0.6456   0.8871   0.3525     H
H       0.6457   0.5307   0.8518     H
C       0.6474    0.783    0.929     C
C       0.6492   0.8926   0.7442     C
C       0.6527   0.1935   0.7131     C
C       0.6534   0.8625   0.2707     C
N       0.6553   0.0082   0.5116     N
C       0.6553   0.4503   0.7154     C
C       0.6591   0.6505   0.8142     C
H       0.6604   0.7171   0.6892     H
H       0.6607   0.0535   0.4188     H
C       0.6617   0.9172   0.3064     C
H       0.6622   0.8935   0.2238     H
C       0.6681   0.5692   0.8685     C
N       0.6708   0.6442   0.0989     N
O       0.6737   0.1266   0.0967     O
H       0.6738   0.7226   0.2792     H
C       0.6792    0.845   0.8088     C
C       0.6795   0.2396   0.7978     C
H         0.68   0.6891   0.8312     H
C       0.6814   0.3024   0.8773     C
C       0.6827   0.1614   0.6695     C
H       0.6864   0.2171   0.3988     H
C       0.6895    0.269   0.4659     C
H       0.6909   0.5319   0.1237     H
H       0.6911    0.218   0.5032     H
H       0.6916   0.7511   0.5779     H
H       0.6948   0.3583   0.8532     H
O       0.7002   0.8268   0.4557     O
N       0.7015    0.787   0.0872     N
C        0.702    0.329   0.9772     C
C       0.7039   0.8553   0.0917     C
N       0.7069   0.3349   0.5393     N
H       0.7069   0.9899   0.0975     H
N       0.7085   0.9473   0.6328     N
H       0.7139   0.2226   0.9702     H
C       0.7154   0.3787   0.6297     C
C       0.7183   0.2029    0.756     C
C       0.7197   0.6879   0.7014     C
C        0.722   0.9082   0.6935     C
H       0.7227   0.3822   0.9521     H
O       0.7231   0.7439   0.9366     O
H       0.7275   0.5929   0.2917     H
C       0.7289   0.2524   0.4075     C
H       0.7292   0.3016   0.3692     H
N       0.7305   0.2579   0.8403     N
H       0.7325   0.3102   0.0198     H
N       0.7325   0.6481   0.7622     N
C       0.7338   0.2761   0.9431     C
C       0.7338   0.7355   0.2899     C
N       0.7371   0.8031    0.293     N
H       0.7384   0.9066   0.5329     H
H       0.7423   0.8217   0.8164     H
H       0.7431   0.0477   0.2799     H
C       0.7514    0.962   0.5234     C
C        0.753   0.4257   0.7133     C
C        0.754   0.3513   0.5795     C
C       0.7541   0.3212   0.4832     C
H       0.7552   0.3723   0.4459     H
O       0.7565   0.4604   0.2854     O
C       0.7565   0.7317   0.5851     C
H       0.7652   0.8717   0.0969     H
N       0.7652   0.9367   0.3033     N
H       0.7656   0.5198   0.9736     H
H       0.7686   0.6443   0.1649     H
C       0.7714   0.6546   0.1181     C
N       0.7775   0.5518   0.8828     N
C       0.7795   0.7877   0.4647     C
C       0.7819   0.1316   0.6749     C
C       0.7831   0.3899   0.6705     C
H       0.7853   0.8878   0.7063     H
C       0.7878    0.692   0.6499     C
C       0.7905   0.9663   0.5847     C
C       0.7906   0.7408   0.0827     C
C       0.7916   0.0071   0.2919     C
C       0.7919   0.6028   0.2973     C
H        0.799   0.7495   0.0363     H
H       0.7994   0.1005   0.6512     H
H       0.7999   0.9808   0.4292     H
O       0.8028   0.4855   0.7825     O
H       0.8072    0.021   0.5747     H
C       0.8097   0.5252   0.9395     C
C        0.813   0.6771   0.3013     C
C        0.816   0.7433   0.5323     C
C       0.8201   0.4297   0.7635     C
C       0.8205    0.184   0.7546     C
H       0.8219   0.3454   0.5772     H
C       0.8253    0.989   0.4663     C
H       0.8321   0.1638   0.4569     H
C        0.833   0.2147   0.4204     C
H        0.835   0.0452    0.453     H
O       0.8355    0.784   0.4196     O
H       0.8388    0.547   0.1364     H
C       0.8394    0.473    0.292     C
N       0.8417   0.2705   0.9277     N
H       0.8462   0.1456   0.2711     H
H       0.8484   0.3734   0.6691     H
C       0.8516   0.6014   0.1087     C
H       0.8518    0.606   0.0637     H
Mn     0.85257  0.84222  0.31961    Mn
Mn     0.85442  0.58392  0.80034    Mn
C       0.8545   0.1432   0.7109     C
H       0.8578    0.206   0.3822     H
C       0.8589   0.2868   0.4961     C
H       0.8605   0.2382   0.5351     H
C       0.8641   0.5473   0.3017     C
H       0.8707   0.8599   0.6098     H
Mn     0.87151  0.24629  0.85024    Mn
H       0.8808   0.2833   0.0054     H
H       0.8814   0.7533   0.1496     H
H       0.8816   0.4676   0.0539     H
O       0.8842   0.2012   0.7865     O
C       0.8844   0.9139   0.6032     C
C       0.8851   0.6626   0.6606     C
C       0.8861   0.7606   0.1039     C
O        0.887   0.3721    0.789     O
C       0.8896   0.0278   0.2961     C
H       0.8987   0.8158   0.0784     H
H       0.8996    0.324   0.5037     H
C       0.8999   0.1095   0.2819     C
C       0.9003   0.2689   0.4361     C
C       0.9041   0.2701   0.9709     C
H       0.9054   0.3182   0.3983     H
H       0.9096   0.9135   0.6438     H
C       0.9101   0.5024   0.9556     C
O        0.911   0.4315   0.2879     O
C       0.9121   0.6931   0.3083     C
H       0.9131   0.8883   0.4928     H
C       0.9145   0.7089   0.5453     C
C       0.9214   0.9429   0.4868     C
O       0.9215   0.6244   0.7218     O
C       0.9316   0.4718   0.0235     C
O       0.9323   0.2641   0.2698     O
O       0.9333   0.7584   0.3104     O
H       0.9416   0.0299   0.6722     H
C         0.95   0.6705    0.606     C
C       0.9527   0.6206    0.125     C
H       0.9537   0.0124   0.7868     H
H       0.9555   0.7136   0.5099     H
H       0.9585   0.6025   0.1721     H
C       0.9601   0.5653   0.3092     C
C       0.9601   0.9449   0.5494     C
C       0.9604    0.116   0.7093     C
O       0.9605   0.8987   0.3225     O
H       0.9618   0.1125    0.617     H
H       0.9655   0.2436    0.446     H
H       0.9693   0.9644    0.452     H
C       0.9707   0.7077   0.0944     C
C       0.9712   0.9744   0.3115     C
O       0.9715   0.5383   0.8463     O
H       0.9739   0.9988   0.5427     H
O       0.9757   0.4173   0.1534     O
H       0.9796   0.0827   0.8061     H
C       0.9798   0.0759     0.66     C
H       0.9825   0.7225   0.0479     H
C       0.9903   0.5086   0.9094     C
C       0.9909   0.0589   0.7746     C
C       0.9911   0.6337   0.3107     C
C       0.9938   0.1331   0.2849     C
