data_I
_chemical_name_common  '/home/zhangsd/repos/MofS-CGCNN/ML/data/TSD/clean_cifs/UQEGII_clean'
_cell_length_a 13.61200
_cell_length_b 13.61200
_cell_length_c 29.95600
_cell_angle_alpha 90.00000
_cell_angle_beta  90.00000
_cell_angle_gamma 90.00000
_space_group_name_H-M_alt      'P 1'


loop_
_space_group_symop_operation_xyz
  'x, y, z' 

loop_
_atom_site_label
_atom_site_fract_x
_atom_site_fract_y
_atom_site_fract_z
_atom_site_type_symbol
Ni         0.0      0.0  0.24727    Ni
O          0.0      0.0    0.316     O
V          0.0      0.0  0.37039     V
P          0.0      0.0      0.5     P
V          0.0      0.0  0.62961     V
O          0.0      0.0    0.684     O
Ni         0.0      0.0  0.75273    Ni
H       0.0001   0.6635   0.3432     H
H       0.0001   0.6635   0.6568     H
O       0.0134   0.0896     0.47     O
O       0.0134   0.0896     0.53     O
N       0.0217   0.1999   0.2863     N
N       0.0217   0.1999   0.7137     N
O       0.0246   0.1286    0.394     O
O       0.0246   0.1286    0.606     O
H       0.0365   0.4215   0.3121     H
H       0.0365   0.4215   0.6879     H
O       0.0489   0.7486   0.4555     O
O       0.0489   0.7486   0.5445     O
Mo       0.052  0.26028      0.5    Mo
C       0.0532   0.3591   0.3249     C
C       0.0532   0.3591   0.6751     C
N       0.0567   0.1417   0.2532     N
N       0.0567   0.1417   0.7468     N
C       0.0721   0.2859   0.2882     C
C       0.0721   0.2859   0.7118     C
H       0.0785   0.4635   0.1879     H
H       0.0785   0.4635   0.8121     H
H        0.088   0.8345   0.1891     H
H        0.088   0.8345   0.8109     H
O       0.0896   0.9866     0.47     O
O       0.0896   0.9866     0.53     O
Mo     0.10898  0.83726  0.41934    Mo
Mo     0.10898  0.83726  0.58066    Mo
H       0.1113    0.366   0.3428     H
H       0.1113    0.366   0.6572     H
O       0.1286   0.9754    0.394     O
O       0.1286   0.9754    0.606     O
C        0.131   0.1942   0.2342     C
C        0.131   0.1942   0.7658     C
H        0.134   0.3887   0.1572     H
H        0.134   0.3887   0.8428     H
C       0.1409   0.4468   0.1751     C
C       0.1409   0.4468   0.8249     C
O       0.1412   0.2117   0.4556     O
O       0.1412   0.2117   0.5444     O
N       0.1417   0.9433   0.2532     N
N       0.1417   0.9433   0.7468     N
C       0.1418   0.2837   0.2554     C
C       0.1418   0.2837   0.7446     C
H       0.1468   0.7423   0.2054     H
H       0.1468   0.7423   0.7946     H
C        0.152   0.8098   0.1965     C
C        0.152   0.8098   0.8035     C
V       0.1621   0.7528      0.5     V
Mo     0.16274  0.10898  0.41934    Mo
Mo     0.16274  0.10898  0.58066    Mo
H       0.1635   0.5001   0.1568     H
H       0.1635   0.5001   0.8432     H
H       0.1655    0.088   0.1891     H
H       0.1655    0.088   0.8109     H
H       0.1852   0.1942   0.1709     H
H       0.1852   0.1942   0.8291     H
C       0.1902    0.152   0.1965     C
C       0.1902    0.152   0.8035     C
H       0.1942   0.8148   0.1709     H
H       0.1942   0.8148   0.8291     H
C       0.1942    0.869   0.2342     C
C       0.1942    0.869   0.7658     C
N       0.1999   0.9783   0.2863     N
N       0.1999   0.9783   0.7137     N
O       0.2117   0.8588   0.4556     O
O       0.2117   0.8588   0.5444     O
C       0.2141   0.4279   0.2118     C
C       0.2141   0.4279   0.7882     C
C       0.2163   0.3582   0.2446     C
C       0.2163   0.3582   0.7554     C
Mo     0.23972    0.448      0.0    Mo
H       0.2423   0.6468   0.2946     H
H       0.2423   0.6468   0.7054     H
V       0.2472   0.1621      0.5     V
O       0.2486   0.5489   0.0445     O
O       0.2486   0.5489   0.9555     O
O       0.2514   0.0489   0.4555     O
O       0.2514   0.0489   0.5445     O
V       0.2528   0.6621      0.0     V
H       0.2577   0.1468   0.2054     H
H       0.2577   0.1468   0.7946     H
Mo     0.26028    0.948      0.5    Mo
C       0.2837   0.8582   0.2554     C
C       0.2837   0.8582   0.7446     C
C       0.2859   0.9279   0.2882     C
C       0.2859   0.9279   0.7118     C
O       0.2883   0.3588   0.0444     O
O       0.2883   0.3588   0.9556     O
N       0.3001   0.4783   0.2137     N
N       0.3001   0.4783   0.7863     N
H       0.3058   0.3148   0.3291     H
H       0.3058   0.3148   0.6709     H
C       0.3058    0.369   0.2658     C
C       0.3058    0.369   0.7342     C
C       0.3098    0.652   0.3035     C
C       0.3098    0.652   0.6965     C
H       0.3148   0.6942   0.3291     H
H       0.3148   0.6942   0.6709     H
H       0.3345    0.588   0.3109     H
H       0.3345    0.588   0.6891     H
H       0.3365   0.0001   0.3432     H
H       0.3365   0.0001   0.6568     H
Mo     0.33726  0.60898  0.08066    Mo
Mo     0.33726  0.60898  0.91934    Mo
V       0.3379   0.2528      0.0     V
C        0.348   0.3098   0.3035     C
C        0.348   0.3098   0.6965     C
H       0.3532   0.2423   0.2946     H
H       0.3532   0.2423   0.7054     H
C       0.3582   0.7837   0.2446     C
C       0.3582   0.7837   0.7554     C
N       0.3583   0.4433   0.2468     N
N       0.3583   0.4433   0.7532     N
O       0.3588   0.7117   0.0444     O
O       0.3588   0.7117   0.9556     O
C       0.3591   0.9468   0.3249     C
C       0.3591   0.9468   0.6751     C
H        0.366   0.8887   0.3428     H
H        0.366   0.8887   0.6572     H
C        0.369   0.6942   0.2658     C
C        0.369   0.6942   0.7342     C
O       0.3714   0.4754    0.106     O
O       0.3714   0.4754    0.894     O
H       0.3887    0.866   0.1572     H
H       0.3887    0.866   0.8428     H
Mo     0.39102  0.33726  0.08066    Mo
Mo     0.39102  0.33726  0.91934    Mo
O       0.4104   0.4866     0.03     O
O       0.4104   0.4866     0.97     O
H        0.412   0.3345   0.3109     H
H        0.412   0.3345   0.6891     H
H       0.4215   0.9635   0.3121     H
H       0.4215   0.9635   0.6879     H
C       0.4279   0.7859   0.2118     C
C       0.4279   0.7859   0.7882     C
N       0.4433   0.6417   0.2468     N
N       0.4433   0.6417   0.7532     N
C       0.4468   0.8591   0.1751     C
C       0.4468   0.8591   0.8249     C
Mo       0.448  0.76028      0.0    Mo
O       0.4511   0.2486   0.0445     O
O       0.4511   0.2486   0.9555     O
H       0.4635   0.9215   0.1879     H
H       0.4635   0.9215   0.8121     H
O       0.4754   0.6286    0.106     O
O       0.4754   0.6286    0.894     O
N       0.4783   0.6999   0.2137     N
N       0.4783   0.6999   0.7863     N
O       0.4866   0.5896     0.03     O
O       0.4866   0.5896     0.97     O
H       0.4999   0.1635   0.1568     H
H       0.4999   0.1635   0.8432     H
P          0.5      0.5      0.0     P
V          0.5      0.5  0.12961     V
O          0.5      0.5    0.184     O
Ni         0.5      0.5  0.25273    Ni
Ni         0.5      0.5  0.74727    Ni
O          0.5      0.5    0.816     O
V          0.5      0.5  0.87039     V
H       0.5001   0.8365   0.1568     H
H       0.5001   0.8365   0.8432     H
O       0.5134   0.4104     0.03     O
O       0.5134   0.4104     0.97     O
N       0.5217   0.3001   0.2137     N
N       0.5217   0.3001   0.7863     N
O       0.5246   0.3714    0.106     O
O       0.5246   0.3714    0.894     O
H       0.5365   0.0785   0.1879     H
H       0.5365   0.0785   0.8121     H
O       0.5489   0.7514   0.0445     O
O       0.5489   0.7514   0.9555     O
Mo       0.552  0.23972      0.0    Mo
C       0.5532   0.1409   0.1751     C
C       0.5532   0.1409   0.8249     C
N       0.5567   0.3583   0.2468     N
N       0.5567   0.3583   0.7532     N
C       0.5721   0.2141   0.2118     C
C       0.5721   0.2141   0.7882     C
H       0.5785   0.0365   0.3121     H
H       0.5785   0.0365   0.6879     H
H        0.588   0.6655   0.3109     H
H        0.588   0.6655   0.6891     H
O       0.5896   0.5134     0.03     O
O       0.5896   0.5134     0.97     O
Mo     0.60898  0.66274  0.08066    Mo
Mo     0.60898  0.66274  0.91934    Mo
H       0.6113    0.134   0.1572     H
H       0.6113    0.134   0.8428     H
O       0.6286   0.5246    0.106     O
O       0.6286   0.5246    0.894     O
C        0.631   0.3058   0.2658     C
C        0.631   0.3058   0.7342     C
H        0.634   0.1113   0.3428     H
H        0.634   0.1113   0.6572     H
C       0.6409   0.0532   0.3249     C
C       0.6409   0.0532   0.6751     C
O       0.6412   0.2883   0.0444     O
O       0.6412   0.2883   0.9556     O
N       0.6417   0.5567   0.2468     N
N       0.6417   0.5567   0.7532     N
C       0.6418   0.2163   0.2446     C
C       0.6418   0.2163   0.7554     C
H       0.6468   0.7577   0.2946     H
H       0.6468   0.7577   0.7054     H
C        0.652   0.6902   0.3035     C
C        0.652   0.6902   0.6965     C
V       0.6621   0.7472      0.0     V
Mo     0.66274  0.39102  0.08066    Mo
Mo     0.66274  0.39102  0.91934    Mo
H       0.6635   0.9999   0.3432     H
H       0.6635   0.9999   0.6568     H
H       0.6655    0.412   0.3109     H
H       0.6655    0.412   0.6891     H
H       0.6852   0.3058   0.3291     H
H       0.6852   0.3058   0.6709     H
C       0.6902    0.348   0.3035     C
C       0.6902    0.348   0.6965     C
C       0.6942    0.631   0.2658     C
C       0.6942    0.631   0.7342     C
H       0.6942   0.6852   0.3291     H
H       0.6942   0.6852   0.6709     H
N       0.6999   0.5217   0.2137     N
N       0.6999   0.5217   0.7863     N
O       0.7117   0.6412   0.0444     O
O       0.7117   0.6412   0.9556     O
C       0.7141   0.0721   0.2882     C
C       0.7141   0.0721   0.7118     C
C       0.7163   0.1418   0.2554     C
C       0.7163   0.1418   0.7446     C
Mo     0.73972    0.052      0.5    Mo
H       0.7423   0.8532   0.2054     H
H       0.7423   0.8532   0.7946     H
V       0.7472   0.3379      0.0     V
O       0.7486   0.9511   0.4555     O
O       0.7486   0.9511   0.5445     O
O       0.7514   0.4511   0.0445     O
O       0.7514   0.4511   0.9555     O
V       0.7528   0.8379      0.5     V
H       0.7577   0.3532   0.2946     H
H       0.7577   0.3532   0.7054     H
Mo     0.76028    0.552      0.0    Mo
C       0.7837   0.6418   0.2446     C
C       0.7837   0.6418   0.7554     C
C       0.7859   0.5721   0.2118     C
C       0.7859   0.5721   0.7882     C
O       0.7883   0.1412   0.4556     O
O       0.7883   0.1412   0.5444     O
N       0.8001   0.0217   0.2863     N
N       0.8001   0.0217   0.7137     N
C       0.8058    0.131   0.2342     C
C       0.8058    0.131   0.7658     C
H       0.8058   0.1852   0.1709     H
H       0.8058   0.1852   0.8291     H
C       0.8098    0.848   0.1965     C
C       0.8098    0.848   0.8035     C
H       0.8148   0.8058   0.1709     H
H       0.8148   0.8058   0.8291     H
H       0.8345    0.912   0.1891     H
H       0.8345    0.912   0.8109     H
H       0.8365   0.4999   0.1568     H
H       0.8365   0.4999   0.8432     H
Mo     0.83726  0.89102  0.41934    Mo
Mo     0.83726  0.89102  0.58066    Mo
V       0.8379   0.2472      0.5     V
C        0.848   0.1902   0.1965     C
C        0.848   0.1902   0.8035     C
H       0.8532   0.2577   0.2054     H
H       0.8532   0.2577   0.7946     H
C       0.8582   0.7163   0.2554     C
C       0.8582   0.7163   0.7446     C
N       0.8583   0.0567   0.2532     N
N       0.8583   0.0567   0.7468     N
O       0.8588   0.7883   0.4556     O
O       0.8588   0.7883   0.5444     O
C       0.8591   0.5532   0.1751     C
C       0.8591   0.5532   0.8249     C
H        0.866   0.6113   0.1572     H
H        0.866   0.6113   0.8428     H
C        0.869   0.8058   0.2342     C
C        0.869   0.8058   0.7658     C
O       0.8714   0.0246    0.394     O
O       0.8714   0.0246    0.606     O
H       0.8887    0.634   0.3428     H
H       0.8887    0.634   0.6572     H
Mo     0.89102  0.16274  0.41934    Mo
Mo     0.89102  0.16274  0.58066    Mo
O       0.9104   0.0134     0.47     O
O       0.9104   0.0134     0.53     O
H        0.912   0.1655   0.1891     H
H        0.912   0.1655   0.8109     H
H       0.9215   0.5365   0.1879     H
H       0.9215   0.5365   0.8121     H
C       0.9279   0.7141   0.2882     C
C       0.9279   0.7141   0.7118     C
N       0.9433   0.8583   0.2532     N
N       0.9433   0.8583   0.7468     N
C       0.9468   0.6409   0.3249     C
C       0.9468   0.6409   0.6751     C
Mo       0.948  0.73972      0.5    Mo
O       0.9511   0.2514   0.4555     O
O       0.9511   0.2514   0.5445     O
H       0.9635   0.5785   0.3121     H
H       0.9635   0.5785   0.6879     H
O       0.9754   0.8714    0.394     O
O       0.9754   0.8714    0.606     O
N       0.9783   0.8001   0.2863     N
N       0.9783   0.8001   0.7137     N
O       0.9866   0.9104     0.47     O
O       0.9866   0.9104     0.53     O
H       0.9999   0.3365   0.3432     H
H       0.9999   0.3365   0.6568     H
