data_I
_chemical_name_common  '/home/zhangsd/repos/MofS-CGCNN/ML/data/TSD/clean_cifs/URENEM_clean'
_cell_length_a 14.26100
_cell_length_b 16.66400
_cell_length_c 26.16000
_cell_angle_alpha 90.00000
_cell_angle_beta  90.00000
_cell_angle_gamma 90.00000
_space_group_name_H-M_alt      'P 1'


loop_
_space_group_symop_operation_xyz
  'x, y, z' 

loop_
_atom_site_label
_atom_site_fract_x
_atom_site_fract_y
_atom_site_fract_z
_atom_site_type_symbol
C       0.0007  0.64649  0.50451     C
C       0.0013   0.6369  0.80407     C
C       0.0116  0.72774   0.4952     C
H       0.0195   0.6828   0.8217     H
C       0.0226  0.54795  0.73308     C
O      0.02607  0.26413  0.60404     O
C       0.0272  0.79201  0.92785     C
O      0.03334  0.86891  0.93712     O
H       0.0397   0.6386   0.9279     H
O       0.0422  0.52908  0.55004     O
O      0.04497  0.46123  0.66464     O
H       0.0462   0.3194   0.0448     H
C       0.0464   0.6169  0.75994     C
C       0.0501   0.0019  0.74784     C
C       0.0513  0.26458   0.0388     C
H        0.059    0.757    0.511     H
Zn     0.06375  0.43611  0.59352    Zn
C       0.0644  0.60138  0.54235     C
C       0.0678  0.52739  0.68412     C
H       0.0686   0.9563   0.7658     H
C       0.0696  0.10285   0.0195     C
C       0.0718  0.08986  0.67665     C
H       0.0761   0.0485   0.0123     H
C       0.0803  0.65695  0.95311     C
C       0.0892  0.73803  0.95998     C
H       0.0939   0.6499   0.7476     H
C       0.0966   0.0214  0.70274     C
H        0.098   0.1641   0.6226     H
N      0.11701  0.11789  0.63292     N
H       0.1198   0.5454   0.9778     H
C       0.1205  0.22148  0.06368     C
O      0.12672  0.57605  0.66499     O
C       0.1295  0.60018  0.98228     C
C       0.1304  0.13881  0.05397     C
O      0.13359  0.63696  0.56026     O
H       0.1344   0.8776   0.9822     H
H        0.144   0.9884   0.6903     H
C       0.1557   0.7667  0.99697     C
N       0.1643  0.84924  0.00435     N
O      0.17499  0.34307  0.09864     O
N       0.1826  0.97113  0.04024     N
O       0.1851  0.39345  0.57781     O
C      0.18554  0.08517  0.60384     C
C       0.1859  0.26851  0.09789     C
C       0.1942  0.62919  0.01858     C
N      0.19984  0.09593  0.07925     N
C       0.2082  0.71189  0.02434     C
N      0.20933  0.00794  0.60858     N
C       0.2111  0.89334  0.04007     C
N      0.22332  0.13906  0.56951     N
C       0.2242  0.01633  0.07527     C
Zn     0.22476  0.57662  0.60871    Zn
O      0.23092  0.50009  0.05188     O
H       0.2326   0.1233   0.1006     H
O       0.2463  0.23159  0.12427     O
H       0.2463   0.2698    0.547     H
C       0.2499  0.57394  0.05118     C
C       0.2501  0.42606  0.55118     C
H       0.2537   0.7302    0.047     H
O       0.2537  0.76841  0.62427     O
H       0.2674   0.8767   0.6006     H
O      0.26908  0.49991  0.55188     O
Zn     0.27524  0.42338  0.10871    Zn
C       0.2758  0.98367  0.57527     C
N      0.27668  0.86094  0.06951     N
C       0.2889  0.10666  0.54007     C
N      0.29067  0.99206  0.10858     N
C       0.2918  0.28811  0.52434     C
N      0.30016  0.90407  0.57925     N
C       0.3058  0.37081  0.51858     C
C       0.3141  0.73149  0.59789     C
C      0.31446  0.91483  0.10384     C
O       0.3149  0.60655  0.07781     O
N       0.3174  0.02887  0.54024     N
O      0.32501  0.65693  0.59864     O
N       0.3357  0.15076  0.50435     N
C       0.3443   0.2333  0.49697     C
H        0.356   0.0116   0.1903     H
H       0.3656   0.1224   0.4822     H
O      0.36641  0.36304  0.06026     O
C       0.3696  0.86119  0.55397     C
C       0.3705  0.39982  0.48228     C
O      0.37328  0.42395  0.16499     O
C       0.3795  0.77852  0.56368     C
H       0.3802   0.4546   0.4778     H
N      0.38299  0.88211  0.13292     N
H        0.402   0.8359   0.1226     H
C       0.4034   0.9786  0.20274     C
H       0.4061   0.3501   0.2476     H
C       0.4108  0.26197  0.45998     C
C       0.4197  0.34305  0.45311     C
H       0.4239   0.9515   0.5123     H
C       0.4282  0.91014  0.17665     C
C       0.4304  0.89715   0.5195     C
H       0.4314   0.0437   0.2658     H
C       0.4322  0.47261  0.18412     C
C       0.4356  0.39862  0.04235     C
Zn     0.43625  0.56389  0.09352    Zn
H        0.441    0.243    0.011     H
C       0.4487  0.73542   0.5388     C
C       0.4499   0.9981  0.24784     C
C       0.4536   0.3831  0.25994     C
H       0.4538   0.6806   0.5448     H
O      0.45503  0.53877  0.16464     O
O       0.4578  0.47092  0.05004     O
H       0.4603   0.3614   0.4279     H
O      0.46666  0.13109  0.43712     O
C       0.4728  0.20799  0.42785     C
O      0.47393  0.73587  0.10404     O
C       0.4774  0.45205  0.23308     C
H       0.4805   0.3172   0.3217     H
C       0.4884  0.27226   0.9952     C
C       0.4987   0.3631  0.30407     C
C       0.4993  0.35351  0.00451     C
C       0.5007  0.85351  0.49549     C
C       0.5013   0.8631  0.19593     C
C       0.5116  0.77226   0.5048     C
H       0.5195   0.8172   0.1783     H
C       0.5226  0.95205  0.26692     C
O      0.52607  0.23587  0.39596     O
C       0.5272  0.70799  0.07215     C
O      0.53334  0.63109  0.06288     O
H       0.5397   0.8614   0.0721     H
O       0.5422  0.97092  0.44996     O
O      0.54497  0.03877  0.33536     O
H       0.5462   0.1806   0.9552     H
C       0.5464   0.8831  0.24006     C
C       0.5501   0.4981  0.25216     C
C       0.5513  0.23542   0.9612     C
H        0.559    0.743    0.489     H
Zn     0.56375  0.06389  0.40648    Zn
C       0.5644  0.89862  0.45765     C
C       0.5678  0.97261  0.31588     C
H       0.5686   0.5437   0.2342     H
C       0.5696  0.39715   0.9805     C
C       0.5718  0.41014  0.32335     C
H       0.5761   0.4515   0.9877     H
C       0.5803  0.84305  0.04689     C
C       0.5892  0.76197  0.04002     C
H       0.5939   0.8501   0.2524     H
C       0.5966   0.4786  0.29726     C
H        0.598   0.3359   0.3774     H
N      0.61701  0.38211  0.36708     N
H       0.6198   0.9546   0.0222     H
C       0.6205  0.27852  0.93632     C
O      0.62672  0.92395  0.33501     O
C       0.6295  0.89982  0.01772     C
C       0.6304  0.36119  0.94603     C
O      0.63359  0.86304  0.43974     O
H       0.6344   0.6224   0.0178     H
H        0.644   0.5116   0.3097     H
C       0.6557   0.7333  0.00303     C
N       0.6643  0.65076  0.99565     N
O      0.67499  0.15693  0.90136     O
N       0.6826  0.52887  0.95976     N
O       0.6851  0.10655  0.42219     O
C      0.68554  0.41483  0.39616     C
C       0.6859  0.23149  0.90211     C
C       0.6942  0.87081  0.98142     C
N      0.69984  0.40407  0.92075     N
C       0.7082  0.78811  0.97566     C
N      0.70933  0.49206  0.39142     N
C       0.7111  0.60666  0.95993     C
N      0.72332  0.36094  0.43049     N
C       0.7242  0.48367  0.92473     C
Zn     0.72476  0.92338  0.39129    Zn
O      0.73092  0.99991  0.94812     O
H       0.7326   0.3767   0.8994     H
H       0.7463   0.2302    0.453     H
O       0.7463  0.26841  0.87573     O
C       0.7499  0.92606  0.94882     C
C       0.7501  0.07394  0.44882     C
O       0.7537  0.73159  0.37573     O
H       0.7537   0.7698    0.953     H
H       0.7674   0.6233   0.3994     H
O      0.76908    9e-05  0.44812     O
Zn     0.77524  0.07662   0.8913    Zn
C       0.7758  0.51633  0.42473     C
N      0.77668  0.63906  0.93049     N
C       0.7889  0.39334  0.45993     C
N      0.79067  0.50794  0.89142     N
C       0.7918  0.21189  0.47566     C
N      0.80016  0.59593  0.42075     N
C       0.8058  0.12919  0.48142     C
C       0.8141  0.76851  0.40211     C
C      0.81446  0.58517  0.89616     C
O       0.8149  0.89345  0.92219     O
N       0.8174  0.47113  0.45976     N
O      0.82501  0.84307  0.40136     O
N       0.8357  0.34924  0.49565     N
C       0.8443   0.2667  0.50303     C
H        0.856   0.4884   0.8097     H
H       0.8656   0.3776   0.5178     H
O      0.86641  0.13696  0.93974     O
C       0.8696  0.63881  0.44603     C
C       0.8705  0.10018  0.51772     C
O      0.87328  0.07605  0.83501     O
C       0.8795  0.72148  0.43632     C
H       0.8802   0.0454   0.5222     H
N      0.88299  0.61789  0.86708     N
H        0.902   0.6641   0.8774     H
C       0.9034   0.5214  0.79726     C
H       0.9061   0.1499   0.7524     H
C       0.9108  0.23803  0.54002     C
C       0.9197  0.15695  0.54689     C
H       0.9239   0.5485   0.4877     H
C       0.9282  0.58986  0.82335     C
C       0.9304  0.60285   0.4805     C
H       0.9314   0.4563   0.7342     H
C       0.9322  0.02739  0.81588     C
C       0.9356  0.10138  0.95765     C
Zn     0.93625  0.93611  0.90648    Zn
H        0.941    0.257    0.989     H
C       0.9487  0.76458   0.4612     C
C       0.9499   0.5019  0.75216     C
C       0.9536   0.1169  0.74006     C
H       0.9538   0.8194   0.4552     H
O      0.95503  0.96123  0.83536     O
O       0.9578  0.02908  0.94996     O
H       0.9603   0.1386   0.5721     H
O      0.96666  0.36891  0.56288     O
C       0.9728  0.29201  0.57215     C
O      0.97393  0.76413  0.89596     O
C       0.9774  0.04795  0.76692     C
H       0.9805   0.1828   0.6783     H
C       0.9884  0.22774   0.0048     C
C       0.9987   0.1369  0.69593     C
C       0.9993  0.14649  0.99549     C
