data_I
_chemical_name_common  '/home/zhangsd/repos/MofS-CGCNN/ML/data/TSD/clean_cifs/UREVOE_clean'
_cell_length_a  8.84750
_cell_length_b 10.71600
_cell_length_c 18.89500
_cell_angle_alpha 75.52100
_cell_angle_beta  83.77700
_cell_angle_gamma 69.30600
_space_group_name_H-M_alt      'P 1'


loop_
_space_group_symop_operation_xyz
  'x, y, z' 

loop_
_atom_site_label
_atom_site_fract_x
_atom_site_fract_y
_atom_site_fract_z
_atom_site_type_symbol
Sm      0.0022    0.412  0.28695    Sm
H       0.0152   0.0095   0.2492     H
H       0.0244   0.3144   0.9259     H
N       0.0249   0.2929   0.0307     N
O       0.0627   0.6292   0.2556     O
H       0.0632   0.2865   0.1318     H
C       0.0724   0.7423    0.254     C
C       0.0779   0.3237   0.9629     C
C       0.0818   0.1356   0.7502     C
C       0.0819   0.0058   0.7511     C
O       0.0946   0.4293   0.4113     O
C       0.0995   0.3086   0.0838     C
O       0.1075   0.7322   0.7587     O
O       0.1485   0.4443   0.8195     O
H       0.2029   0.4414   0.5329     H
O       0.2043   0.7592   0.2535     O
C       0.2107   0.3699   0.9431     C
O       0.2198   0.3984   0.1895     O
H       0.2267    0.239   0.7551     H
C       0.2272   0.1524   0.7543     C
C       0.2275   0.8989   0.7525     C
C       0.2305   0.3569   0.0703     C
O       0.2341   0.4605   0.6601     O
C       0.2371   0.7559   0.7521     C
C       0.2443   0.4001   0.3961     C
C       0.2552   0.4078    0.864     C
C       0.2895   0.3846    0.999     C
O       0.2968   0.3937   0.3315     O
C       0.2992    0.388   0.1298     C
C        0.312   0.4034   0.5214     C
H       0.3306   0.7001    0.413     H
N       0.3582   0.7113    0.513     N
C       0.3614   0.3714   0.4544     C
C       0.3679   0.9277   0.7561     C
N       0.3723   0.0489   0.7571     N
O       0.3758   0.6731   0.7435     O
H       0.3795   0.4123   0.9888     H
C       0.3857   0.4163   0.6439     C
Sm     0.39655  0.53203  0.22375    Sm
O       0.4021    0.398   0.8496     O
C       0.4085   0.6808   0.4472     C
C       0.4316    0.377   0.5721     C
O       0.4324   0.4107   0.1188     O
H       0.4426   0.7076   0.6057     H
H       0.4658    0.856    0.758     H
C        0.474   0.6858   0.5605     C
O       0.4947   0.4104   0.6826     O
O       0.5053   0.5896   0.3174     O
C        0.526   0.3142   0.4395     C
H       0.5342    0.144    0.242     H
H       0.5574   0.2924   0.3943     H
O       0.5676   0.5893   0.8812     O
C       0.5684    0.623   0.4279     C
C       0.5915   0.3192   0.5528     C
O       0.5979    0.602   0.1504     O
Sm     0.60345  0.46797  0.77625    Sm
C       0.6143   0.5837   0.3561     C
H       0.6205   0.5877   0.0112     H
O       0.6242   0.3269   0.2565     O
N       0.6277   0.9511   0.2429     N
C       0.6321   0.0723   0.2439     C
C       0.6386   0.6286   0.5456     C
N       0.6418   0.2887    0.487     N
H       0.6694   0.2999    0.587     H
C        0.688   0.5966   0.4786     C
C       0.7008    0.612   0.8702     C
O       0.7032   0.6063   0.6685     O
C       0.7105   0.6154    0.001     C
C       0.7448   0.5922    0.136     C
C       0.7557   0.5999   0.6039     C
C       0.7629   0.2441   0.2479     C
O       0.7659   0.5395   0.3399     O
C       0.7695   0.6431   0.9297     C
C       0.7725   0.1011   0.2475     C
C       0.7728   0.8476   0.2457     C
H       0.7733    0.761   0.2449     H
O       0.7802   0.6016   0.8105     O
C       0.7893   0.6301   0.0569     C
O       0.7957   0.2408   0.7465     O
H       0.7971   0.5586   0.4671     H
O       0.8515   0.5557   0.1805     O
O       0.8925   0.2678   0.2413     O
C       0.9005   0.6914   0.9162     C
O       0.9054   0.5707   0.5887     O
C       0.9181   0.9942   0.2489     C
C       0.9182   0.8644   0.2498     C
C       0.9221   0.6763   0.0371     C
C       0.9276   0.2577    0.746     C
H       0.9368   0.7135   0.8682     H
O       0.9373   0.3708   0.7444     O
N       0.9751   0.7071   0.9693     N
H       0.9756   0.6856   0.0741     H
H       0.9848   0.9905   0.7508     H
Sm      0.9978    0.588  0.71305    Sm
