data_I
_chemical_name_common  '/home/zhangsd/repos/MofS-CGCNN/ML/data/TSD/clean_cifs/UTEXIB_clean'
_cell_length_a 15.46250
_cell_length_b 15.46250
_cell_length_c 20.04740
_cell_angle_alpha 90.00000
_cell_angle_beta  90.00000
_cell_angle_gamma 90.00000
_space_group_name_H-M_alt      'P 1'


loop_
_space_group_symop_operation_xyz
  'x, y, z' 

loop_
_atom_site_label
_atom_site_fract_x
_atom_site_fract_y
_atom_site_fract_z
_atom_site_type_symbol
N      0.00405  0.06605  0.92663     N
N      0.00405  0.43395  0.42663     N
C      0.00522  0.73835  0.41962     C
C      0.00522  0.76165  0.91962     C
C      0.00646  0.59402  0.63717     C
C      0.00646  0.90598  0.13717     C
C      0.00884  0.11891  0.71761     C
C      0.00884  0.38109  0.21761     C
C      0.01831  0.12843  0.64905     C
C      0.01831  0.37157  0.14905     C
H      0.03223  0.65307  0.75898     H
H      0.03223  0.84693  0.25898     H
C       0.0345   0.6905  0.88674     C
C       0.0345   0.8095  0.38674     C
H      0.04601  0.63712  0.65167     H
H      0.04601  0.86288  0.15167     H
C      0.04953  0.04953  0.82343     C
C      0.04953  0.45048  0.32343     C
H      0.05342   0.2206  0.07682     H
H      0.05342   0.2794  0.57682     H
C      0.05943  0.05943  0.75191     C
C      0.05943  0.44057  0.25191     C
N      0.06605  0.00405  0.92663     N
N      0.06605  0.49595  0.42663     N
N      0.07463  0.69709  0.44652     N
N      0.07463  0.80291  0.94652     N
C      0.07843  0.07843   0.6148     C
C      0.07843  0.42157   0.1148     C
H      0.08492  0.08492  0.56794     H
H      0.08492  0.41508  0.06794     H
Co     0.08575  0.58575      0.5    Co
Co     0.08575  0.91425      0.0    Co
C      0.09402  0.50646  0.36283     C
C      0.09402  0.99354  0.86283     C
C      0.11891  0.00884  0.71761     C
C      0.11891  0.49116  0.21761     C
C      0.12199   0.6878  0.89331     C
C      0.12199   0.8122  0.39331     C
C      0.12843  0.01831  0.64905     C
C      0.12843  0.48169  0.14905     C
H      0.13712  0.54601  0.34833     H
H      0.13712  0.95399  0.84833     H
H      0.14491  0.65925  0.12474     H
H      0.14491  0.84075  0.62474     H
N       0.1468  0.74273  0.43025     N
N       0.1468  0.75727  0.93025     N
H      0.15307  0.53223  0.24102     H
H      0.15307  0.96777  0.74102     H
H      0.15925  0.64491  0.87526     H
H      0.15925  0.85509  0.37526     H
C       0.1878  0.62199  0.10669     C
C       0.1878  0.87801  0.60669     C
C       0.1905   0.5345  0.11326     C
C       0.1905   0.9655  0.61326     C
N      0.19709  0.57463  0.55348     N
N      0.19709  0.92537  0.05348     N
H       0.2206  0.05342  0.07682     H
H       0.2206  0.44658  0.57682     H
C      0.23835  0.50522  0.58038     C
C      0.23835  0.99478  0.08038     C
N      0.24273   0.6468  0.56975     N
N      0.24273   0.8532  0.06975     N
Co        0.25     0.75      0.0    Co
Co        0.25     0.75      0.5    Co
N      0.25727   0.6468  0.06975     N
N      0.25727   0.8532  0.56975     N
C      0.26165  0.50522  0.08038     C
C      0.26165  0.99478  0.58038     C
H       0.2794  0.05342  0.57682     H
H       0.2794  0.44658  0.07682     H
N      0.30291  0.57463  0.05348     N
N      0.30291  0.92537  0.55348     N
C       0.3095   0.5345  0.61326     C
C       0.3095   0.9655  0.11326     C
C       0.3122  0.62199  0.60669     C
C       0.3122  0.87801  0.10669     C
H      0.34075  0.64491  0.37526     H
H      0.34075  0.85509  0.87526     H
H      0.34693  0.53223  0.74102     H
H      0.34693  0.96777  0.24102     H
N       0.3532  0.74273  0.93025     N
N       0.3532  0.75727  0.43025     N
H      0.35509  0.65925  0.62474     H
H      0.35509  0.84075  0.12474     H
H      0.36288  0.54601  0.84833     H
H      0.36288  0.95399  0.34833     H
C      0.37157  0.01831  0.14905     C
C      0.37157  0.48169  0.64905     C
C      0.37801   0.6878  0.39331     C
C      0.37801   0.8122  0.89331     C
C      0.38109  0.00884  0.21761     C
C      0.38109  0.49116  0.71761     C
C      0.40598  0.50646  0.86283     C
C      0.40598  0.99354  0.36283     C
Co     0.41425  0.58575      0.0    Co
Co     0.41425  0.91425      0.5    Co
H      0.41508  0.08492  0.06794     H
H      0.41508  0.41508  0.56794     H
C      0.42157  0.07843   0.1148     C
C      0.42157  0.42157   0.6148     C
N      0.42537  0.69709  0.94652     N
N      0.42537  0.80291  0.44652     N
N      0.43395  0.00405  0.42663     N
N      0.43395  0.49595  0.92663     N
C      0.44057  0.05943  0.25191     C
C      0.44057  0.44057  0.75191     C
H      0.44658   0.2206  0.57682     H
H      0.44658   0.2794  0.07682     H
C      0.45047  0.04953  0.32343     C
C      0.45048  0.45047  0.82343     C
H      0.45399  0.63712  0.15167     H
H      0.45399  0.86288  0.65167     H
C       0.4655   0.6905  0.38674     C
C       0.4655   0.8095  0.88674     C
H      0.46777  0.65307  0.25898     H
H      0.46777  0.84693  0.75898     H
C      0.48169  0.12843  0.14905     C
C      0.48169  0.37157  0.64905     C
C      0.49116  0.11891  0.21761     C
C      0.49116  0.38109  0.71761     C
C      0.49354  0.59402  0.13717     C
C      0.49354  0.90598  0.63717     C
C      0.49478  0.73835  0.91962     C
C      0.49478  0.76165  0.41962     C
N      0.49595  0.06605  0.42663     N
N      0.49595  0.43395  0.92663     N
N      0.50405  0.56605  0.07337     N
N      0.50405  0.93395  0.57337     N
C      0.50522  0.23835  0.58038     C
C      0.50522  0.26165  0.08038     C
C      0.50646  0.09402  0.36283     C
C      0.50646  0.40598  0.86283     C
C      0.50884  0.61891  0.28239     C
C      0.50884  0.88109  0.78239     C
C      0.51831  0.62843  0.35095     C
C      0.51831  0.87157  0.85095     C
H      0.53223  0.15307  0.24102     H
H      0.53223  0.34693  0.74102     H
C       0.5345   0.1905  0.11326     C
C       0.5345   0.3095  0.61326     C
H      0.54601  0.13712  0.34833     H
H      0.54601  0.36288  0.84833     H
C      0.54952  0.54953  0.17657     C
C      0.54953  0.95048  0.67657     C
H      0.55342   0.7206  0.92318     H
H      0.55342   0.7794  0.42318     H
C      0.55943  0.55943  0.24809     C
C      0.55943  0.94057  0.74809     C
N      0.56605  0.50405  0.07337     N
N      0.56605  0.99595  0.57337     N
N      0.57463  0.19709  0.55348     N
N      0.57463  0.30291  0.05348     N
C      0.57843  0.57843   0.3852     C
C      0.57843  0.92157   0.8852     C
H      0.58492  0.58492  0.43206     H
H      0.58492  0.91508  0.93206     H
Co     0.58575  0.08575      0.5    Co
Co     0.58575  0.41425      0.0    Co
C      0.59402  0.00646  0.63717     C
C      0.59402  0.49354  0.13717     C
C      0.61891  0.50884  0.28239     C
C      0.61891  0.99116  0.78239     C
C      0.62199   0.1878  0.10669     C
C      0.62199   0.3122  0.60669     C
C      0.62843  0.51831  0.35095     C
C      0.62843  0.98169  0.85095     C
H      0.63712  0.04601  0.65167     H
H      0.63712  0.45399  0.15167     H
H      0.64491  0.15925  0.87526     H
H      0.64491  0.34075  0.37526     H
N       0.6468  0.24273  0.56975     N
N       0.6468  0.25727  0.06975     N
H      0.65307  0.03223  0.75898     H
H      0.65307  0.46777  0.25898     H
H      0.65925  0.14491  0.12474     H
H      0.65925  0.35509  0.62474     H
C       0.6878  0.12199  0.89331     C
C       0.6878  0.37801  0.39331     C
C       0.6905   0.0345  0.88674     C
C       0.6905   0.4655  0.38674     C
N      0.69709  0.07463  0.44652     N
N      0.69709  0.42537  0.94652     N
H       0.7206  0.55342  0.92318     H
H       0.7206  0.94658  0.42318     H
C      0.73835  0.00522  0.41962     C
C      0.73835  0.49478  0.91962     C
N      0.74273   0.1468  0.43025     N
N      0.74273   0.3532  0.93025     N
Co        0.75     0.25      0.0    Co
Co        0.75     0.25      0.5    Co
N      0.75727   0.1468  0.93025     N
N      0.75727   0.3532  0.43025     N
C      0.76165  0.00522  0.91962     C
C      0.76165  0.49478  0.41962     C
H       0.7794  0.55342  0.42318     H
H       0.7794  0.94658  0.92318     H
N      0.80291  0.07463  0.94652     N
N      0.80291  0.42537  0.44652     N
C       0.8095   0.0345  0.38674     C
C       0.8095   0.4655  0.88674     C
C       0.8122  0.12199  0.39331     C
C       0.8122  0.37801  0.89331     C
H      0.84075  0.14491  0.62474     H
H      0.84075  0.35509  0.12474     H
H      0.84693  0.03223  0.25898     H
H      0.84693  0.46777  0.75898     H
N       0.8532  0.24273  0.06975     N
N       0.8532  0.25727  0.56975     N
H      0.85509  0.15925  0.37526     H
H      0.85509  0.34075  0.87526     H
H      0.86288  0.04601  0.15167     H
H      0.86288  0.45399  0.65167     H
C      0.87157  0.51831  0.85095     C
C      0.87157  0.98169  0.35095     C
C      0.87801   0.1878  0.60669     C
C      0.87801   0.3122  0.10669     C
C      0.88109  0.50884  0.78239     C
C      0.88109  0.99116  0.28239     C
C      0.90598  0.00646  0.13717     C
C      0.90598  0.49354  0.63717     C
Co     0.91425  0.08575      0.0    Co
Co     0.91425  0.41425      0.5    Co
H      0.91508  0.58492  0.93206     H
H      0.91508  0.91508  0.43206     H
C      0.92157  0.57843   0.8852     C
C      0.92157  0.92157   0.3852     C
N      0.92537  0.19709  0.05348     N
N      0.92537  0.30291  0.55348     N
N      0.93395  0.50405  0.57337     N
N      0.93395  0.99595  0.07337     N
C      0.94057  0.55943  0.74809     C
C      0.94057  0.94057  0.24809     C
H      0.94658   0.7206  0.42318     H
H      0.94658   0.7794  0.92318     H
C      0.95047  0.54952  0.67657     C
C      0.95048  0.95047  0.17657     C
H      0.95399  0.13712  0.84833     H
H      0.95399  0.36288  0.34833     H
C       0.9655   0.1905  0.61326     C
C       0.9655   0.3095  0.11326     C
H      0.96777  0.15307  0.74102     H
H      0.96777  0.34693  0.24102     H
C      0.98169  0.62843  0.85095     C
C      0.98169  0.87157  0.35095     C
C      0.99116  0.61891  0.78239     C
C      0.99116  0.88109  0.28239     C
C      0.99354  0.09402  0.86283     C
C      0.99354  0.40598  0.36283     C
C      0.99478  0.23835  0.08038     C
C      0.99478  0.26165  0.58038     C
N      0.99595  0.56605  0.57337     N
N      0.99595  0.93395  0.07337     N
