data_I
_chemical_name_common  '/home/zhangsd/repos/MofS-CGCNN/ML/data/TSD/clean_cifs/UVAROZ_clean'
_cell_length_a  8.66600
_cell_length_b 13.18700
_cell_length_c 14.08330
_cell_angle_alpha 62.08390
_cell_angle_beta  84.11800
_cell_angle_gamma 77.35610
_space_group_name_H-M_alt      'P 1'


loop_
_space_group_symop_operation_xyz
  'x, y, z' 

loop_
_atom_site_label
_atom_site_fract_x
_atom_site_fract_y
_atom_site_fract_z
_atom_site_type_symbol
C       0.0015   0.0816    0.665     C
O       0.0043    0.067   0.7602     O
H       0.0071   0.5631   0.8398     H
C       0.0122   0.3314   0.0676     C
C        0.029   0.4443   0.9972     C
H       0.0331   0.6453   0.3342     H
H       0.0362   0.3003   0.1416     H
H       0.0433   0.3404   0.6522     H
H       0.0683   0.1004     0.47     H
C       0.0729     0.92   0.3488     C
N       0.0836   0.9338    0.246     N
C       0.0854    0.513   0.0388     C
H       0.0875   0.6582   0.9064     H
C       0.1009   0.4724   0.5208     C
C       0.1073   0.6224   0.9814     C
H       0.1084    0.476   0.1134     H
H       0.1178   0.8443   0.8882     H
C       0.1318    0.372   0.6132     C
C       0.1513   0.8105   0.9606     C
C       0.1566   0.0575   0.6142     C
C       0.1594   0.6939    0.023     C
C       0.1628    0.073   0.5106     C
H       0.1671   0.8971   0.3888     H
H       0.1784   0.9648   0.9534     H
H       0.1894   0.5021     0.48     H
C       0.1901   0.8829   0.9978     C
H       0.2066   0.1945   0.8034     H
C       0.2128   0.6447   0.1282     C
H       0.2194   0.5638   0.1762     H
N       0.2443   0.8329   0.0988     N
C       0.2557   0.7199    0.159     C
H       0.2838   0.0161   0.7428     H
C       0.2881   0.3069   0.6592     C
C       0.2898   0.0247   0.6718     C
H       0.2969   0.6872   0.2294     H
Zn     0.29845  0.92409   0.1764    Zn
C       0.2988   0.2158   0.7626     C
C       0.3075   0.0484   0.4654     C
H        0.311   0.0532   0.3958     H
O       0.3343   0.0677   0.2166     O
O        0.355   0.0756   0.0552     O
C       0.3732   0.1161   0.1186     C
O       0.3744   0.7213   0.3872     O
H        0.423   0.2305   0.2226     H
C       0.4248   0.2298   0.0772     C
H       0.4278   0.3976   0.5346     H
C       0.4307   0.3337   0.6046     C
C        0.439   0.0033   0.6254     C
C       0.4447    0.273   0.1482     C
C       0.4475   0.0168   0.5218     C
H       0.4491   0.2653   0.9192     H
C       0.4527    0.155   0.8056     C
H       0.4601   0.0924   0.8764     H
C       0.4603   0.2935   0.9686     C
C       0.4947   0.3751   0.1108     C
C       0.5015   0.7466    0.335     C
O       0.5043   0.8272   0.2398     O
H       0.5071   0.4029   0.1602     H
C       0.5122    0.399   0.9324     C
C        0.529   0.4415   0.0028     C
H       0.5331   0.9795   0.6658     H
H       0.5362   0.4419   0.8584     H
H       0.5433   0.9926   0.3478     H
H       0.5683   0.5704     0.53     H
C       0.5729   0.2688   0.6512     C
N       0.5836   0.1798    0.754     N
C       0.5854   0.5518   0.9612     C
H       0.5875   0.5646   0.0936     H
C       0.6009   0.9932   0.4792     C
C       0.6073   0.6038   0.0186     C
H       0.6084   0.5894   0.8866     H
H       0.6178   0.7325   0.1118     H
C       0.6318   0.9852   0.3868     C
C       0.6513   0.7711   0.0394     C
C       0.6566   0.6717   0.3858     C
C       0.6594   0.7169    0.977     C
C       0.6628   0.5836   0.4894     C
H       0.6671   0.2859   0.6112     H
H       0.6784   0.9182   0.0466     H
H       0.6894   0.9821     0.52     H
C       0.6901   0.8807   0.0022     C
H       0.7066   0.9979   0.1966     H
C       0.7128   0.7729   0.8718     C
H       0.7194     0.74   0.8238     H
N       0.7443   0.9317   0.9012     N
C       0.7557   0.8789    0.841     C
H       0.7838   0.7589   0.2572     H
C       0.7881   0.9661   0.3408     C
C       0.7898   0.6965   0.3282     C
H       0.7969   0.9166   0.7706     H
Zn     0.79845  0.10049   0.8236    Zn
C       0.7988   0.9784   0.2374     C
C       0.8075   0.5138   0.5346     C
H        0.811    0.449   0.6042     H
O       0.8343   0.2843   0.7834     O
O        0.855   0.1308   0.9448     O
C       0.8732   0.2347   0.8814     C
O       0.8744   0.1085   0.6128     O
H        0.923   0.4531   0.7774     H
C       0.9248    0.307   0.9228     C
H       0.9278   0.9322   0.4654     H
C       0.9307   0.9383   0.3954     C
C        0.939   0.6287   0.3746     C
C       0.9447   0.4212   0.8518     C
C       0.9475   0.5386   0.4782     C
H       0.9491   0.1845   0.0808     H
C       0.9527   0.9606   0.1944     C
H       0.9601   0.9688   0.1236     H
C       0.9603   0.2621   0.0314     C
C       0.9947   0.4859   0.8892     C
