data_I
_chemical_name_common  '/home/zhangsd/repos/MofS-CGCNN/ML/data/TSD/clean_cifs/UVARIT_clean'
_cell_length_a  8.40900
_cell_length_b 13.48800
_cell_length_c 14.13020
_cell_angle_alpha 61.49240
_cell_angle_beta  85.75740
_cell_angle_gamma 81.08290
_space_group_name_H-M_alt      'P 1'


loop_
_space_group_symop_operation_xyz
  'x, y, z' 

loop_
_atom_site_label
_atom_site_fract_x
_atom_site_fract_y
_atom_site_fract_z
_atom_site_type_symbol
O       0.0154   0.9799   0.7786     O
O        0.025  0.83179  0.94182     O
C       0.0386   0.9359   0.8774     C
O        0.054  0.80724  0.61612     O
H       0.0877   0.1528   0.7758     H
C       0.0924   0.0086    0.921     C
H       0.1033   0.5943   0.4816     H
C       0.1057   0.6134   0.4074     C
C        0.111   0.1221     0.85     C
H       0.1181   0.8875   0.0774     H
C       0.1248   0.3317   0.3724     C
C        0.125    0.665   0.1966     C
C       0.1282   0.9648   0.0284     C
C       0.1298   0.2363   0.4724     C
H       0.1307   0.6837   0.1226     H
C       0.1621    0.189   0.8864     C
H       0.1721   0.2662   0.8372     H
C       0.1797   0.0348   0.0654     C
C       0.1817   0.7812   0.6656     C
O       0.1892  0.76808  0.76184     O
C       0.2001    0.146   0.9948     C
H       0.2007    0.005   0.1398     H
H       0.2156    0.047   0.6516     H
H       0.2223   0.3504   0.3336     H
H        0.242   0.7803    0.479     H
C       0.2471   0.5965   0.3598     C
H       0.2478   0.3614   0.9058     H
C       0.2574   0.2162   0.0358     C
N       0.2593   0.6213   0.2554     N
C       0.2738   0.3246   0.9802     C
H       0.2832   0.5466   0.8888     H
C        0.285   0.1661   0.5156     C
H       0.2852   0.1793     0.11     H
C       0.3083   0.0727   0.6094     C
C       0.3199    0.511   0.9612     C
C       0.3288   0.3943   0.0226     C
C       0.3381   0.7567   0.6178     C
C         0.34   0.7612    0.517     C
H        0.342   0.5656   0.4024     H
H       0.3511   0.6575   0.9592     H
C       0.3635   0.5771   0.0028     C
H       0.3773   0.1901    0.472     H
H        0.384   0.9106   0.8044     H
C       0.3924   0.3456   0.1258     C
H       0.4043   0.2654   0.1702     H
N       0.4228   0.5313   0.1032     N
C       0.4389   0.4167   0.1634     C
C       0.4645   0.0052   0.6538     C
C       0.4772    0.924   0.7602     C
Zn     0.47811  0.61776   0.1824    Zn
C       0.4829   0.7278   0.6726     C
H       0.4829   0.7423    0.403     H
C       0.4832   0.7382    0.472     C
H       0.4833   0.3828   0.2336     H
H       0.4836   0.7244   0.7414     H
O       0.5154   0.7585   0.2214     O
O        0.525  0.77361  0.05818     O
C       0.5386   0.8133   0.1226     C
O        0.554  0.42336  0.38388     O
H       0.5877   0.9286   0.2242     H
C       0.5924   0.9296    0.079     C
H       0.6033   0.0759   0.5184     H
C       0.6057   0.0208   0.5926     C
C        0.611   0.9721     0.15     C
H       0.6181   0.9649   0.9226     H
C       0.6248   0.7041   0.6276     C
C        0.625   0.8616   0.8034     C
C       0.6282   0.9932   0.9716     C
C       0.6298   0.7087   0.5276     C
H       0.6307   0.8063   0.8774     H
C       0.6621   0.0754   0.1136     C
H       0.6721   0.1034   0.1628     H
C       0.6797   0.1002   0.9346     C
C       0.6817   0.4468   0.3344     C
O       0.6892  0.52992  0.23816     O
C       0.7001   0.1408   0.0052     C
H       0.7007   0.1448   0.8602     H
H       0.7156   0.6986   0.3484     H
H       0.7223    0.684   0.6664     H
H        0.742   0.2593    0.521     H
C       0.7471   0.9563   0.6402     C
H       0.7478   0.2672   0.0942     H
C       0.7574    0.252   0.9642     C
N       0.7593   0.8767   0.7446     N
C       0.7738   0.3048   0.0198     C
H       0.7832   0.4354   0.1112     H
C        0.785   0.6817   0.4844     C
H       0.7852   0.2893     0.89     H
C       0.8083   0.6821   0.3906     C
C       0.8199   0.4722   0.0388     C
C       0.8288   0.4169   0.9774     C
C       0.8381   0.3745   0.3822     C
C         0.84   0.2782    0.483     C
H        0.842    0.968   0.5976     H
H       0.8511   0.6167   0.0408     H
C       0.8635   0.5799   0.9972     C
H       0.8773   0.6621    0.528     H
H        0.884    0.715   0.1956     H
C       0.8924   0.4714   0.8742     C
H       0.9043   0.4356   0.8298     H
N       0.9228   0.6345   0.8968     N
C       0.9389   0.5801   0.8366     C
C       0.9645    0.659   0.3462     C
C       0.9772   0.6842   0.2398     C
Zn     0.97811  0.80016   0.8176    Zn
H       0.9829   0.1453    0.597     H
C       0.9829   0.4004   0.3274     C
C       0.9832   0.2102    0.528     C
H       0.9833   0.6164   0.7664     H
H       0.9836   0.4658   0.2586     H
