data_I
_chemical_name_common  '/home/zhangsd/repos/MofS-CGCNN/ML/data/TSD/clean_cifs/UVARUF_clean'
_cell_length_a  8.71500
_cell_length_b 12.93400
_cell_length_c 14.06050
_cell_angle_alpha 62.61670
_cell_angle_beta  83.68600
_cell_angle_gamma 76.16590
_space_group_name_H-M_alt      'P 1'


loop_
_space_group_symop_operation_xyz
  'x, y, z' 

loop_
_atom_site_label
_atom_site_fract_x
_atom_site_fract_y
_atom_site_fract_z
_atom_site_type_symbol
H       0.0015   0.3733   0.3828     H
C       0.0024   0.0802   0.5092     C
C       0.0047   0.9501   0.0206     C
C       0.0164   0.8931    0.958     C
C       0.0168   0.9931   0.6148     C
C       0.0359   0.6724   0.6162     C
H        0.051    0.082   0.1062     H
H       0.0571   0.9255    0.889     H
C       0.0588   0.0597   0.9776     C
C       0.0627    0.667   0.5232     C
C        0.078   0.1164   0.0342     C
N       0.0814   0.4864   0.2452     N
H       0.0826   0.0944    0.905     H
H        0.093   0.0963   0.4684     H
C        0.093   0.3934   0.3448     C
H       0.1228   0.6604    0.656     H
C       0.1352   0.2238   0.9954     C
H       0.1438   0.6852   0.3352     H
H        0.145   0.2204   0.1388     H
H       0.1497   0.2613   0.8404     H
O       0.1631    0.843   0.7602     O
C        0.164   0.2631   0.0662     C
C        0.165   0.9205   0.6632     C
C       0.1657   0.2884   0.8886     C
H       0.2087    0.566   0.1258     H
C       0.2157   0.5064   0.1962     C
C       0.2198   0.3926    0.851     C
C       0.2198   0.6451   0.4782     C
C       0.2222   0.3678   0.0288     C
C       0.2349    0.662   0.3752     C
H       0.2398   0.4354   0.7786     H
C       0.2426   0.3266   0.3916     C
C       0.2437   0.4322   0.9246     C
H       0.2457    0.392   0.0774     H
H       0.2483   0.2614    0.459     H
O       0.2886   0.9422    0.612     O
C       0.3017   0.5421   0.8788     C
O       0.3165     0.59   0.9428     O
O       0.3307   0.5992    0.783     O
H       0.3501   0.5926   0.6078     H
C       0.3564   0.6069   0.5364     C
H       0.3583   0.9883   0.7708     H
C       0.3636   0.4506   0.2358     C
Zn     0.36757  0.74115  0.82246    Zn
C        0.375   0.6472   0.3284     C
C       0.3768   0.3563   0.3398     C
H       0.3785   0.6631   0.2568     H
C       0.4008   0.9512   0.8394     C
N       0.4154    0.831   0.8978     N
H       0.4355   0.0987   0.8318     H
C       0.4449   0.0176   0.8764     C
H       0.4524   0.4737   0.1958     H
C        0.466   0.7835   0.0006     C
H       0.4675   0.7033   0.0456     H
H       0.4757   0.1623   0.5158     H
H       0.5015   0.7561   0.6172     H
C       0.5024   0.5894   0.4908     C
C       0.5047   0.9707   0.9794     C
C       0.5164   0.8511    0.042     C
C       0.5168   0.6079   0.3852     C
C       0.5359   0.2886   0.3838     C
H        0.551   0.1882   0.8938     H
H       0.5571   0.8145    0.111     H
C       0.5588   0.0373   0.0224     C
C       0.5627   0.1902   0.4768     C
C        0.578   0.1506   0.9658     C
N       0.5814   0.7316   0.7548     N
H       0.5826   0.9994    0.095     H
H        0.593   0.5647   0.5316     H
C        0.593   0.7382   0.6552     C
H       0.6228   0.3164    0.344     H
C       0.6352   0.2192   0.0046     C
H       0.6438   0.0204   0.6648     H
H        0.645   0.3592   0.8612     H
H       0.6497   0.1017   0.1596     H
O       0.6631   0.6032   0.2398     O
C        0.664   0.3293   0.9338     C
C        0.665   0.5837   0.3368     C
C       0.6657    0.177   0.1114     C
H       0.7087   0.6918   0.8742     H
C       0.7157   0.7026   0.8038     C
C       0.7198   0.1233   0.5218     C
C       0.7198   0.2436    0.149     C
C       0.7222   0.3966   0.9712     C
C       0.7349   0.0372   0.6248     C
H       0.7398    0.214   0.2214     H
C       0.7426   0.7182   0.6084     C
C       0.7437   0.3568   0.0754     C
H       0.7457   0.4694   0.9226     H
H       0.7483   0.7204    0.541     H
O       0.7886   0.5542    0.388     O
C       0.8017   0.4209   0.1212     C
O       0.8165   0.5328   0.0572     O
O       0.8307   0.3822    0.217     O
H       0.8501   0.2004   0.3922     H
C       0.8564   0.1433   0.4636     C
H       0.8583   0.7591   0.2292     H
C       0.8636   0.6864   0.7642     C
Zn     0.86757  0.56361  0.17754    Zn
C        0.875   0.9756   0.6716     C
C       0.8768   0.6961   0.6602     C
H       0.8785   0.9199   0.7432     H
C       0.9008   0.7906   0.1606     C
N       0.9154   0.7288   0.1022     N
H       0.9355   0.9305   0.1682     H
C       0.9449    0.894   0.1236     C
H       0.9524   0.6695   0.8042     H
C        0.966   0.7841   0.9994     C
H       0.9675   0.7489   0.9544     H
H       0.9757   0.6781   0.4842     H
