data_I
_chemical_name_common  '/home/zhangsd/repos/MofS-CGCNN/ML/data/TSD/clean_cifs/UVASAM_clean'
_cell_length_a  8.40600
_cell_length_b 13.50700
_cell_length_c 14.13610
_cell_angle_alpha 61.46150
_cell_angle_beta  85.78920
_cell_angle_gamma 81.15910
_space_group_name_H-M_alt      'P 1'


loop_
_space_group_symop_operation_xyz
  'x, y, z' 

loop_
_atom_site_label
_atom_site_fract_x
_atom_site_fract_y
_atom_site_fract_z
_atom_site_type_symbol
C       0.0204   0.3771   0.1148     C
C       0.0322   0.4023   0.9344     C
H       0.0327   0.4042   0.1628     H
C       0.0405   0.7481    0.334     C
O       0.0465   0.8331   0.2376     O
H       0.0519   0.4458   0.8614     H
C        0.055   0.4418    0.006     C
H        0.074   0.9997   0.3492     H
H        0.079   0.9896   0.6658     H
H       0.0999   0.5625   0.5194     H
C       0.1039   0.2579   0.6392     C
H       0.1063   0.5718    0.094     H
C       0.1115   0.5548   0.9654     C
N       0.1142   0.1795   0.7436     N
C       0.1303   0.6082   0.0208     C
H       0.1364   0.5922   0.8924     H
H       0.1405   0.7364   0.1108     H
C       0.1405   0.9846   0.4846     C
C       0.1643   0.9842   0.3908     C
C       0.1755   0.7734     0.04     C
C       0.1861   0.7203   0.9764     C
C       0.1943   0.6771   0.3814     C
C       0.1955   0.5814   0.4816     C
H       0.1971   0.2684   0.5978     H
H       0.2053   0.9213   0.0384     H
C       0.2183   0.8842   0.9968     C
H       0.2308   0.9662   0.5272     H
H       0.2402   0.0172    0.196     H
C       0.2477   0.7745   0.8744     C
H       0.2581   0.7404   0.8302     H
N       0.2773   0.9367   0.8964     N
C       0.2947   0.8822    0.838     C
C       0.3234   0.9613   0.3468     C
C       0.3318   0.9878    0.239     C
Zn     0.33362  0.10304  0.81726    Zn
C       0.3398    0.702   0.3272     C
H       0.3399   0.7649   0.2594     H
H       0.3402   0.9171   0.7698     H
H       0.3412   0.4495   0.5926     H
C       0.3416   0.5135   0.5256     C
O        0.371   0.2814   0.7786     O
O       0.3792   0.1355   0.9418     O
C       0.3954   0.2404   0.8774     C
O       0.4106   0.1098   0.6168     O
H       0.4467   0.4549   0.7762     H
C        0.447    0.311     0.92     C
H       0.4574   0.8947   0.4822     H
C       0.4608   0.9142   0.4096     C
H       0.4658   0.1949   0.0752     H
C       0.4684   0.4249    0.849     C
C       0.4794   0.2697    0.027     C
C       0.4798   0.9693    0.198     C
C       0.4832   0.6358   0.3714     C
C       0.4855   0.5383    0.473     C
H       0.4867   0.9903    0.125     H
C       0.5204   0.4919   0.8852     C
C       0.5322   0.3367   0.0656     C
H       0.5327    0.567   0.8372     H
C       0.5405   0.0821    0.666     C
O       0.5465   0.0707   0.7624     O
H       0.5519   0.3072   0.1386     H
C        0.555   0.4478    0.994     C
H        0.574   0.3489   0.6508     H
H        0.579   0.6554   0.3342     H
H       0.5999   0.0819   0.4806     H
C       0.6039   0.8971   0.3608     C
H       0.6063   0.6658    0.906     H
C       0.6115   0.5202   0.0346     C
N       0.6142   0.9231   0.2564     N
C       0.6303    0.629   0.9792     C
H       0.6364   0.4846   0.1076     H
C       0.6405   0.4692   0.5154     C
H       0.6405   0.8472   0.8892     H
C       0.6643    0.375   0.6092     C
C       0.6755   0.8134     0.96     C
C       0.6861   0.6967   0.0236     C
C       0.6943   0.0585   0.6186     C
C       0.6955    0.063   0.5184     C
H       0.6971   0.8662   0.4022     H
H       0.7053   0.9597   0.9616     H
C       0.7183    0.881   0.0032     C
H       0.7308   0.4934   0.4728     H
H       0.7402   0.2132    0.804     H
C       0.7477   0.6489   0.1256     C
H       0.7581   0.5706   0.1698     H
N       0.7773   0.8331   0.1036     N
C       0.7947   0.7202    0.162     C
C       0.8234   0.3081   0.6532     C
C       0.8318   0.2268    0.761     C
Zn     0.83362   0.9203  0.18274    Zn
C       0.8398   0.0292   0.6728     C
H       0.8399   0.0243   0.7406     H
H       0.8402   0.6869   0.2302     H
H       0.8412   0.0421   0.4074     H
C       0.8416   0.0391   0.4744     C
O        0.871     0.06   0.2214     O
O       0.8792   0.0773   0.0582     O
C       0.8954   0.1178   0.1226     C
O       0.9106   0.7266   0.3832     O
H       0.9467   0.2311   0.2238     H
C        0.947    0.231     0.08     C
H       0.9574   0.3769   0.5178     H
C       0.9608   0.3238   0.5904     C
H       0.9658   0.2701   0.9248     H
C       0.9684   0.2739    0.151     C
C       0.9794   0.2967    0.973     C
C       0.9798   0.1673    0.802     C
C       0.9832   0.0072   0.6286     C
C       0.9855   0.0113    0.527     C
H       0.9867   0.1153    0.875     H
