data_I
_chemical_name_common  '/home/zhangsd/repos/MofS-CGCNN/ML/data/TSD/clean_cifs/UVUQAE_clean'
_cell_length_a 15.08550
_cell_length_b 15.08550
_cell_length_c 21.51500
_cell_angle_alpha 83.86720
_cell_angle_beta  83.86720
_cell_angle_gamma 65.55560
_space_group_name_H-M_alt      'P 1'


loop_
_space_group_symop_operation_xyz
  'x, y, z' 

loop_
_atom_site_label
_atom_site_fract_x
_atom_site_fract_y
_atom_site_fract_z
_atom_site_type_symbol
Zn     0.00965  0.01285  0.68147    Zn
Zn     0.01285  0.00965  0.18147    Zn
O      0.01671  0.85399  0.78592     O
O      0.03358  0.84988  0.29698     O
O      0.03431  0.86437  0.19224     O
H       0.0383   0.6811    0.818     H
C      0.03914  0.82194   0.7323     C
O      0.04187  0.35491  0.93551     O
C      0.04614  0.81574  0.24406     C
O      0.04648  0.87082  0.68187     O
Zn     0.04816  0.56764   0.9939    Zn
C       0.0542    0.656  0.77871     C
O      0.05918  0.35366  0.06376     O
C      0.05967  0.71649  0.72607     C
H       0.0611   0.7479   0.9235     H
H       0.0626   0.6998   0.1535     H
H       0.0686   0.5204   0.8093     H
C       0.0718   0.5602  0.77375     C
C      0.07999  0.70659  0.24406     C
C      0.08142  0.66222  0.19086     C
C      0.08244  0.67864  0.66818     C
H       0.0871   0.7183   0.6329     H
C      0.09414  0.52394   0.7154     C
H       0.0944   0.2778   0.6871     H
C      0.09844  0.58324   0.6614     C
O       0.1019  0.42968  0.71407     O
H        0.103   0.6778   0.3361     H
C       0.1056   0.6486  0.29966     C
C      0.10636   0.3867  0.91365     C
O      0.10824  0.46336  0.92864     O
C      0.11038  0.56258  0.19283     C
H       0.1119   0.5587   0.6219     H
H       0.1124    0.533   0.1566     H
C      0.12488  0.71328   0.9347     C
C      0.12695  0.37867  0.07377     C
O      0.12918  0.95352  0.81813     O
O      0.12993  0.45985  0.05499     O
H       0.1303   0.2633   0.2922     H
H       0.1329   0.2281   0.8572     H
C      0.13426  0.54986  0.30183     C
O      0.13563  0.96569  0.30776     O
C      0.13654  0.50654  0.24808     C
O      0.14601  0.98329  0.71408     O
N      0.14665  0.62885  0.96892     N
O      0.15012  0.96642  0.20302     O
H       0.1504   0.2088    0.133     H
H        0.152   0.5122   0.3392     H
C       0.1523   0.2809   0.6697     C
O       0.1566   0.4093  0.24586     O
C      0.17164  0.36164   0.6762     C
H       0.1743   0.8107   0.8919     H
C      0.17806  0.96086   0.7677     C
C      0.18426  0.95386  0.25594     C
C       0.1855   0.2449  0.84602     C
C      0.18624  0.32652  0.86865     C
C      0.18646  0.26326   0.3062     C
H       0.1893   0.8257   0.6081     H
C      0.19227  0.75127   0.9154     C
C      0.20529  0.22049  0.13695     C
H       0.2088   0.1504    0.633     H
C      0.20969  0.30555     0.11     C
C      0.21388  0.33908  0.28831     C
C      0.22049  0.20529  0.63695     C
H       0.2281   0.1329   0.3572     H
C      0.23949  0.57803  0.98427     C
C       0.2449   0.1855  0.34602     C
C      0.24873  0.80773   0.5846     C
H       0.2521   0.9389   0.5765     H
H       0.2552    0.519   0.0081     H
C      0.25698  0.36698   0.6502     C
C      0.26289  0.35329   0.8497     C
H       0.2631   0.4093   0.8638     H
C      0.26326  0.18646   0.8062     C
H       0.2633   0.1303   0.7922     H
H       0.2695   0.4213   0.6548     H
H       0.2752   0.6658   0.5806     H
H       0.2778   0.0944   0.1871     H
C       0.2809   0.1523   0.1697     C
H       0.2817   0.9129   0.8671     H
C      0.28351  0.94033  0.77393     C
C      0.28672  0.87512   0.5653     C
C      0.28735  0.69995   0.9314     C
C       0.2907   0.3237   0.1172     C
C      0.29341  0.92001  0.25594     C
H       0.2936   0.3816   0.0997     H
C      0.29671  0.33971   0.3096     C
C      0.30005  0.71265   0.5686     C
H       0.3002   0.9374   0.3465     H
C      0.30555  0.20969     0.61     C
C      0.31239  0.61039  0.96597     C
H       0.3147   0.3913   0.2973     H
H       0.3189   0.9617    0.682     H
C      0.32136  0.91756  0.83182     C
H       0.3222    0.897   0.1639     H
C       0.3237   0.2907   0.6172     C
C      0.32652  0.18624  0.36865     C
H       0.3342   0.7248   0.9194     H
C      0.33778  0.91858  0.30914     C
C      0.33908  0.21388  0.78831     C
C      0.33971  0.29671   0.8096     C
C        0.344   0.9458  0.72129     C
C       0.3514   0.8944  0.20034     C
C      0.35329  0.26289   0.3497     C
O      0.35366  0.05918  0.56376     O
O      0.35491  0.04187  0.43551     O
C      0.36164  0.17164   0.1762     C
C      0.36698  0.25698   0.1502     C
N      0.37115  0.85335  0.53108     N
C      0.37867  0.12695  0.57377     C
H       0.3816   0.2936   0.5997     H
C       0.3867  0.10636  0.41365     C
C      0.38961  0.68761  0.53403     C
H       0.3913   0.3147   0.7973     H
O       0.4093   0.1566  0.74586     O
H       0.4093   0.2631   0.3638     H
C      0.41323  0.55103   0.9852     C
C      0.41676  0.90156   0.8386     C
N      0.41912  0.51742  0.53912     N
H       0.4213   0.2695   0.1548     H
C      0.42197  0.76051  0.51573     C
N      0.42812  0.47232   0.0237     N
O      0.42968   0.1019  0.21407     O
Zn     0.43236  0.95184   0.5061    Zn
C      0.43742  0.88962  0.30717     C
C       0.4398   0.9282  0.72625     C
H       0.4413   0.8881   0.8781     H
C      0.44897  0.58677   0.5148     C
C      0.45014  0.86574  0.19817     C
O      0.45985  0.12993  0.55499     O
O      0.46336  0.10824  0.42864     O
H        0.467   0.8876   0.3434     H
N      0.47232  0.42812   0.5237     N
C      0.47606  0.90586   0.7846     C
H       0.4796   0.9314   0.6907     H
H        0.481   0.7448   0.4919     H
N      0.48258  0.58088  0.96088     N
H       0.4878    0.848   0.1608     H
C      0.49346  0.86346  0.25192     C
C      0.50654  0.13654  0.74808     C
H       0.5122    0.152   0.8392     H
N      0.51742  0.41912  0.03912     N
H        0.519   0.2552   0.5081     H
H       0.5204   0.0686   0.3093     H
C      0.52394  0.09414   0.2154     C
N      0.52768  0.57188   0.4763     N
H        0.533   0.1124   0.6566     H
O      0.53664  0.89176  0.57136     O
O      0.54015  0.87007  0.44501     O
C      0.54986  0.13426  0.80183     C
C      0.55103  0.41323   0.4852     C
H       0.5587   0.1119   0.1219     H
C       0.5602   0.0718  0.27375     C
C      0.56258  0.11038  0.69283     C
Zn     0.56764  0.04816   0.4939    Zn
O      0.57032   0.8981  0.78593     O
N      0.57188  0.52768   0.9763     N
C      0.57803  0.23949  0.48427     C
H       0.5787   0.7305   0.8452     H
N      0.58088  0.48258  0.46088     N
C      0.58324  0.09844   0.1614     C
C      0.58677  0.44897   0.0148     C
H       0.5907   0.7369   0.6362     H
O       0.5907   0.8434  0.25414     O
H       0.6087   0.6853   0.2027     H
C      0.61039  0.31239  0.46597     C
C       0.6133  0.89364  0.58635     C
H       0.6184   0.7064   0.4003     H
C      0.62133  0.87305  0.42623     C
N      0.62885  0.14665  0.46892     N
C      0.63302  0.74302   0.8498     C
C      0.63836  0.82836   0.8238     C
O      0.64509  0.95813  0.56449     O
O      0.64634  0.94082  0.43624     O
C      0.64671  0.73711   0.6503     C
C       0.6486   0.1056  0.79966     C
C        0.656   0.0542  0.27871     C
C      0.66029  0.70329   0.1904     C
C      0.66092  0.78612  0.21169     C
C      0.66222  0.08142  0.69086     C
H       0.6658   0.2752   0.0806     H
C      0.67348  0.81376  0.63135     C
C       0.6763   0.7093   0.3828     C
H       0.6778    0.103   0.8361     H
C      0.67864  0.08244  0.16818     C
H       0.6811   0.0383    0.318     H
H       0.6853   0.6087   0.7027     H
C      0.68761  0.38961  0.03403     C
C      0.69445  0.79031     0.39     C
H       0.6998   0.0626   0.6535     H
C      0.69995  0.28735   0.4314     C
C      0.70329  0.66029   0.6904     C
H       0.7064   0.6184   0.9003     H
C      0.70659  0.07999  0.74406     C
C       0.7093   0.6763   0.8828     C
C      0.71265  0.30005   0.0686     C
C      0.71328  0.12488   0.4347     C
C      0.71649  0.05967  0.22607     C
H       0.7183   0.0871   0.1329     H
C       0.7191   0.8477   0.8303     C
H       0.7222   0.9056   0.8129     H
H       0.7248   0.3342   0.4194     H
H       0.7305   0.5787   0.3452     H
H       0.7367   0.8697   0.2078     H
C      0.73674  0.81354   0.1938     C
H       0.7369   0.5907   0.1362     H
C      0.73711  0.64671   0.1503     C
C      0.74302  0.63302   0.3498     C
H       0.7448    0.481   0.9919     H
H       0.7479   0.0611   0.4235     H
C      0.75127  0.19227   0.4154     C
C       0.7551   0.8145  0.65398     C
C      0.76051  0.42197  0.01573     C
H       0.7719   0.8671   0.6428     H
C      0.77951  0.79471  0.36305     C
C      0.78612  0.66092  0.71169     C
C      0.79031  0.69445     0.89     C
H       0.7912   0.8496    0.367     H
C      0.79471  0.77951  0.86305     C
C      0.80773  0.24873   0.0846     C
H       0.8107   0.1743   0.3919     H
C      0.81354  0.73674   0.6938     C
C      0.81376  0.67348  0.13135     C
C       0.8145   0.7551  0.15398     C
C      0.81574  0.04614  0.74406     C
C      0.82194  0.03914   0.2323     C
H       0.8257   0.1893   0.1081     H
C      0.82836  0.63836   0.3238     C
O       0.8434   0.5907  0.75414     O
C       0.8477   0.7191   0.3303     C
H        0.848   0.4878   0.6608     H
H       0.8496   0.7912    0.867     H
O      0.84988  0.03358  0.79698     O
N      0.85335  0.37115  0.03108     N
O      0.85399  0.01671  0.28592     O
C      0.86346  0.49346  0.75192     C
O      0.86437  0.03431  0.69224     O
C      0.86574  0.45014  0.69817     C
H       0.8671   0.7719   0.1428     H
H       0.8697   0.7367   0.7078     H
O      0.87007  0.54015  0.94501     O
O      0.87082  0.04648  0.18187     O
C      0.87305  0.62133  0.92623     C
C      0.87512  0.28672   0.0653     C
H       0.8876    0.467   0.8434     H
H       0.8881   0.4413   0.3781     H
C      0.88962  0.43742  0.80717     C
O      0.89176  0.53664  0.07136     O
C      0.89364   0.6133  0.08635     C
C       0.8944   0.3514  0.70034     C
H        0.897   0.3222   0.6639     H
O       0.8981  0.57032  0.28593     O
C      0.90156  0.41676   0.3386     C
H       0.9056   0.7222   0.3129     H
C      0.90586  0.47606   0.2846     C
H       0.9129   0.2817   0.3671     H
C      0.91756  0.32136  0.33182     C
C      0.91858  0.33778  0.80914     C
C      0.92001  0.29341  0.75594     C
C       0.9282   0.4398  0.22625     C
H       0.9314   0.4796   0.1907     H
H       0.9374   0.3002   0.8465     H
H       0.9389   0.2521   0.0765     H
C      0.94033  0.28351  0.27393     C
O      0.94082  0.64634  0.93624     O
C       0.9458    0.344  0.22129     C
Zn     0.95184  0.43236   0.0061    Zn
O      0.95352  0.12918  0.31813     O
C      0.95386  0.18426  0.75594     C
O      0.95813  0.64509  0.06449     O
C      0.96086  0.17806   0.2677     C
H       0.9617   0.3189    0.182     H
O      0.96569  0.13563  0.80776     O
O      0.96642  0.15012  0.70302     O
O      0.98329  0.14601  0.21408     O
Zn     0.98715  0.99035  0.81853    Zn
Zn     0.99035  0.98715  0.31853    Zn
