data_I
_chemical_name_common  '/home/zhangsd/repos/MofS-CGCNN/ML/data/TSD/clean_cifs/UWELIS_clean'
_cell_length_a 13.26500
_cell_length_b 13.98300
_cell_length_c 14.18900
_cell_angle_alpha 112.06600
_cell_angle_beta  90.00000
_cell_angle_gamma 90.00000
_space_group_name_H-M_alt      'P 1'


loop_
_space_group_symop_operation_xyz
  'x, y, z' 

loop_
_atom_site_label
_atom_site_fract_x
_atom_site_fract_y
_atom_site_fract_z
_atom_site_type_symbol
H       0.0068    0.986   0.7151     H
O      0.01328  0.39067  0.57609     O
C       0.0252   0.8305   0.6569     C
H       0.0425   0.1857   0.3405     H
Zn     0.05314  0.59967  0.55103    Zn
C       0.0542   0.9334   0.6914     C
H       0.0601   0.2568   0.6355     H
H       0.0705   0.1177   0.6992     H
C       0.0763   0.4438   0.6373     C
O      0.09174  0.39407  0.39768     O
N       0.0941  0.75188  0.61883     N
O      0.10276   0.5344   0.6492     O
C       0.1067   0.2925   0.6853     C
C       0.1252   0.3959   0.7045     C
N      0.13124  0.13713  0.71792     N
C       0.1555   0.2418   0.7383     C
C        0.156   0.9553   0.6894     C
C        0.167   0.4481   0.4021     C
O      0.17653  0.54068  0.46151     O
C       0.1953   0.0656   0.7254     C
C       0.1953   0.7751   0.6152     C
C       0.1969   0.4487   0.7778     C
H       0.2059   0.8949   0.1538     H
H       0.2101   0.5178   0.7908     H
O      0.21672    0.082  0.25248     O
C       0.2261   0.8786   0.6532     C
C       0.2279   0.2939    0.812     C
H       0.2382   0.2601   0.3479     H
H       0.2423   0.7225   0.5878     H
C       0.2481   0.3996   0.8308     C
C       0.2519   0.3996   0.3308     C
H       0.2577   0.7225   0.0878     H
H       0.2618   0.2601   0.8479     H
C       0.2721   0.2939    0.312     C
C       0.2739   0.8786   0.1532     C
O      0.28328    0.082  0.75248     O
H       0.2899   0.5178   0.2908     H
H       0.2941   0.8949   0.6538     H
C       0.3031   0.4487   0.2778     C
C       0.3047   0.0656   0.2254     C
C       0.3047   0.7751   0.1152     C
O      0.32347  0.54068  0.96151     O
C        0.333   0.4481   0.9021     C
C        0.344   0.9553   0.1894     C
C       0.3445   0.2418   0.2383     C
N      0.36876  0.13713  0.21792     N
C       0.3748   0.3959   0.2045     C
C       0.3933   0.2925   0.1853     C
O      0.39724   0.5344   0.1492     O
N       0.4059  0.75188  0.11883     N
O      0.40826  0.39407  0.89768     O
C       0.4237   0.4438   0.1373     C
H       0.4295   0.1177   0.1992     H
H       0.4399   0.2568   0.1355     H
C       0.4458   0.9334   0.1914     C
Zn     0.44686  0.59967  0.05103    Zn
H       0.4575   0.1857   0.8405     H
C       0.4748   0.8305   0.1569     C
O      0.48672  0.39067  0.07609     O
H       0.4932    0.986   0.2151     H
H       0.5068    0.014   0.7849     H
O      0.51328  0.60933  0.92391     O
C       0.5252   0.1695   0.8431     C
H       0.5425   0.8143   0.1595     H
Zn     0.55314  0.40033  0.94897    Zn
C       0.5542   0.0666   0.8086     C
H       0.5601   0.7432   0.8645     H
H       0.5705   0.8823   0.8008     H
C       0.5763   0.5562   0.8627     C
O      0.59174  0.60593  0.10232     O
N       0.5941  0.24812  0.88117     N
O      0.60276   0.4656   0.8508     O
C       0.6067   0.7075   0.8147     C
C       0.6252   0.6041   0.7955     C
N      0.63124  0.86287  0.78208     N
C       0.6555   0.7582   0.7617     C
C        0.656   0.0447   0.8106     C
C        0.667   0.5519   0.0979     C
O      0.67653  0.45932  0.03849     O
C       0.6953   0.2249   0.8848     C
C       0.6953   0.9344   0.7746     C
C       0.6969   0.5513   0.7222     C
H       0.7059   0.1051   0.3462     H
H       0.7101   0.4822   0.7092     H
O      0.71672    0.918  0.24752     O
C       0.7261   0.1214   0.8468     C
C       0.7279   0.7061    0.688     C
H       0.7382   0.7399   0.1521     H
H       0.7423   0.2775   0.9122     H
C       0.7481   0.6004   0.6692     C
C       0.7519   0.6004   0.1692     C
H       0.7577   0.2775   0.4122     H
H       0.7618   0.7399   0.6521     H
C       0.7721   0.7061    0.188     C
C       0.7739   0.1214   0.3468     C
O      0.78328    0.918  0.74752     O
H       0.7899   0.4822   0.2092     H
H       0.7941   0.1051   0.8462     H
C       0.8031   0.5513   0.2222     C
C       0.8047   0.2249   0.3848     C
C       0.8047   0.9344   0.2746     C
O      0.82347  0.45932  0.53849     O
C        0.833   0.5519   0.5979     C
C        0.844   0.0447   0.3106     C
C       0.8445   0.7582   0.2617     C
N      0.86876  0.86287  0.28208     N
C       0.8748   0.6041   0.2955     C
C       0.8933   0.7075   0.3147     C
O      0.89724   0.4656   0.3508     O
N       0.9059  0.24812  0.38117     N
O      0.90826  0.60593  0.60232     O
C       0.9237   0.5562   0.3627     C
H       0.9295   0.8823   0.3008     H
H       0.9399   0.7432   0.3645     H
C       0.9458   0.0666   0.3086     C
Zn     0.94686  0.40033  0.44897    Zn
H       0.9575   0.8143   0.6595     H
C       0.9748   0.1695   0.3431     C
O      0.98672  0.60933  0.42391     O
H       0.9932    0.014   0.2849     H
