data_I
_chemical_name_common  '/home/zhangsd/repos/MofS-CGCNN/ML/data/TSD/clean_cifs/UWUTIQ_clean'
_cell_length_a 10.89600
_cell_length_b 19.69800
_cell_length_c 21.55400
_cell_angle_alpha 90.00000
_cell_angle_beta  100.48000
_cell_angle_gamma 90.00000
_space_group_name_H-M_alt      'P 1'


loop_
_space_group_symop_operation_xyz
  'x, y, z' 

loop_
_atom_site_label
_atom_site_fract_x
_atom_site_fract_y
_atom_site_fract_z
_atom_site_type_symbol
H        0.027   0.0747   0.6271     H
H        0.027   0.4253   0.1271     H
C       0.0382   0.5019   0.1903     C
C       0.0382   0.9981   0.6903     C
C       0.0815   0.0436   0.6499     C
C       0.0815   0.4564   0.1499     C
H       0.0918   0.5783   0.2519     H
H       0.0918   0.9217   0.7519     H
C       0.0979    0.002   0.3051     C
C       0.0979    0.498   0.8051     C
C       0.1205   0.5478   0.2249     C
C       0.1205   0.9522   0.7249     C
O       0.1345  0.04788  0.27181     O
O       0.1345  0.45212  0.77181     O
O       0.1649   0.5425   0.8356     O
O       0.1649   0.9575   0.3356     O
H       0.1943   0.0665   0.1282     H
H       0.1943   0.4335   0.6282     H
H       0.2016   0.1367   0.0431     H
H       0.2016   0.3633   0.5431     H
C       0.2057   0.0425   0.6435     C
C       0.2057   0.4575   0.1435     C
H       0.2339   0.0721   0.6156     H
H       0.2339   0.4279   0.1156     H
H       0.2344   0.5934   0.6135     H
H       0.2344   0.9066   0.1135     H
H       0.2388   0.6717   0.5349     H
H       0.2388   0.8283   0.0349     H
C       0.2454   0.5481   0.2192     C
C       0.2454   0.9519   0.7192     C
C       0.2479   0.1037   0.1336     C
C       0.2479   0.3963   0.6336     C
C       0.2506   0.1461   0.0822     C
C       0.2506   0.3539   0.5822     C
C       0.2722   0.6354   0.6232     C
C       0.2722   0.8646   0.1232     C
C       0.2752   0.6825   0.5762     C
C       0.2752   0.8175   0.0762     C
C       0.2885   0.5028   0.1788     C
C       0.2885   0.9972   0.6788     C
O       0.2982  0.53893  0.71864     O
O       0.2982  0.96107  0.21864     O
H       0.3003   0.5788   0.2425     H
H       0.3003   0.9212   0.7425     H
H       0.3025   0.1848    0.965     H
H       0.3025   0.3152    0.465     H
H       0.3114   0.2363   0.3861     H
H       0.3114   0.2637   0.8861     H
Zn      0.3154  0.05228  0.26509    Zn
C       0.3154   0.2304   0.9752     C
C       0.3154   0.2696   0.4752     C
Zn      0.3154  0.44772  0.76509    Zn
N       0.3179   0.1137  0.19005     N
N       0.3179   0.3863  0.69005     N
C       0.3198   0.2222   0.4279     C
C       0.3198   0.2778   0.9279     C
C       0.3265   0.2017  0.09001     C
C       0.3265   0.2983  0.59001     C
C       0.3265   0.6511  0.68576     C
C       0.3265   0.8489  0.18576     C
C       0.3277   0.5983  0.73704     C
C       0.3277   0.9017  0.23704     C
C       0.3302   0.2488  0.53794     C
C       0.3302   0.2512  0.03794     C
C        0.331   0.7456   0.5887     C
C        0.331   0.7544   0.0887     C
H       0.3334    0.726   0.4669     H
H       0.3334    0.774   0.9669     H
C       0.3349   0.7052   0.0372     C
C       0.3349   0.7948   0.5372     C
C       0.3359   0.7278   0.9758     C
C       0.3359   0.7722   0.4758     C
C       0.3369   0.1532   0.4429     C
C       0.3369   0.3468   0.9429     C
O       0.3386  0.12196  0.33673     O
O       0.3386  0.37804  0.83673     O
H       0.3386   0.6178   0.0869     H
H       0.3386   0.8822   0.5869     H
C       0.3395   0.6353   0.0469     C
C       0.3395   0.8647   0.5469     C
H       0.3399   0.6977   0.8881     H
H       0.3399   0.8023   0.3881     H
C       0.3405   0.6816   0.9287     C
C       0.3405   0.8184   0.4287     C
C       0.3416   0.1014  0.39209     C
C       0.3416   0.3986  0.89209     C
C       0.3454   0.5919  0.99722     C
C       0.3454   0.9081  0.49722     C
N       0.3458  0.61397   0.9384     N
N       0.3458  0.88603   0.4384     N
O        0.347  0.04065  0.40898     O
O        0.347  0.45935  0.90898     O
H       0.3492   0.5454   0.0049     H
H       0.3492   0.9546   0.5049     H
C       0.3499   0.1802  0.55246     C
C       0.3499   0.3198  0.05246     C
C        0.352    0.133  0.50504     C
C        0.352    0.367  0.00504     C
Zn     0.35488  0.55068  0.86535    Zn
Zn     0.35488  0.94932  0.36535    Zn
O       0.3589  0.61717  0.79297     O
O       0.3589  0.88283  0.29297     O
H       0.3616    0.166   0.5943     H
H       0.3616    0.334   0.0943     H
H       0.3638   0.0873   0.5152     H
H       0.3638   0.4127   0.0152     H
C       0.3748    0.715    0.699     C
C       0.3748    0.785    0.199     C
C       0.3784   0.7383   0.1506     C
C       0.3784   0.7617   0.6506     C
C       0.3964   0.1662    0.196     C
C       0.3964   0.3338    0.696     C
C       0.4036   0.2102   0.1476     C
C       0.4036   0.2898   0.6476     C
H       0.4054   0.7273   0.7406     H
H       0.4054   0.7727   0.2406     H
H       0.4133   0.6956   0.1603     H
H       0.4133   0.8044   0.6603     H
C       0.4252   0.5016  0.17471     C
C       0.4252   0.9984  0.67471     C
H       0.4486   0.1732   0.2347     H
H       0.4486   0.3268   0.7347     H
O       0.4592  0.03475  0.63288     O
O       0.4592  0.46525  0.13288     O
H       0.4604   0.2459   0.1537     H
H       0.4604   0.2541   0.6537     H
O       0.4973   0.5367  0.21462     O
O       0.4973   0.9633  0.71462     O
O       0.5027   0.0367  0.28538     O
O       0.5027   0.4633  0.78538     O
H       0.5396   0.7459   0.3463     H
H       0.5396   0.7541   0.8463     H
O       0.5408  0.53475  0.86712     O
O       0.5408  0.96525  0.36712     O
H       0.5514   0.6732   0.2653     H
H       0.5514   0.8268   0.7653     H
C       0.5748   0.0016  0.32529     C
C       0.5748   0.4984  0.82529     C
H       0.5867   0.1956   0.3397     H
H       0.5867   0.3044   0.8397     H
H       0.5946   0.2273   0.7594     H
H       0.5946   0.2727   0.2594     H
C       0.5964   0.7102   0.3524     C
C       0.5964   0.7898   0.8524     C
C       0.6036   0.6662    0.304     C
C       0.6036   0.8338    0.804     C
C       0.6216   0.2383   0.3494     C
C       0.6216   0.2617   0.8494     C
C       0.6252    0.215    0.801     C
C       0.6252    0.285    0.301     C
H       0.6362   0.5873   0.9848     H
H       0.6362   0.9127   0.4848     H
H       0.6384    0.666   0.9057     H
H       0.6384    0.834   0.4057     H
O       0.6411  0.11717  0.70703     O
O       0.6411  0.38283  0.20703     O
Zn     0.64512  0.05068  0.63465    Zn
Zn     0.64512  0.44932  0.13465    Zn
C        0.648    0.633  0.99496     C
C        0.648    0.867  0.49496     C
C       0.6501   0.6802  0.94754     C
C       0.6501   0.8198  0.44754     C
H       0.6508   0.0454   0.4951     H
H       0.6508   0.4546   0.9951     H
O        0.653  0.54065  0.09102     O
O        0.653  0.95935  0.59102     O
N       0.6542  0.11397   0.5616     N
N       0.6542  0.38603   0.0616     N
C       0.6546   0.0919  0.50278     C
C       0.6546   0.4081  0.00278     C
C       0.6584   0.6014  0.10791     C
C       0.6584   0.8986  0.60791     C
C       0.6595   0.1816   0.5713     C
C       0.6595   0.3184   0.0713     C
H       0.6601   0.1977   0.6119     H
H       0.6601   0.3023   0.1119     H
C       0.6605   0.1353   0.4531     C
C       0.6605   0.3647   0.9531     C
H       0.6614   0.1178   0.4131     H
H       0.6614   0.3822   0.9131     H
O       0.6614  0.62196  0.16327     O
O       0.6614  0.87804  0.66327     O
C       0.6631   0.6532   0.0571     C
C       0.6631   0.8468   0.5571     C
C       0.6641   0.2278   0.5242     C
C       0.6641   0.2722   0.0242     C
C       0.6651   0.2052   0.4628     C
C       0.6651   0.2948   0.9628     C
H       0.6666    0.226   0.0331     H
H       0.6666    0.274   0.5331     H
C        0.669   0.2456   0.9113     C
C        0.669   0.2544   0.4113     C
C       0.6698   0.7488  0.96206     C
C       0.6698   0.7512  0.46206     C
C       0.6723   0.0983  0.76296     C
C       0.6723   0.4017  0.26296     C
C       0.6735   0.1511  0.81424     C
C       0.6735   0.3489  0.31424     C
C       0.6735   0.7017  0.40999     C
C       0.6735   0.7983  0.90999     C
C       0.6802   0.7222   0.0721     C
C       0.6802   0.7778   0.5721     C
N       0.6821   0.6137  0.30995     N
N       0.6821   0.8863  0.80995     N
Zn      0.6846  0.55228  0.23491    Zn
C       0.6846   0.7304   0.5248     C
C       0.6846   0.7696   0.0248     C
Zn      0.6846  0.94772  0.73491    Zn
H       0.6886   0.7363   0.1139     H
H       0.6886   0.7637   0.6139     H
H       0.6975   0.6848    0.535     H
H       0.6975   0.8152    0.035     H
H       0.6997   0.0788   0.2575     H
H       0.6997   0.4212   0.7575     H
O       0.7018  0.03893  0.78136     O
O       0.7018  0.46107  0.28136     O
C       0.7115   0.0028   0.3212     C
C       0.7115   0.4972   0.8212     C
C       0.7248   0.1825   0.9238     C
C       0.7248   0.3175   0.4238     C
C       0.7278   0.1354   0.8768     C
C       0.7278   0.3646   0.3768     C
C       0.7494   0.6461   0.4178     C
C       0.7494   0.8539   0.9178     C
C       0.7521   0.6037   0.3664     C
C       0.7521   0.8963   0.8664     C
C       0.7546   0.0481   0.2808     C
C       0.7546   0.4519   0.7808     C
H       0.7612   0.1717   0.9651     H
H       0.7612   0.3283   0.4651     H
H       0.7656   0.0934   0.8865     H
H       0.7656   0.4066   0.3865     H
H       0.7661   0.5721   0.8844     H
H       0.7661   0.9279   0.3844     H
C       0.7943   0.5425   0.8565     C
C       0.7943   0.9575   0.3565     C
H       0.7984   0.6367   0.4569     H
H       0.7984   0.8633   0.9569     H
H       0.8057   0.5665   0.3718     H
H       0.8057   0.9335   0.8718     H
O       0.8351   0.0425   0.6644     O
O       0.8351   0.4575   0.1644     O
O       0.8655  0.54788  0.22819     O
O       0.8655  0.95212  0.72819     O
C       0.8795   0.0478   0.2751     C
C       0.8795   0.4522   0.7751     C
C       0.9021    0.502   0.1949     C
C       0.9021    0.998   0.6949     C
H       0.9082   0.0783   0.2481     H
H       0.9082   0.4217   0.7481     H
C       0.9185   0.5436   0.8501     C
C       0.9185   0.9564   0.3501     C
C       0.9618   0.0019   0.3097     C
C       0.9618   0.4981   0.8097     C
H        0.973   0.5747   0.8729     H
H        0.973   0.9253   0.3729     H
