data_I
_chemical_name_common  '/home/zhangsd/repos/MofS-CGCNN/ML/data/TSD/clean_cifs/UXABOL_clean'
_cell_length_a  6.76700
_cell_length_b 11.23100
_cell_length_c 19.74250
_cell_angle_alpha 106.52500
_cell_angle_beta  90.92030
_cell_angle_gamma 90.00000
_space_group_name_H-M_alt      'P 1'


loop_
_space_group_symop_operation_xyz
  'x, y, z' 

loop_
_atom_site_label
_atom_site_fract_x
_atom_site_fract_y
_atom_site_fract_z
_atom_site_type_symbol
O       0.0092  0.91572  0.35124     O
O        0.011   0.2997   0.3022     O
C       0.0146    0.245   0.4106     C
H       0.0149   0.8155   0.5672     H
H       0.0284   0.7974   0.9642     H
C       0.0349  0.15538  0.06136     C
C       0.0377  0.77682  0.66484     C
C       0.0388  0.03361  0.03482     C
H       0.0949   0.9874   0.0624     H
C       0.1047  0.35145   0.4481     C
O       0.1136  0.33505   0.1553     O
H       0.1196   0.3186   0.5462     H
C       0.1276  0.21932  0.13024     C
H        0.129   0.4131   0.4262     H
O       0.1298   0.8746    0.693     O
C       0.1572  0.86138  0.36936     C
C       0.1647  0.37262  0.52184     C
H       0.1721    0.989     0.47     H
Er     0.19016  0.07975  0.74096    Er
C       0.2183  0.91118  0.44476     C
O       0.2227  0.15888  0.16476     O
O       0.2428  0.77038  0.33016     O
O       0.2572  0.44022  0.66984     O
O       0.2773  0.99412  0.83524     O
C       0.2817  0.46642  0.55524     C
Er     0.30984  0.33879  0.25904    Er
H       0.3279    0.519     0.53     H
C       0.3353  0.85078  0.47816     C
C       0.3428  0.49202  0.63064     C
O       0.3702   0.1816    0.307     O
H        0.371   0.9869   0.5738     H
C       0.3724  0.08908  0.86976     C
H       0.3804   0.7724   0.4538     H
O       0.3864  0.17975   0.8447     O
C       0.3953  0.90335   0.5519     C
H       0.4051    0.925   0.9376     H
C       0.4612  0.99879  0.96518     C
C       0.4623  0.11198  0.33516     C
C       0.4651  0.09402  0.93864     C
H       0.4716   0.8332   0.0358     H
H       0.4851   0.2483   0.4328     H
C       0.4854   0.8344   0.5894     C
O        0.489   0.9975   0.6978     O
O       0.4908  0.56448  0.64876     O
O       0.5092  0.43552  0.35124     O
O        0.511   0.0025   0.3022     O
C       0.5146   0.1656   0.4106     C
H       0.5149   0.7517   0.5672     H
H       0.5284   0.1668   0.9642     H
C       0.5349  0.90598  0.06136     C
C       0.5377  0.88802  0.66484     C
C       0.5388  0.00121  0.03482     C
H       0.5949    0.075   0.0624     H
C       0.6047  0.09665   0.4481     C
O       0.6136  0.82025   0.1553     O
H       0.6196   0.2276   0.5462     H
C       0.6276  0.91092  0.13024     C
H        0.629   0.0131   0.4262     H
O       0.6298   0.8184    0.693     O
C       0.6572  0.50798  0.36936     C
C       0.6647  0.14922  0.52184     C
H       0.6721    0.481     0.47     H
Er     0.69016  0.66121  0.74096    Er
C       0.7183  0.53358  0.44476     C
O       0.7227  0.00588  0.16476     O
O       0.7428  0.55978  0.33016     O
O       0.7572  0.22962  0.66984     O
O       0.7773  0.84112  0.83524     O
C       0.7817  0.08882  0.55524     C
Er     0.80984  0.92025  0.25904    Er
H       0.8279    0.011     0.53     H
C       0.8353  0.62738  0.47816     C
C       0.8428  0.13862  0.63064     C
O       0.8702   0.1254    0.307     O
H        0.871   0.5869   0.5738     H
C       0.8724  0.78068  0.86976     C
H       0.8804   0.6814   0.4538     H
O       0.8864  0.66495   0.8447     O
C       0.8953  0.64855   0.5519     C
H       0.9051   0.0126   0.9376     H
C       0.9612  0.96639  0.96518     C
C       0.9623  0.22318  0.33516     C
C       0.9651  0.84462  0.93864     C
H       0.9716   0.2026   0.0358     H
H       0.9851   0.1845   0.4328     H
C       0.9854    0.755   0.5894     C
O        0.989   0.7003   0.6978     O
O       0.9908  0.08428  0.64876     O
