data_I
_chemical_name_common  '/home/zhangsd/repos/MofS-CGCNN/ML/data/TSD/clean_cifs/UXUPEK_clean'
_cell_length_a 14.83600
_cell_length_b  6.68440
_cell_length_c  4.36300
_cell_angle_alpha 90.00000
_cell_angle_beta  93.28000
_cell_angle_gamma 90.00000
_space_group_name_H-M_alt      'P 1'


loop_
_space_group_symop_operation_xyz
  'x, y, z' 

loop_
_atom_site_label
_atom_site_fract_x
_atom_site_fract_y
_atom_site_fract_z
_atom_site_type_symbol
H       0.0343   0.1227    0.228     H
H       0.0343   0.8773    0.228     H
C       0.0387      0.0   0.1205     C
P       0.1493      0.0   0.9717     P
O       0.1588   0.1897   0.7852     O
O       0.1588   0.8103   0.7852     O
O       0.2174      0.0   0.2567     O
Cu        0.25     0.25      0.5    Cu
Cu        0.25     0.75      0.5    Cu
O       0.2826      0.5   0.7433     O
O       0.3412   0.3103   0.2148     O
O       0.3412   0.6897   0.2148     O
P       0.3507      0.5   0.0283     P
C       0.4613      0.5   0.8795     C
H       0.4657   0.3773    0.772     H
H       0.4657   0.6227    0.772     H
H       0.5343   0.3773    0.228     H
H       0.5343   0.6227    0.228     H
C       0.5387      0.5   0.1205     C
P       0.6493      0.5   0.9717     P
O       0.6588   0.3103   0.7852     O
O       0.6588   0.6897   0.7852     O
O       0.7174      0.5   0.2567     O
Cu        0.75     0.25      0.5    Cu
Cu        0.75     0.75      0.5    Cu
O       0.7826      0.0   0.7433     O
O       0.8412   0.1897   0.2148     O
O       0.8412   0.8103   0.2148     O
P       0.8507      0.0   0.0283     P
C       0.9613      0.0   0.8795     C
H       0.9657   0.1227    0.772     H
H       0.9657   0.8773    0.772     H
