data_I
_chemical_name_common  '/home/zhangsd/repos/MofS-CGCNN/ML/data/TSD/clean_cifs/UXUZAP_clean'
_cell_length_a  9.05410
_cell_length_b 10.44430
_cell_length_c 18.20060
_cell_angle_alpha 90.00000
_cell_angle_beta  90.00000
_cell_angle_gamma 90.00000
_space_group_name_H-M_alt      'P 1'


loop_
_space_group_symop_operation_xyz
  'x, y, z' 

loop_
_atom_site_label
_atom_site_fract_x
_atom_site_fract_y
_atom_site_fract_z
_atom_site_type_symbol
N        0.005    0.074  0.51899     N
N        0.005    0.426  0.01899     N
C        0.031   0.1618  0.46365     C
C        0.031   0.3382  0.96365     C
O       0.0379   0.6063  0.16284     O
O       0.0379   0.8937  0.66284     O
N       0.0411   0.1814  0.84835     N
N       0.0411   0.3186  0.34835     N
H       0.1039   0.1964   0.1288     H
H       0.1039   0.3036   0.6288     H
Zn     0.13211  0.01884  0.59969    Zn
Zn     0.13211  0.48116  0.09969    Zn
C       0.1469   0.1894    0.899     C
C       0.1469   0.3106    0.399     C
N       0.1532   0.2366  0.45776     N
N       0.1532   0.2634  0.95776     N
C       0.1777   0.2202   0.1615     C
C       0.1777   0.2798   0.6615     C
H       0.2073   0.0429   0.2041     H
H       0.2073   0.4571   0.7041     H
N       0.2202   0.1571  0.66366     N
N       0.2202   0.3429  0.16366     N
H       0.2274   0.1355   0.8921     H
H       0.2274   0.3645   0.3921     H
C       0.2396   0.1273   0.2063     C
C       0.2396   0.3727   0.7063     C
H       0.2398   0.7026   0.1948     H
H       0.2398   0.7974   0.6948     H
N       0.3117   0.5699   0.0601     N
N       0.3117   0.9301   0.5601     N
N       0.3169   0.7495   0.6976     N
N       0.3169   0.7505   0.1976     N
C       0.3242    0.124   0.7111     C
C       0.3242    0.376   0.2111     C
H       0.3266   0.6968   0.7336     H
H       0.3266   0.8032   0.2336     H
H       0.3278   0.0384   0.4702     H
H       0.3278   0.4616   0.9702     H
C       0.3495   0.1626   0.2541     C
C       0.3495   0.3374   0.7541     C
H       0.3523   0.0385   0.7136     H
H       0.3523   0.4615   0.2136     H
O       0.3667   0.5402  0.81265     O
O       0.3667   0.9598  0.31265     O
C       0.3733   0.5241   0.9988     C
C       0.3733   0.9759   0.4988     C
C       0.3928   0.2108   0.7569     C
C       0.3928   0.2892   0.2569     C
C       0.4143   0.6587  0.08431     C
C       0.4143   0.8413  0.58431     C
C       0.4204   0.0657   0.3044     C
C       0.4204   0.4343   0.8044     C
C       0.4215   0.7429   0.1461     C
C       0.4215   0.7571   0.6461     C
H       0.4666   0.1845   0.7891     H
H       0.4666   0.3155   0.2891     H
N        0.505    0.574  0.98101     N
N        0.505    0.926  0.48101     N
C        0.531   0.6618  0.03635     C
C        0.531   0.8382  0.53635     C
O       0.5379   0.1063  0.33716     O
O       0.5379   0.3937  0.83716     O
N       0.5411   0.6814  0.65165     N
N       0.5411   0.8186  0.15165     N
H       0.6039   0.6964   0.3712     H
H       0.6039   0.8036   0.8712     H
Zn     0.63211  0.51884  0.90031    Zn
Zn     0.63211  0.98116  0.40031    Zn
C       0.6469   0.6894    0.601     C
C       0.6469   0.8106    0.101     C
N       0.6532   0.7366  0.04224     N
N       0.6532   0.7634  0.54224     N
C       0.6777   0.7202   0.3385     C
C       0.6777   0.7798   0.8385     C
H       0.7073   0.5429   0.2959     H
H       0.7073   0.9571   0.7959     H
N       0.7202   0.6571  0.83634     N
N       0.7202   0.8429  0.33634     N
H       0.7274   0.6355   0.6079     H
H       0.7274   0.8645   0.1079     H
C       0.7396   0.6273   0.2937     C
C       0.7396   0.8727   0.7937     C
H       0.7398   0.2026   0.3052     H
H       0.7398   0.2974   0.8052     H
N       0.8117   0.0699   0.4399     N
N       0.8117   0.4301   0.9399     N
N       0.8169   0.2495   0.8024     N
N       0.8169   0.2505   0.3024     N
C       0.8242    0.624   0.7889     C
C       0.8242    0.876   0.2889     C
H       0.8266   0.1968   0.7664     H
H       0.8266   0.3032   0.2664     H
H       0.8278   0.5384   0.0298     H
H       0.8278   0.9616   0.5298     H
C       0.8495   0.6626   0.2459     C
C       0.8495   0.8374   0.7459     C
H       0.8523   0.5385   0.7864     H
H       0.8523   0.9615   0.2864     H
O       0.8667   0.0402  0.68735     O
O       0.8667   0.4598  0.18735     O
C       0.8733   0.0241   0.5012     C
C       0.8733   0.4759   0.0012     C
C       0.8928   0.7108   0.7431     C
C       0.8928   0.7892   0.2431     C
C       0.9143   0.1587  0.41569     C
C       0.9143   0.3413  0.91569     C
C       0.9204   0.5657   0.1956     C
C       0.9204   0.9343   0.6956     C
C       0.9215   0.2429   0.3539     C
C       0.9215   0.2571   0.8539     C
H       0.9666   0.6845   0.7109     H
H       0.9666   0.8155   0.2109     H
