data_I
_chemical_name_common  '/home/zhangsd/repos/MofS-CGCNN/ML/data/TSD/clean_cifs/VAGBOX_clean'
_cell_length_a 46.00900
_cell_length_b  9.73330
_cell_length_c 20.71590
_cell_angle_alpha 90.00000
_cell_angle_beta  105.77000
_cell_angle_gamma 90.00000
_space_group_name_H-M_alt      'P 1'


loop_
_space_group_symop_operation_xyz
  'x, y, z' 

loop_
_atom_site_label
_atom_site_fract_x
_atom_site_fract_y
_atom_site_fract_z
_atom_site_type_symbol
Gd     0.00339  0.25163  0.01658    Gd
Gd     0.00339  0.74837  0.51658    Gd
O      0.02149   0.0996   0.5651     O
O      0.02149   0.9004   0.0651     O
O      0.02176   0.3457   0.9227     O
O      0.02176   0.6543   0.4227     O
O      0.03161   0.1126   0.1028     O
O      0.03161   0.8874   0.6028     O
O       0.0335   0.4081   0.5278     O
O       0.0335   0.5919   0.0278     O
C      0.03672   0.0139   0.6059     C
C      0.03672   0.9861   0.1059     C
O      0.04356   0.1551   0.9702     O
O      0.04356   0.8449   0.4702     O
C      0.04437   0.2653   0.9388     C
C      0.04437   0.7347   0.4388     C
H       0.0489   0.2569   0.6664     H
O       0.0489   0.3832   0.0632     O
O       0.0489   0.6168   0.5632     O
H       0.0489   0.7431   0.1664     H
C      0.05424   0.4925   0.5527     C
C      0.05424   0.5075   0.0527     C
H       0.0612   0.4964   0.8866     H
H       0.0612   0.5036   0.3866     H
C      0.06284    0.062   0.6615     C
C      0.06284    0.938   0.1615     C
C      0.06455   0.1957   0.6844     C
C      0.06455   0.8043   0.1844     C
C      0.07349   0.3049   0.9237     C
C      0.07349   0.6951   0.4237     C
C      0.07729   0.4353   0.8984     C
C      0.07729   0.5647   0.3984     C
H       0.0776   0.2458   0.5484     H
H       0.0776   0.7542   0.0484     H
H       0.0849   0.1174   0.1734     H
H       0.0849   0.8826   0.6734     H
C      0.08622    0.027   0.1885     C
C      0.08622    0.973   0.6885     C
C      0.08653   0.4475   0.5693     C
C      0.08653   0.5525   0.0693     C
C       0.0894   0.2386    0.734     C
C       0.0894   0.7614    0.234     C
H       0.0901   0.3279   0.7503     H
H       0.0901   0.6721   0.2503     H
C      0.09309   0.3095   0.5626     C
C      0.09309   0.6905   0.0626     C
H       0.0958   0.1309   0.9597     H
H       0.0958   0.8691   0.4597     H
C      0.09822   0.2164   0.9418     C
C      0.09822   0.7836   0.4418     C
H       0.1048   0.3691   0.0956     H
H       0.1048   0.6309   0.5956     H
C      0.10552   0.4725   0.8912     C
C      0.10552   0.5275   0.3912     C
H       0.1082   0.4411   0.3746     H
H       0.1082   0.5589   0.8746     H
C      0.10948   0.4607   0.0904     C
C      0.10948   0.5393   0.5904     C
H       0.1117   0.2553   0.2552     H
H       0.1117   0.7447   0.7552     H
C      0.11172    0.014   0.7377     C
C      0.11172    0.986   0.2377     C
C      0.11322   0.1503   0.7599     C
C      0.11322   0.8497   0.2599     C
C      0.12253    0.269   0.5772     C
C      0.12253    0.731   0.0772     C
C      0.12637   0.2518   0.9339     C
C      0.12637   0.7482   0.4339     C
H        0.127   0.0211   0.4378     H
H        0.127   0.1768    0.573     H
H        0.127   0.8232    0.073     H
H        0.127   0.9789   0.9378     H
C      0.12951   0.3816   0.9085     C
C      0.12951   0.6184   0.4085     C
H       0.1302   0.1814    0.792     H
H       0.1302   0.8186    0.292     H
C      0.13126    0.221   0.2702     C
C      0.13126    0.779   0.7702     C
C       0.1365   0.0826   0.2659     C
C       0.1365   0.9174   0.7659     C
C      0.13963   0.4993   0.1043     C
C      0.13963   0.5007   0.6043     C
H       0.1404   0.2243   0.1103     H
H       0.1404   0.7757   0.6103     H
C      0.14585   0.3618   0.5982     C
C      0.14585   0.6382   0.0982     C
C       0.1466    0.013   0.9511     C
C       0.1466    0.987   0.4511     C
H       0.1481   0.4079   0.9031     H
H       0.1481   0.5921   0.4031     H
H       0.1506   0.4015   0.2993     H
H       0.1506   0.5985   0.7993     H
C       0.1515   0.1512   0.9512     C
C       0.1515   0.8488   0.4512     C
C      0.15498   0.3088   0.2966     C
C      0.15498   0.6912   0.7966     C
C      0.16012   0.2574   0.1224     C
C      0.16012   0.7426   0.6224     C
C      0.16481    0.396   0.1246     C
C      0.16481    0.604   0.6246     C
H       0.1658   0.3317   0.6082     H
H       0.1658   0.6683   0.1082     H
C      0.16646   0.0404    0.288     C
C      0.16646   0.9596    0.788     C
H       0.1667   0.1706   0.4709     H
H       0.1667   0.8294   0.9709     H
C      0.17083   0.0771   0.4707     C
C      0.17083   0.9229   0.9707     C
H       0.1714   0.0516   0.7848     H
H       0.1714   0.9484   0.2848     H
H       0.1792   0.0723   0.1354     H
H       0.1792   0.9277   0.6354     H
C      0.18149   0.1957   0.9692     C
C      0.18149   0.8043   0.4692     C
C      0.18355   0.1658   0.1374     C
C      0.18355   0.8342   0.6374     C
N      0.18378   0.2702   0.3186     N
N      0.18378   0.7298   0.8186     N
H       0.1861   0.2886   0.9685     H
H       0.1861   0.7114   0.4685     H
C      0.18886   0.1345   0.3143     C
C      0.18886   0.8655   0.8143     C
C      0.19475    0.438   0.1438     C
C      0.19475    0.562   0.6438     C
I      0.19896  0.34578  0.81126     I
I      0.19896  0.65422  0.31126     I
H       0.1994   0.4689   0.6472     H
H       0.1994   0.5311   0.1472     H
N      0.19986    0.037   0.4895     N
N      0.19986    0.963   0.9895     N
C      0.20399   0.0993    0.988     C
C      0.20399   0.9007    0.488     C
H       0.2086   0.1028     0.33     H
H       0.2086   0.8972     0.83     H
N      0.21264   0.2058   0.1552     N
N      0.21264   0.7942   0.6552     N
Cu      0.2163  0.40674   0.3627    Cu
Cu      0.2163  0.59326   0.8627    Cu
I      0.21658  0.42144  0.49133     I
I      0.21658  0.57856  0.99133     I
C      0.21737   0.3422   0.1577     C
C      0.21737   0.6578   0.6577     C
H       0.2238   0.1312   0.0007     H
H       0.2238   0.8688   0.5007     H
I      0.23232   0.1782  0.66249     I
I      0.23232   0.8218  0.16249     I
Cu     0.23366  0.16883  0.53295    Cu
Cu     0.23366  0.83117  0.03295    Cu
H       0.2372   0.3733   0.1697     H
H       0.2372   0.6267   0.6697     H
Cu       0.247  0.07667  0.16852    Cu
Cu       0.247  0.92333  0.66852    Cu
Cu       0.253  0.42333  0.83148    Cu
Cu       0.253  0.57667  0.33148    Cu
H       0.2628   0.1267   0.8303     H
H       0.2628   0.8733   0.3303     H
Cu     0.26634  0.33117  0.46705    Cu
Cu     0.26634  0.66883  0.96705    Cu
I      0.26768   0.3218  0.33751     I
I      0.26768   0.6782  0.83751     I
H       0.2762   0.3688   0.9993     H
H       0.2762   0.6312   0.4993     H
C      0.28263   0.1578   0.8423     C
C      0.28263   0.8422   0.3423     C
I      0.28342  0.07856  0.50867     I
I      0.28342  0.92144  0.00867     I
Cu      0.2837  0.09326   0.6373    Cu
Cu      0.2837  0.90674   0.1373    Cu
N      0.28736   0.2942   0.8448     N
N      0.28736   0.7058   0.3448     N
H       0.2914   0.3972     0.67     H
H       0.2914   0.6028     0.17     H
C      0.29601   0.4007    0.012     C
C      0.29601   0.5993    0.512     C
N      0.30014    0.463   0.5105     N
N      0.30014    0.537   0.0105     N
H       0.3006   0.0311   0.3528     H
H       0.3006   0.9689   0.8528     H
I      0.30104  0.15422  0.18874     I
I      0.30104  0.84578  0.68874     I
C      0.30525    0.062   0.8562     C
C      0.30525    0.938   0.3562     C
C      0.31114   0.3655   0.6857     C
C      0.31114   0.6345   0.1857     C
H       0.3139   0.2114   0.0315     H
H       0.3139   0.7886   0.5315     H
N      0.31622   0.2298   0.6814     N
N      0.31622   0.7702   0.1814     N
C      0.31645   0.3342   0.8626     C
C      0.31645   0.6658   0.3626     C
C      0.31851   0.3043   0.0308     C
C      0.31851   0.6957   0.5308     C
H       0.3208   0.4277   0.8646     H
H       0.3208   0.5723   0.3646     H
H       0.3286   0.4484   0.2152     H
H       0.3286   0.5516   0.7152     H
C      0.32917   0.4229   0.5293     C
C      0.32917   0.5771   0.0293     C
H       0.3333   0.3294   0.5291     H
H       0.3333   0.6706   0.0291     H
C      0.33354   0.4596    0.712     C
C      0.33354   0.5404    0.212     C
H       0.3342   0.1683   0.3918     H
H       0.3342   0.8317   0.8918     H
C      0.33519    0.104   0.8754     C
C      0.33519    0.896   0.3754     C
C      0.33988   0.2426   0.8776     C
C      0.33988   0.7574   0.3776     C
C      0.34502   0.1912   0.7034     C
C      0.34502   0.8088   0.2034     C
C       0.3485   0.3488   0.0488     C
C       0.3485   0.6512   0.5488     C
H       0.3494   0.0985   0.7007     H
H       0.3494   0.9015   0.2007     H
H       0.3519   0.0921   0.0969     H
H       0.3519   0.9079   0.5969     H
C       0.3534    0.487   0.0489     C
C       0.3534    0.513   0.5489     C
C      0.35415   0.1382   0.4018     C
C      0.35415   0.8618   0.9018     C
H       0.3596   0.2757   0.8897     H
H       0.3596   0.7243   0.3897     H
C      0.36037   0.0007   0.8957     C
C      0.36037   0.9993   0.3957     C
C       0.3635   0.4174   0.7341     C
C       0.3635   0.5826   0.2341     C
C      0.36874    0.279   0.7298     C
C      0.36874    0.721   0.2298     C
H       0.3698   0.3186    0.208     H
H       0.3698   0.6814    0.708     H
C      0.37049   0.1184   0.0915     C
C      0.37049   0.8816   0.5915     C
H        0.373   0.3232    0.427     H
H        0.373   0.4789   0.5622     H
H        0.373   0.5211   0.0622     H
H        0.373   0.6768    0.927     H
C      0.37363   0.2482   0.0661     C
C      0.37363   0.7518   0.5661     C
C      0.37747    0.231   0.4228     C
C      0.37747    0.769   0.9228     C
C      0.38678   0.3497   0.2401     C
C      0.38678   0.6503   0.7401     C
C      0.38828    0.486   0.2623     C
C      0.38828    0.514   0.7623     C
H       0.3883   0.2447   0.7448     H
H       0.3883   0.7553   0.2448     H
C      0.39052   0.0393   0.9096     C
C      0.39052   0.9607   0.4096     C
H       0.3918   0.0589   0.6254     H
H       0.3918   0.9411   0.1254     H
C      0.39448   0.0275   0.1088     C
C      0.39448   0.9725   0.6088     C
H       0.3952   0.1309   0.9044     H
H       0.3952   0.8691   0.4044     H
C      0.40178   0.2836   0.0582     C
C      0.40178   0.7164   0.5582     C
H       0.4042   0.3691   0.0403     H
H       0.4042   0.6309   0.5403     H
C      0.40691   0.1905   0.4374     C
C      0.40691   0.8095   0.9374     C
H       0.4099   0.1721   0.2497     H
H       0.4099   0.8279   0.7497     H
C       0.4106   0.2614    0.266     C
C       0.4106   0.7386    0.766     C
C      0.41347   0.0525   0.4307     C
C      0.41347   0.9475   0.9307     C
C      0.41378    0.473   0.8115     C
C      0.41378    0.527   0.3115     C
H       0.4151   0.3826   0.8266     H
H       0.4151   0.6174   0.3266     H
H       0.4224   0.2542   0.4516     H
H       0.4224   0.7458   0.9516     H
C      0.42271   0.0647   0.1016     C
C      0.42271   0.9353   0.6016     C
C      0.42651   0.1951   0.0763     C
C      0.42651   0.8049   0.5763     C
C      0.43545   0.3043   0.3156     C
C      0.43545   0.6957   0.8156     C
C      0.43716    0.438   0.3385     C
C      0.43716    0.562   0.8385     C
H       0.4388   0.0036   0.1134     H
H       0.4388   0.9964   0.6134     H
C      0.44576   0.0075   0.4473     C
C      0.44576   0.9925   0.9473     C
O       0.4511   0.1168   0.9368     O
H       0.4511   0.2431   0.3336     H
H       0.4511   0.7569   0.8336     H
O       0.4511   0.8832   0.4368     O
C      0.45563   0.2347   0.0612     C
C      0.45563   0.7653   0.5612     C
O      0.45644   0.3449   0.0298     O
O      0.45644   0.6551   0.5298     O
C      0.46328   0.4861   0.3941     C
C      0.46328   0.5139   0.8941     C
O       0.4665   0.0919   0.4722     O
O       0.4665   0.9081   0.9722     O
O      0.46839   0.3874   0.8972     O
O      0.46839   0.6126   0.3972     O
O      0.47824   0.1543   0.0773     O
O      0.47824   0.8457   0.5773     O
O      0.47851   0.4004   0.4349     O
O      0.47851   0.5996   0.9349     O
Gd     0.49661  0.24837  0.98342    Gd
Gd     0.49661  0.75163  0.48342    Gd
Gd     0.50339  0.24837  0.51658    Gd
Gd     0.50339  0.75163  0.01658    Gd
O      0.52149   0.4004   0.0651     O
O      0.52149   0.5996   0.5651     O
O      0.52176   0.1543   0.4227     O
O      0.52176   0.8457   0.9227     O
O      0.53161   0.3874   0.6028     O
O      0.53161   0.6126   0.1028     O
O       0.5335   0.0919   0.0278     O
O       0.5335   0.9081   0.5278     O
C      0.53672   0.4861   0.1059     C
C      0.53672   0.5139   0.6059     C
O      0.54356   0.3449   0.4702     O
O      0.54356   0.6551   0.9702     O
C      0.54437   0.2347   0.4388     C
C      0.54437   0.7653   0.9388     C
O       0.5489   0.1168   0.5632     O
H       0.5489   0.2431   0.1664     H
H       0.5489   0.7569   0.6664     H
O       0.5489   0.8832   0.0632     O
C      0.55424   0.0075   0.0527     C
C      0.55424   0.9925   0.5527     C
H       0.5612   0.0036   0.3866     H
H       0.5612   0.9964   0.8866     H
C      0.56284    0.438   0.1615     C
C      0.56284    0.562   0.6615     C
C      0.56455   0.3043   0.1844     C
C      0.56455   0.6957   0.6844     C
C      0.57349   0.1951   0.4237     C
C      0.57349   0.8049   0.9237     C
C      0.57729   0.0647   0.3984     C
C      0.57729   0.9353   0.8984     C
H       0.5776   0.2542   0.0484     H
H       0.5776   0.7458   0.5484     H
H       0.5849   0.3826   0.6734     H
H       0.5849   0.6174   0.1734     H
C      0.58622    0.473   0.6885     C
C      0.58622    0.527   0.1885     C
C      0.58653   0.0525   0.0693     C
C      0.58653   0.9475   0.5693     C
C       0.5894   0.2614    0.234     C
C       0.5894   0.7386    0.734     C
H       0.5901   0.1721   0.2503     H
H       0.5901   0.8279   0.7503     H
C      0.59309   0.1905   0.0626     C
C      0.59309   0.8095   0.5626     C
H       0.5958   0.3691   0.4597     H
H       0.5958   0.6309   0.9597     H
C      0.59822   0.2836   0.4418     C
C      0.59822   0.7164   0.9418     C
H       0.6048   0.1309   0.5956     H
H       0.6048   0.8691   0.0956     H
C      0.60552   0.0275   0.3912     C
C      0.60552   0.9725   0.8912     C
H       0.6082   0.0589   0.8746     H
H       0.6082   0.9411   0.3746     H
C      0.60948   0.0393   0.5904     C
C      0.60948   0.9607   0.0904     C
H       0.6117   0.2447   0.7552     H
H       0.6117   0.7553   0.2552     H
C      0.61172    0.486   0.2377     C
C      0.61172    0.514   0.7377     C
C      0.61322   0.3497   0.2599     C
C      0.61322   0.6503   0.7599     C
C      0.62253    0.231   0.0772     C
C      0.62253    0.769   0.5772     C
C      0.62637   0.2482   0.4339     C
C      0.62637   0.7518   0.9339     C
H        0.627   0.3232    0.073     H
H        0.627   0.4789   0.9378     H
H        0.627   0.5211   0.4378     H
H        0.627   0.6768    0.573     H
C      0.62951   0.1184   0.4085     C
C      0.62951   0.8816   0.9085     C
H       0.6302   0.3186    0.292     H
H       0.6302   0.6814    0.792     H
C      0.63126    0.279   0.7702     C
C      0.63126    0.721   0.2702     C
C       0.6365   0.4174   0.7659     C
C       0.6365   0.5826   0.2659     C
C      0.63963   0.0007   0.6043     C
C      0.63963   0.9993   0.1043     C
H       0.6404   0.2757   0.6103     H
H       0.6404   0.7243   0.1103     H
C      0.64585   0.1382   0.0982     C
C      0.64585   0.8618   0.5982     C
C       0.6466    0.487   0.4511     C
C       0.6466    0.513   0.9511     C
H       0.6481   0.0921   0.4031     H
H       0.6481   0.9079   0.9031     H
H       0.6506   0.0985   0.7993     H
H       0.6506   0.9015   0.2993     H
C       0.6515   0.3488   0.4512     C
C       0.6515   0.6512   0.9512     C
C      0.65498   0.1912   0.7966     C
C      0.65498   0.8088   0.2966     C
C      0.66012   0.2426   0.6224     C
C      0.66012   0.7574   0.1224     C
C      0.66481    0.104   0.6246     C
C      0.66481    0.896   0.1246     C
H       0.6658   0.1683   0.1082     H
H       0.6658   0.8317   0.6082     H
C      0.66646   0.4596    0.788     C
C      0.66646   0.5404    0.288     C
H       0.6667   0.3294   0.9709     H
H       0.6667   0.6706   0.4709     H
C      0.67083   0.4229   0.9707     C
C      0.67083   0.5771   0.4707     C
H       0.6714   0.4484   0.2848     H
H       0.6714   0.5516   0.7848     H
H       0.6792   0.4277   0.6354     H
H       0.6792   0.5723   0.1354     H
C      0.68149   0.3043   0.4692     C
C      0.68149   0.6957   0.9692     C
C      0.68355   0.3342   0.6374     C
C      0.68355   0.6658   0.1374     C
N      0.68378   0.2298   0.8186     N
N      0.68378   0.7702   0.3186     N
H       0.6861   0.2114   0.4685     H
H       0.6861   0.7886   0.9685     H
C      0.68886   0.3655   0.8143     C
C      0.68886   0.6345   0.3143     C
C      0.69475    0.062   0.6438     C
C      0.69475    0.938   0.1438     C
I      0.69896  0.15422  0.31126     I
I      0.69896  0.84578  0.81126     I
H       0.6994   0.0311   0.1472     H
H       0.6994   0.9689   0.6472     H
N      0.69986    0.463   0.9895     N
N      0.69986    0.537   0.4895     N
C      0.70399   0.4007    0.488     C
C      0.70399   0.5993    0.988     C
H       0.7086   0.3972     0.83     H
H       0.7086   0.6028     0.33     H
N      0.71264   0.2942   0.6552     N
N      0.71264   0.7058   0.1552     N
Cu      0.7163  0.09326   0.8627    Cu
Cu      0.7163  0.90674   0.3627    Cu
I      0.71658  0.07856  0.99133     I
I      0.71658  0.92144  0.49133     I
C      0.71737   0.1578   0.6577     C
C      0.71737   0.8422   0.1577     C
H       0.7238   0.3688   0.5007     H
H       0.7238   0.6312   0.0007     H
I      0.73232   0.3218  0.16249     I
I      0.73232   0.6782  0.66249     I
Cu     0.73366  0.33117  0.03295    Cu
Cu     0.73366  0.66883  0.53295    Cu
H       0.7372   0.1267   0.6697     H
H       0.7372   0.8733   0.1697     H
Cu       0.747  0.42333  0.66852    Cu
Cu       0.747  0.57667  0.16852    Cu
Cu       0.753  0.07667  0.33148    Cu
Cu       0.753  0.92333  0.83148    Cu
H       0.7628   0.3733   0.3303     H
H       0.7628   0.6267   0.8303     H
Cu     0.76634  0.16883  0.96705    Cu
Cu     0.76634  0.83117  0.46705    Cu
I      0.76768   0.1782  0.83751     I
I      0.76768   0.8218  0.33751     I
H       0.7762   0.1312   0.4993     H
H       0.7762   0.8688   0.9993     H
C      0.78263   0.3422   0.3423     C
C      0.78263   0.6578   0.8423     C
I      0.78342  0.42144  0.00867     I
I      0.78342  0.57856  0.50867     I
Cu      0.7837  0.40674   0.1373    Cu
Cu      0.7837  0.59326   0.6373    Cu
N      0.78736   0.2058   0.3448     N
N      0.78736   0.7942   0.8448     N
H       0.7914   0.1028     0.17     H
H       0.7914   0.8972     0.67     H
C      0.79601   0.0993    0.512     C
C      0.79601   0.9007    0.012     C
N      0.80014    0.037   0.0105     N
N      0.80014    0.963   0.5105     N
H       0.8006   0.4689   0.8528     H
H       0.8006   0.5311   0.3528     H
I      0.80104  0.34578  0.68874     I
I      0.80104  0.65422  0.18874     I
C      0.80525    0.438   0.3562     C
C      0.80525    0.562   0.8562     C
C      0.81114   0.1345   0.1857     C
C      0.81114   0.8655   0.6857     C
H       0.8139   0.2886   0.5315     H
H       0.8139   0.7114   0.0315     H
N      0.81622   0.2702   0.1814     N
N      0.81622   0.7298   0.6814     N
C      0.81645   0.1658   0.3626     C
C      0.81645   0.8342   0.8626     C
C      0.81851   0.1957   0.5308     C
C      0.81851   0.8043   0.0308     C
H       0.8208   0.0723   0.3646     H
H       0.8208   0.9277   0.8646     H
H       0.8286   0.0516   0.7152     H
H       0.8286   0.9484   0.2152     H
C      0.82917   0.0771   0.0293     C
C      0.82917   0.9229   0.5293     C
H       0.8333   0.1706   0.0291     H
H       0.8333   0.8294   0.5291     H
C      0.83354   0.0404    0.212     C
C      0.83354   0.9596    0.712     C
H       0.8342   0.3317   0.8918     H
H       0.8342   0.6683   0.3918     H
C      0.83519    0.396   0.3754     C
C      0.83519    0.604   0.8754     C
C      0.83988   0.2574   0.3776     C
C      0.83988   0.7426   0.8776     C
C      0.84502   0.3088   0.2034     C
C      0.84502   0.6912   0.7034     C
C       0.8485   0.1512   0.5488     C
C       0.8485   0.8488   0.0488     C
H       0.8494   0.4015   0.2007     H
H       0.8494   0.5985   0.7007     H
H       0.8519   0.4079   0.5969     H
H       0.8519   0.5921   0.0969     H
C       0.8534    0.013   0.5489     C
C       0.8534    0.987   0.0489     C
C      0.85415   0.3618   0.9018     C
C      0.85415   0.6382   0.4018     C
H       0.8596   0.2243   0.3897     H
H       0.8596   0.7757   0.8897     H
C      0.86037   0.4993   0.3957     C
C      0.86037   0.5007   0.8957     C
C       0.8635   0.0826   0.2341     C
C       0.8635   0.9174   0.7341     C
C      0.86874    0.221   0.2298     C
C      0.86874    0.779   0.7298     C
H       0.8698   0.1814    0.708     H
H       0.8698   0.8186    0.208     H
C      0.87049   0.3816   0.5915     C
C      0.87049   0.6184   0.0915     C
H        0.873   0.0211   0.0622     H
H        0.873   0.1768    0.927     H
H        0.873   0.8232    0.427     H
H        0.873   0.9789   0.5622     H
C      0.87363   0.2518   0.5661     C
C      0.87363   0.7482   0.0661     C
C      0.87747    0.269   0.9228     C
C      0.87747    0.731   0.4228     C
C      0.88678   0.1503   0.7401     C
C      0.88678   0.8497   0.2401     C
C      0.88828    0.014   0.7623     C
C      0.88828    0.986   0.2623     C
H       0.8883   0.2553   0.2448     H
H       0.8883   0.7447   0.7448     H
C      0.89052   0.4607   0.4096     C
C      0.89052   0.5393   0.9096     C
H       0.8918   0.4411   0.1254     H
H       0.8918   0.5589   0.6254     H
C      0.89448   0.4725   0.6088     C
C      0.89448   0.5275   0.1088     C
H       0.8952   0.3691   0.4044     H
H       0.8952   0.6309   0.9044     H
C      0.90178   0.2164   0.5582     C
C      0.90178   0.7836   0.0582     C
H       0.9042   0.1309   0.5403     H
H       0.9042   0.8691   0.0403     H
C      0.90691   0.3095   0.9374     C
C      0.90691   0.6905   0.4374     C
H       0.9099   0.3279   0.7497     H
H       0.9099   0.6721   0.2497     H
C       0.9106   0.2386    0.766     C
C       0.9106   0.7614    0.266     C
C      0.91347   0.4475   0.9307     C
C      0.91347   0.5525   0.4307     C
C      0.91378    0.027   0.3115     C
C      0.91378    0.973   0.8115     C
H       0.9151   0.1174   0.3266     H
H       0.9151   0.8826   0.8266     H
H       0.9224   0.2458   0.9516     H
H       0.9224   0.7542   0.4516     H
C      0.92271   0.4353   0.6016     C
C      0.92271   0.5647   0.1016     C
C      0.92651   0.3049   0.5763     C
C      0.92651   0.6951   0.0763     C
C      0.93545   0.1957   0.8156     C
C      0.93545   0.8043   0.3156     C
C      0.93716    0.062   0.8385     C
C      0.93716    0.938   0.3385     C
H       0.9388   0.4964   0.6134     H
H       0.9388   0.5036   0.1134     H
C      0.94576   0.4925   0.9473     C
C      0.94576   0.5075   0.4473     C
H       0.9511   0.2569   0.8336     H
O       0.9511   0.3832   0.4368     O
O       0.9511   0.6168   0.9368     O
H       0.9511   0.7431   0.3336     H
C      0.95563   0.2653   0.5612     C
C      0.95563   0.7347   0.0612     C
O      0.95644   0.1551   0.5298     O
O      0.95644   0.8449   0.0298     O
C      0.96328   0.0139   0.8941     C
C      0.96328   0.9861   0.3941     C
O       0.9665   0.4081   0.9722     O
O       0.9665   0.5919   0.4722     O
O      0.96839   0.1126   0.3972     O
O      0.96839   0.8874   0.8972     O
O      0.97824   0.3457   0.5773     O
O      0.97824   0.6543   0.0773     O
O      0.97851   0.0996   0.9349     O
O      0.97851   0.9004   0.4349     O
Gd     0.99661  0.25163  0.48342    Gd
Gd     0.99661  0.74837  0.98342    Gd
