data_I
_chemical_name_common  '/home/zhangsd/repos/MofS-CGCNN/ML/data/TSD/clean_cifs/VASFUT_clean'
_cell_length_a  6.05200
_cell_length_b 10.49940
_cell_length_c 13.45470
_cell_angle_alpha 71.63000
_cell_angle_beta  89.25400
_cell_angle_gamma 89.10100
_space_group_name_H-M_alt      'P 1'


loop_
_space_group_symop_operation_xyz
  'x, y, z' 

loop_
_atom_site_label
_atom_site_fract_x
_atom_site_fract_y
_atom_site_fract_z
_atom_site_type_symbol
O       0.0011    0.318   0.9827     O
O       0.0653   0.7019   0.8514     O
N       0.0802    0.885    0.576     N
N       0.0914    0.573    0.559     N
C       0.1064   0.0539   0.4097     C
C         0.11   0.6598   0.9472     C
C       0.1165   0.4707   0.4254     C
O       0.1483   0.3583   0.3005     O
H       0.1854   0.0887   0.3475     H
C       0.1865   0.9393   0.4852     C
C       0.2082   0.5437   0.4841     C
C       0.2472   0.4306   0.3429     C
Eu     0.25043  0.65949  0.70707    Eu
H       0.2995   0.5344   0.1323     H
C       0.3174   0.5744   0.9759     C
H       0.3533   0.5727    0.471     H
C       0.3844   0.5188   0.0791     C
C       0.3986   0.8691   0.4707     C
N       0.4333    0.556   0.8966     N
O       0.4414   0.4724   0.3237     O
O       0.4508   0.7687   0.5464     O
O       0.4949   0.0857   0.6118     O
O       0.5051   0.9143   0.3882     O
O       0.5492   0.2313   0.4536     O
O       0.5586   0.5276   0.6763     O
N       0.5667    0.444   0.1034     N
C       0.6014   0.1309   0.5293     C
C       0.6156   0.4812   0.9209     C
H       0.6467   0.4273    0.529     H
C       0.6826   0.4256   0.0241     C
H       0.7005   0.4656   0.8677     H
Eu     0.74957  0.34051  0.29293    Eu
C       0.7528   0.5694   0.6571     C
C       0.7918   0.4563   0.5159     C
C       0.8135   0.0607   0.5148     C
H       0.8146   0.9113   0.6525     H
O       0.8517   0.6417   0.6995     O
C       0.8835   0.5293   0.5746     C
C         0.89   0.3402   0.0528     C
C       0.8936   0.9461   0.5903     C
N       0.9086    0.427    0.441     N
N       0.9198    0.115    0.424     N
O       0.9347   0.2981   0.1486     O
O       0.9989    0.682   0.0173     O
