data_I
_chemical_name_common  '/home/zhangsd/repos/MofS-CGCNN/ML/data/TSD/clean_cifs/VASFED_clean'
_cell_length_a  6.08200
_cell_length_b 10.50910
_cell_length_c 13.62800
_cell_angle_alpha 72.39800
_cell_angle_beta  88.98000
_cell_angle_gamma 89.04300
_space_group_name_H-M_alt      'P 1'


loop_
_space_group_symop_operation_xyz
  'x, y, z' 

loop_
_atom_site_label
_atom_site_fract_x
_atom_site_fract_y
_atom_site_fract_z
_atom_site_type_symbol
O       0.0019   0.3208   0.9792     O
O       0.0633   0.6982   0.8568     O
N       0.0782    0.887   0.5755     N
N       0.0896   0.5722   0.5582     N
C        0.109   0.0526    0.411     C
C       0.1096   0.6578   0.9506     C
C       0.1172   0.4711   0.4254     C
O       0.1542   0.3586   0.3008     O
C       0.1867     0.94   0.4861     C
H       0.1895   0.0863   0.3503     H
C       0.2049   0.5435   0.4852     C
C       0.2469   0.4323   0.3438     C
Pr     0.25128  0.66056  0.70878    Pr
H       0.2963   0.5316   0.1315     H
C       0.3183   0.5732   0.9773     C
H       0.3494   0.5723   0.4732     H
C       0.3824   0.5173   0.0787     C
C          0.4   0.8682    0.473     C
N        0.434   0.5569   0.8984     N
O       0.4399   0.4761   0.3246     O
O       0.4534   0.7712   0.5472     O
O       0.4972   0.0887   0.6102     O
O       0.5028   0.9113   0.3898     O
O       0.5466   0.2288   0.4528     O
O       0.5601   0.5239   0.6754     O
N        0.566   0.4431   0.1016     N
C          0.6   0.1318    0.527     C
C       0.6176   0.4827   0.9213     C
H       0.6506   0.4277   0.5268     H
C       0.6817   0.4268   0.0227     C
H       0.7037   0.4684   0.8685     H
Pr     0.74872  0.33944  0.29122    Pr
C       0.7531   0.5677   0.6562     C
C       0.7951   0.4565   0.5148     C
H       0.8105   0.9137   0.6497     H
C       0.8133     0.06   0.5139     C
O       0.8458   0.6414   0.6992     O
C       0.8828   0.5289   0.5746     C
C       0.8904   0.3422   0.0494     C
C        0.891   0.9474    0.589     C
N       0.9104   0.4278   0.4418     N
N       0.9218    0.113   0.4245     N
O       0.9367   0.3018   0.1432     O
O       0.9981   0.6792   0.0208     O
