data_I
_chemical_name_common  '/home/zhangsd/repos/MofS-CGCNN/ML/data/TSD/clean_cifs/VASFIH_clean'
_cell_length_a  6.03270
_cell_length_b 12.77520
_cell_length_c 13.17750
_cell_angle_alpha 118.99000
_cell_angle_beta  90.57500
_cell_angle_gamma 91.67000
_space_group_name_H-M_alt      'P 1'


loop_
_space_group_symop_operation_xyz
  'x, y, z' 

loop_
_atom_site_label
_atom_site_fract_x
_atom_site_fract_y
_atom_site_fract_z
_atom_site_type_symbol
O       0.0395   0.9321   0.7966     O
N       0.0768   0.0479   0.4311     N
C       0.1107   0.0186   0.5955     C
H       0.1447   0.0585   0.0156     H
C       0.1879   0.0659   0.5267     C
O       0.1919    0.285   0.2481     O
H       0.1921   0.0337   0.6619     H
O       0.2026   0.4566   0.2433     O
C       0.2387   0.9058   0.7927     C
C       0.2496   0.3936   0.2878     C
Er     0.27633  0.16011  0.32198    Er
C       0.2901   0.0346   0.0109     C
O       0.3369   0.8345   0.7027     O
C       0.3755   0.9603   0.9034     C
C        0.385   0.4507   0.4001     C
C       0.4018   0.1397   0.5538     C
N        0.414    0.073   0.1091     N
H       0.4223   0.6166   0.4204     H
N       0.4305   0.3795    0.445     N
O        0.449    0.179   0.4855     O
C       0.4557   0.5702   0.4549     C
O       0.4808   0.8441   0.3613     O
O       0.5192   0.1559   0.6387     O
C       0.5443   0.4298   0.5451     C
O        0.551    0.821   0.5145     O
N       0.5695   0.6205    0.555     N
H       0.5777   0.3834   0.5796     H
N        0.586    0.927   0.8909     N
C       0.5982   0.8603   0.4462     C
C        0.615   0.5493   0.5999     C
C       0.6245   0.0397   0.0966     C
O       0.6631   0.1655   0.2973     O
C       0.7099   0.9654   0.9891     C
Er     0.72367  0.83989  0.67802    Er
C       0.7504   0.6064   0.7122     C
C       0.7613   0.0942   0.2073     C
O       0.7974   0.5434   0.7567     O
H       0.8079   0.9663   0.3381     H
O       0.8081    0.715   0.7519     O
C       0.8121   0.9341   0.4733     C
H       0.8553   0.9415   0.9844     H
C       0.8893   0.9814   0.4045     C
N       0.9232   0.9521   0.5689     N
O       0.9605   0.0679   0.2034     O
