data_I
_chemical_name_common  '/home/zhangsd/repos/MofS-CGCNN/ML/data/TSD/clean_cifs/VASGUU_clean'
_cell_length_a 15.67290
_cell_length_b 23.59900
_cell_length_c 18.21740
_cell_angle_alpha 90.00000
_cell_angle_beta  105.44600
_cell_angle_gamma 90.00000
_space_group_name_H-M_alt      'P 1'


loop_
_space_group_symop_operation_xyz
  'x, y, z' 

loop_
_atom_site_label
_atom_site_fract_x
_atom_site_fract_y
_atom_site_fract_z
_atom_site_type_symbol
In         0.0      0.0      0.0    In
In         0.0      0.5      0.5    In
H       0.0001   0.0639   0.2728     H
H       0.0001   0.4361   0.7728     H
O       0.0099   0.5452   0.4007     O
O       0.0099   0.9548   0.9007     O
C       0.0185   0.0366   0.1688     C
C       0.0185   0.4634   0.6688     C
C       0.0252   0.5661   0.2794     C
C       0.0252   0.9339   0.7794     C
H       0.0756   0.7386   0.3147     H
H       0.0756   0.7614   0.8147     H
O       0.0834  0.00525   0.1998     O
O       0.0834  0.49475   0.6998     O
H       0.0857   0.5969   0.5509     H
H       0.0857   0.9031   0.0509     H
O       0.0904  0.55866  0.56365     O
O       0.0904  0.94134  0.06365     O
C       0.0987   0.5955   0.3049     C
C       0.0987   0.9045   0.8049     C
H       0.1002   0.5257   0.1768     H
H       0.1002   0.9743   0.6768     H
H       0.1041   0.6826   0.3611     H
H       0.1041   0.8174   0.8611     H
O       0.1073  0.05422    0.985     O
O       0.1073  0.44578    0.485     O
C       0.1232   0.7122   0.3329     C
C       0.1232   0.7878   0.8329     C
H       0.1256   0.5957    0.357     H
H       0.1256   0.9043    0.857     H
C       0.1403   0.6281   0.2544     C
C       0.1403   0.8719   0.7544     C
C       0.1497   0.6869   0.2661     C
C       0.1497   0.8131   0.7661     C
H       0.1557   0.6975   0.6803     H
H       0.1557   0.8025   0.1803     H
C       0.1599   0.5384    0.183     C
C       0.1599   0.9616    0.683     C
C        0.164    0.602   0.1937     C
C        0.164    0.898   0.6937     C
H       0.1729   0.7316   0.3655     H
H       0.1729   0.7684   0.8655     H
H       0.1786   0.5287   0.1385     H
H       0.1786   0.9713   0.6385     H
C       0.1792   0.0655   0.0317     C
C       0.1792   0.4345   0.5317     C
O       0.1799   0.6013    0.727     O
O       0.1799   0.8987    0.227     O
C       0.1804   0.7197   0.2148     C
C       0.1804   0.7803   0.7148     C
H       0.1862   0.5873   0.0455     H
H       0.1862   0.9127   0.5455     H
C        0.187   0.7184   0.7221     C
C        0.187   0.7816   0.2221     C
In     0.19078  0.53038  0.65546    In
In     0.19078  0.96962  0.15546    In
H       0.1949   0.7258   0.0464     H
H       0.1949   0.7742   0.5464     H
C       0.1978   0.6356   0.1443     C
C       0.1978   0.8644   0.6443     C
H       0.1981   0.5205   0.2268     H
H       0.1981   0.9795   0.7268     H
C       0.2018   0.6944   0.1521     C
C       0.2018   0.8056   0.6521     C
O       0.2051  0.04701   0.0973     O
O       0.2051  0.45299   0.5973     O
H       0.2163   0.1252   0.9597     H
H       0.2163   0.3748   0.4597     H
O       0.2207   0.6129   0.5177     O
O       0.2207   0.8871   0.0177     O
C       0.2282   0.6055   0.0842     C
C       0.2282   0.8945   0.5842     C
H       0.2311   0.7297   0.6111     H
H       0.2311   0.7703   0.1111     H
C       0.2315   0.6268   0.7817     C
C       0.2315   0.8732   0.2817     C
C       0.2318   0.6893   0.7807     C
C       0.2318   0.8107   0.2807     C
C       0.2329   0.7313   0.0968     C
C       0.2329   0.7687   0.5968     C
H       0.2371   0.2273   0.0189     H
H       0.2371   0.2727   0.5189     H
C       0.2373   0.1071   0.0063     C
C       0.2373   0.3929   0.5063     C
H       0.2651   0.7086   0.8233     H
H       0.2651   0.7914   0.3233     H
O       0.2744  0.00819  0.25143     O
O       0.2744  0.49181  0.75143     O
O       0.2814  0.60347   0.8391     O
O       0.2814  0.89653   0.3391     O
O       0.2865  0.54365   0.9761     O
O       0.2865  0.95635   0.4761     O
C       0.2897   0.6006   0.5654     C
C       0.2897   0.8994   0.0654     C
In     0.29002  0.51379  0.86563    In
In     0.29002  0.98621  0.36563    In
C       0.2907   0.2407   0.0534     C
C       0.2907   0.2593   0.5534     C
H       0.2924   0.2186   0.5514     H
H       0.2924   0.2814   0.0514     H
H       0.2924   0.7211   0.0975     H
H       0.2924   0.7789   0.5975     H
H       0.2927   0.2289   0.1042     H
H       0.2927   0.2711   0.6042     H
O       0.2955   0.5709   0.6228     O
O       0.2955   0.9291   0.1228     O
O       0.2969  0.07435   0.4023     O
O       0.2969  0.42565   0.9023     O
H       0.3078   0.1784   0.4361     H
H       0.3078   0.3216   0.9361     H
H       0.3083   0.0384   0.2424     H
H       0.3083   0.4616   0.7424     H
C       0.3117   0.6032   0.0829     C
C       0.3117   0.8968   0.5829     C
C       0.3167   0.1186   0.0479     C
C       0.3167   0.3814   0.5479     C
H       0.3347      0.1   0.0945     H
H       0.3347      0.4   0.5945     H
H       0.3394   0.6604   0.4656     H
H       0.3394   0.8396   0.9656     H
C       0.3429   0.5679   0.0286     C
C       0.3429   0.9321   0.5286     C
H       0.3529   0.6249   0.1179     H
H       0.3529   0.8751   0.6179     H
C       0.3532   0.0946   0.4587     C
C       0.3532   0.4054   0.9587     C
C       0.3551   0.1577   0.4656     C
C       0.3551   0.3423   0.9656     C
H       0.3637   0.7348   0.9726     H
H       0.3637   0.7652   0.4726     H
C       0.3695   0.2166   0.0308     C
C       0.3695   0.2834   0.5308     C
C       0.3785   0.6214   0.5577     C
C       0.3785   0.8786   0.0577     C
C       0.3819   0.1582   0.0293     C
C       0.3819   0.3418   0.5293     C
C       0.3898   0.6511   0.5038     C
C       0.3898   0.8489   0.0038     C
O       0.4081  0.06698   0.5083     O
O       0.4081  0.43302   0.0083     O
H       0.4131   0.7357   0.0596     H
H       0.4131   0.7643   0.5596     H
H       0.4193    0.057   0.9706     H
H       0.4193    0.443   0.4706     H
C       0.4195   0.7288   0.0094     C
C       0.4195   0.7712   0.5094     C
C       0.4202   0.1848   0.5114     C
C       0.4202   0.3152   0.0114     C
O       0.4259  0.56429   0.0401     O
O       0.4259  0.93571   0.5401     O
H       0.4285   0.6113   0.5959     H
H       0.4285   0.8887   0.0959     H
O       0.4287  0.51523   0.8881     O
O       0.4287  0.98477   0.3881     O
C       0.4332   0.2471   0.5159     C
C       0.4332   0.2529   0.0159     C
H       0.4384   0.6904   0.0061     H
H       0.4384   0.8096   0.5061     H
H       0.4567   0.5223   0.8499     H
H       0.4567   0.9777   0.3499     H
C       0.4579    0.136   0.0149     C
C       0.4579    0.364   0.5149     C
H        0.463    0.163   0.5445     H
H        0.463    0.337   0.0445     H
H       0.4649   0.0551   0.0583     H
H       0.4649   0.4449   0.5583     H
C        0.467   0.0717   0.0107     C
C        0.467   0.4283   0.5107     C
C       0.4758   0.6729   0.4948     C
C       0.4758   0.8271   0.9948     C
H       0.4776   0.5626   0.4995     H
H       0.4776   0.9374   0.9995     H
C       0.4876   0.7311   0.4935     C
C       0.4876   0.7689   0.9935     C
In         0.5      0.0      0.5    In
In         0.5      0.5      0.0    In
C       0.5124   0.2311   0.0065     C
C       0.5124   0.2689   0.5065     C
H       0.5224   0.0626   0.0005     H
H       0.5224   0.4374   0.5005     H
C       0.5242   0.1729   0.0052     C
C       0.5242   0.3271   0.5052     C
C        0.533   0.5717   0.4893     C
C        0.533   0.9283   0.9893     C
H       0.5351   0.5551   0.4417     H
H       0.5351   0.9449   0.9417     H
H        0.537    0.663   0.9555     H
H        0.537    0.837   0.4555     H
C       0.5421    0.636   0.4851     C
C       0.5421    0.864   0.9851     C
H       0.5433   0.0223   0.6501     H
H       0.5433   0.4777   0.1501     H
H       0.5616   0.1904   0.4939     H
H       0.5616   0.3096   0.9939     H
C       0.5668   0.7471   0.9841     C
C       0.5668   0.7529   0.4841     C
O       0.5713  0.01523   0.6119     O
O       0.5713  0.48477   0.1119     O
H       0.5715   0.1113   0.9041     H
H       0.5715   0.3887   0.4041     H
O       0.5741  0.06429   0.4599     O
O       0.5741  0.43571   0.9599     O
C       0.5798   0.6848   0.9886     C
C       0.5798   0.8152   0.4886     C
C       0.5805   0.2288   0.4906     C
C       0.5805   0.2712   0.9906     C
H       0.5807    0.557   0.5294     H
H       0.5807    0.943   0.0294     H
H       0.5869   0.2357   0.4404     H
H       0.5869   0.2643   0.9404     H
O       0.5919  0.56698   0.9917     O
O       0.5919  0.93302   0.4917     O
C       0.6102   0.1511   0.9962     C
C       0.6102   0.3489   0.4962     C
C       0.6181   0.6582   0.4707     C
C       0.6181   0.8418   0.9707     C
C       0.6215   0.1214   0.9423     C
C       0.6215   0.3786   0.4423     C
C       0.6305   0.7166   0.4692     C
C       0.6305   0.7834   0.9692     C
H       0.6363   0.2348   0.5274     H
H       0.6363   0.2652   0.0274     H
C       0.6449   0.6577   0.0344     C
C       0.6449   0.8423   0.5344     C
C       0.6468   0.5946   0.0413     C
C       0.6468   0.9054   0.5413     C
H       0.6471   0.1249   0.3821     H
H       0.6471   0.3751   0.8821     H
C       0.6571   0.0679   0.4714     C
C       0.6571   0.4321   0.9714     C
H       0.6606   0.1604   0.0344     H
H       0.6606   0.3396   0.5344     H
H       0.6653      0.6   0.4055     H
H       0.6653      0.9   0.9055     H
C       0.6833   0.6186   0.4521     C
C       0.6833   0.8814   0.9521     C
C       0.6883   0.1032   0.4171     C
C       0.6883   0.3968   0.9171     C
H       0.6917   0.5384   0.2576     H
H       0.6917   0.9616   0.7576     H
H       0.6922   0.6784   0.0639     H
H       0.6922   0.8216   0.5639     H
O       0.7031  0.57435   0.0977     O
O       0.7031  0.92565   0.5977     O
O       0.7045   0.0709   0.8772     O
O       0.7045   0.4291   0.3772     O
H       0.7073   0.7289   0.3958     H
H       0.7073   0.7711   0.8958     H
H       0.7076   0.2211   0.4025     H
H       0.7076   0.2789   0.9025     H
H       0.7076   0.7186   0.9486     H
H       0.7076   0.7814   0.4486     H
C       0.7093   0.7407   0.4466     C
C       0.7093   0.7593   0.9466     C
In     0.70998  0.01379  0.63437    In
In     0.70998  0.48621  0.13437    In
C       0.7103   0.1006   0.9346     C
C       0.7103   0.3994   0.4346     C
O       0.7135  0.04365   0.5239     O
O       0.7135  0.45635   0.0239     O
O       0.7186  0.10347   0.6609     O
O       0.7186  0.39653   0.1609     O
O       0.7256  0.50819  0.24857     O
O       0.7256  0.99181  0.74857     O
H       0.7349   0.2086   0.6767     H
H       0.7349   0.2914   0.1767     H
C       0.7627   0.6071   0.4937     C
C       0.7627   0.8929   0.9937     C
H       0.7629   0.7273   0.4811     H
H       0.7629   0.7727   0.9811     H
C       0.7671   0.2313   0.4032     C
C       0.7671   0.2687   0.9032     C
C       0.7682   0.1893   0.7193     C
C       0.7682   0.3107   0.2193     C
C       0.7685   0.1268   0.7183     C
C       0.7685   0.3732   0.2183     C
H       0.7689   0.2297   0.8889     H
H       0.7689   0.2703   0.3889     H
C       0.7718   0.1055   0.4158     C
C       0.7718   0.3945   0.9158     C
O       0.7793   0.1129   0.9823     O
O       0.7793   0.3871   0.4823     O
H       0.7837   0.6252   0.5403     H
H       0.7837   0.8748   0.0403     H
O       0.7949  0.54701   0.4027     O
O       0.7949  0.95299   0.9027     O
C       0.7982   0.1944   0.3479     C
C       0.7982   0.3056   0.8479     C
H       0.8019   0.0205   0.2732     H
H       0.8019   0.4795   0.7732     H
C       0.8022   0.1356   0.3557     C
C       0.8022   0.3644   0.8557     C
H       0.8051   0.2258   0.4536     H
H       0.8051   0.2742   0.9536     H
In     0.80922  0.03038  0.84454    In
In     0.80922  0.46962  0.34454    In
C        0.813   0.2184   0.7779     C
C        0.813   0.2816   0.2779     C
H       0.8138   0.0873   0.4545     H
H       0.8138   0.4127   0.9545     H
C       0.8196   0.2197   0.2852     C
C       0.8196   0.2803   0.7852     C
O       0.8201   0.1013    0.773     O
O       0.8201   0.3987    0.273     O
C       0.8208   0.5655   0.4683     C
C       0.8208   0.9345   0.9683     C
H       0.8214   0.0287   0.3615     H
H       0.8214   0.4713   0.8615     H
H       0.8271   0.2316   0.1345     H
H       0.8271   0.2684   0.6345     H
C        0.836    0.102   0.3063     C
C        0.836    0.398   0.8063     C
C       0.8401   0.0384    0.317     C
C       0.8401   0.4616    0.817     C
H       0.8443   0.1975   0.8197     H
H       0.8443   0.3025   0.3197     H
C       0.8503   0.1869   0.2339     C
C       0.8503   0.3131   0.7339     C
C       0.8597   0.1281   0.2456     C
C       0.8597   0.3719   0.7456     C
H       0.8744   0.0957    0.143     H
H       0.8744   0.4043    0.643     H
C       0.8768   0.2122   0.1671     C
C       0.8768   0.2878   0.6671     C
O       0.8927  0.55422    0.515     O
O       0.8927  0.94578    0.015     O
H       0.8959   0.1826   0.1389     H
H       0.8959   0.3174   0.6389     H
H       0.8998   0.0257   0.3232     H
H       0.8998   0.4743   0.8232     H
C       0.9013   0.0955   0.1951     C
C       0.9013   0.4045   0.6951     C
O       0.9096  0.05866  0.93635     O
O       0.9096  0.44134  0.43635     O
H       0.9143   0.0969   0.9491     H
H       0.9143   0.4031   0.4491     H
O       0.9166  0.50525   0.3002     O
O       0.9166  0.99475   0.8002     O
H       0.9244   0.2386   0.1853     H
H       0.9244   0.2614   0.6853     H
C       0.9748   0.0661   0.2206     C
C       0.9748   0.4339   0.7206     C
C       0.9815   0.5366   0.3312     C
C       0.9815   0.9634   0.8312     C
O       0.9901   0.0452   0.0993     O
O       0.9901   0.4548   0.5993     O
H       0.9999   0.5639   0.2272     H
H       0.9999   0.9361   0.7272     H
