data_I
_chemical_name_common  '/home/zhangsd/repos/MofS-CGCNN/ML/data/TSD/clean_cifs/VAYFUY_clean'
_cell_length_a  7.83000
_cell_length_b 10.91200
_cell_length_c 12.49800
_cell_angle_alpha 106.54400
_cell_angle_beta  96.59600
_cell_angle_gamma 99.56200
_space_group_name_H-M_alt      'P 1'


loop_
_space_group_symop_operation_xyz
  'x, y, z' 

loop_
_atom_site_label
_atom_site_fract_x
_atom_site_fract_y
_atom_site_fract_z
_atom_site_type_symbol
C       0.0039   0.2312   0.0576     C
C       0.0085   0.8609   0.0475     C
O       0.0095   0.4375   0.2658     O
C        0.013   0.1273   0.3337     C
H       0.0166   0.8172   0.2687     H
C       0.0189   0.1052   0.6992     C
C       0.0557   0.0088   0.2821     C
O       0.0613   0.6364   0.5393     O
H       0.0684   0.2035    0.322     H
H       0.0929   0.1176    0.927     H
C        0.114   0.8694   0.5968     C
H       0.1141   0.2703   0.1017     H
C       0.1352   0.6343   0.7894     C
Co     0.13785   0.4815  0.59827    Co
C       0.1451    0.734   0.9018     C
C       0.1491   0.1021   0.6313     C
C       0.1631   0.7429   0.5399     C
O       0.1656   0.3257    0.651     O
C       0.1714   0.9209   0.1145     C
O       0.1926   0.0122   0.2182     O
C       0.1977   0.9853   0.5817     C
C        0.228    0.227   0.6089     C
H        0.259   0.4258   0.4242     H
O       0.2774   0.6226   0.7509     O
H       0.2863    0.984   0.5381     H
O       0.2979   0.7471   0.4972     O
C        0.307   0.7945   0.9674     C
C       0.3219   0.8875   0.0719     C
O       0.3247    0.473   0.5006     O
O       0.3469    0.221   0.5499     O
O        0.385   0.1115   0.8887     O
H       0.4079   0.7728   0.9412     H
O       0.4684   0.9464   0.7972     O
Co     0.48404  0.63443  0.47966    Co
N       0.4999   0.0539   0.8652     N
N       0.5001   0.9461   0.1348     N
Co     0.51596  0.36557  0.52034    Co
O       0.5316   0.0536   0.2028     O
H       0.5921   0.2272   0.0588     H
O        0.615   0.8885   0.1113     O
O       0.6531    0.779   0.4501     O
O       0.6753    0.527   0.4994     O
C       0.6781   0.1125   0.9281     C
C        0.693   0.2055   0.0326     C
O       0.7021   0.2529   0.5028     O
H       0.7137    0.016   0.4619     H
O       0.7226   0.3774   0.2491     O
H        0.741   0.5742   0.5758     H
C        0.772    0.773   0.3911     C
C       0.8023   0.0147   0.4183     C
O       0.8074   0.9878   0.7818     O
C       0.8286   0.0791   0.8855     C
O       0.8344   0.6743    0.349     O
C       0.8369   0.2571   0.4601     C
C       0.8509   0.8979   0.3687     C
C       0.8549    0.266   0.0982     C
Co     0.86215   0.5185  0.40173    Co
C       0.8648   0.3657   0.2106     C
H       0.8859   0.7297   0.8983     H
C        0.886   0.1306   0.4032     C
H       0.9071   0.8824    0.073     H
H       0.9316   0.7965    0.678     H
O       0.9387   0.3636   0.4607     O
C       0.9443   0.9912   0.7179     C
C       0.9811   0.8948   0.3008     C
H       0.9834   0.1828   0.7313     H
C        0.987   0.8727   0.6663     C
O       0.9905   0.5625   0.7342     O
C       0.9915   0.1391   0.9525     C
C       0.9961   0.7688   0.9424     C
