data_I
_chemical_name_common  '/home/zhangsd/repos/MofS-CGCNN/ML/data/TSD/clean_cifs/VAZMAM_clean'
_cell_length_a  9.91340
_cell_length_b  9.91340
_cell_length_c 13.40460
_cell_angle_alpha 85.39160
_cell_angle_beta  70.12580
_cell_angle_gamma 115.57500
_space_group_name_H-M_alt      'P 1'


loop_
_space_group_symop_operation_xyz
  'x, y, z' 

loop_
_atom_site_label
_atom_site_fract_x
_atom_site_fract_y
_atom_site_fract_z
_atom_site_type_symbol
O       0.0103   0.3342   0.0381     O
H       0.0117   0.9469   0.8532     H
O       0.0274   0.6254   0.6354     O
Tb     0.04118  0.26788  0.49748    Tb
C       0.0654   0.4094   0.2656     C
O       0.0754   0.4977   0.1881     O
C       0.1009    0.998   0.8705     C
C        0.119   0.7693   0.9615     C
O       0.1277   0.9516   0.5381     O
O       0.1617   0.6804   0.4005     O
C       0.1654   0.9323   0.9171     C
C        0.175    0.331   0.2344     C
H         0.18   0.2376    0.821     H
O       0.1858   0.2635   0.3119     O
C       0.1953    0.161   0.8523     C
O        0.213   0.7464    0.996     O
C       0.2308   0.0805   0.5385     C
O       0.2392   0.3372   0.1354     O
O       0.2424    0.209    0.504     O
Tb     0.26536  0.53866  0.00252    Tb
O       0.2724     0.53   0.4112     O
C       0.2756   0.6576   0.4012     C
O       0.2988   0.0437   0.9285     O
H       0.3001   0.8649   0.6468     H
C       0.3119   0.1823   0.8898     C
C       0.3494   0.0825   0.5829     C
C       0.3685   0.9714   0.6295     C
O       0.4191   0.4378   0.9005     O
C       0.4279   0.7983   0.3898     C
C       0.4412   0.3232   0.9012     C
O       0.4412   0.6836   0.0888     O
H       0.4414    0.999    0.321     H
O       0.4722   0.2273   0.5715     O
C       0.4867   0.9524   0.3523     C
C       0.5133   0.0476   0.6477     C
O       0.5278   0.7727   0.4285     O
H       0.5586    0.001    0.679     H
O       0.5588   0.3164   0.9112     O
C       0.5588   0.6768   0.0988     C
C       0.5721   0.2017   0.6102     C
O       0.5809   0.5622   0.0995     O
C       0.6315   0.0286   0.3705     C
C       0.6506   0.9175   0.4171     C
C       0.6881   0.8177   0.1102     C
H       0.6999   0.1351   0.3532     H
O       0.7012   0.9563   0.0715     O
C       0.7244   0.3424   0.5988     C
O       0.7276     0.47   0.5888     O
Tb     0.73464  0.46134  0.99748    Tb
O       0.7576    0.791    0.496     O
O       0.7608   0.6628   0.8646     O
C       0.7692   0.9195   0.4615     C
O        0.787   0.2536    0.004     O
C       0.8047    0.839   0.1477     C
O       0.8142   0.7365   0.6881     O
H         0.82   0.7624    0.179     H
C        0.825    0.669   0.7656     C
C       0.8346   0.0677   0.0829     C
O       0.8383   0.3196   0.5995     O
O       0.8723   0.0484   0.4619     O
C        0.881   0.2307   0.0385     C
C       0.8991    0.002   0.1295     C
O       0.9246   0.5023   0.8119     O
C       0.9346   0.5906   0.7344     C
Tb     0.95882  0.73212  0.50252    Tb
O       0.9726   0.3746   0.3646     O
H       0.9883   0.0531   0.1468     H
O       0.9897   0.6658   0.9619     O
