data_I
_chemical_name_common  '/home/zhangsd/repos/MofS-CGCNN/ML/data/TSD/clean_cifs/VECWUX_clean'
_cell_length_a 11.33730
_cell_length_b 11.33730
_cell_length_c 30.74600
_cell_angle_alpha 90.00000
_cell_angle_beta  90.00000
_cell_angle_gamma 118.54300
_space_group_name_H-M_alt      'P 1'


loop_
_space_group_symop_operation_xyz
  'x, y, z' 

loop_
_atom_site_label
_atom_site_fract_x
_atom_site_fract_y
_atom_site_fract_z
_atom_site_type_symbol
H       0.0085   0.2397   0.8955     H
H        0.013    0.443   0.8965     H
H       0.0147   0.3453   0.0362     H
C       0.0247   0.2807   0.0521     C
N        0.031   0.6678   0.1458     N
H       0.0319   0.0655   0.8843     H
O       0.0324   0.1162   0.3705     O
C       0.0325   0.7871   0.4429     C
H       0.0357   0.8687   0.8864     H
O       0.0443   0.2657   0.2031     O
N       0.0458   0.6842  0.42676     N
C       0.0534    0.673  0.83878     C
C       0.0581   0.0961   0.0988     C
H       0.0655   0.0319   0.1157     H
C       0.0761   0.6921  0.79019     C
C       0.0817   0.3135   0.9077     C
C       0.0844    0.436   0.9088     C
C       0.0961   0.0581   0.9012     C
O       0.0986   0.4844   0.6778     O
C       0.0992     0.94   0.9027     C
H       0.1064    0.713   0.0672     H
H       0.1079   0.8589   0.4549     H
O       0.1162   0.0324   0.6295     O
O        0.117   0.4348  0.35221     O
H         0.12    0.382   0.2733     H
C       0.1226   0.7236  0.69947     C
N       0.1299   0.3745   0.1897     N
N       0.1408   0.9596   0.6522     N
C       0.1468    0.743   0.6512     C
C       0.1484   0.2838   0.0521     C
O       0.1503   0.9681  0.69104     O
C       0.1529   0.6697   0.1262     C
C       0.1549   0.4689  0.26249     C
O       0.1589   0.7183  0.86188     O
C       0.1607   0.8541  0.62954     C
N       0.1678    0.531   0.6458     N
C       0.1682   0.1882   0.0751     C
C       0.1697   0.6529   0.6262     C
C       0.1711   0.4937  0.21738     C
C       0.1715   0.7029  0.08263     C
C        0.173   0.5534  0.33878     C
N       0.1842   0.5458  0.92676     N
Ni     0.18661  0.73365  0.92705    Ni
C       0.1873   0.2997  0.92456     C
C       0.1882   0.1682   0.9249     C
N       0.1882    0.919  0.92606     N
C       0.1921   0.5761  0.29019     C
C       0.1961   0.8777  0.58526     C
O       0.1973   0.3855   0.1572     O
H       0.2026   0.9538   0.5717     H
C       0.2029   0.6715  0.58263     C
C       0.2056   0.7452  0.77403     C
O       0.2124    0.741  0.99308     O
H        0.213   0.6064   0.5672     H
O       0.2183   0.6589  0.36188     O
H       0.2194   0.3506   0.0367     H
C       0.2211   0.7873  0.56192     C
C       0.2236   0.6226  0.19947     C
C       0.2257   0.7587   0.7298     C
Ni     0.23365  0.68661  0.42705    Ni
O       0.2368   0.4854   0.6297     O
H       0.2397   0.0085   0.1045     H
O        0.241   0.7124  0.49308     O
C        0.243   0.6468   0.1512     C
C       0.2452   0.7056  0.27403     C
C       0.2587   0.7257   0.2298     C
O       0.2657   0.0443   0.7969     O
C       0.2672   0.8142  0.51554     C
H       0.2714    0.778   0.2929     H
H        0.278   0.7714   0.7929     H
C       0.2807   0.0247   0.9479     C
O       0.2837   0.8929    0.181     O
C       0.2838   0.1484   0.9479     C
C       0.2871   0.5325   0.9429     C
C       0.2873   0.7211  0.06192     C
C       0.2931   0.4139   0.9428     C
C       0.2997   0.1873  0.07544     C
N       0.3093   0.8669   0.2157     N
C       0.3135   0.0817   0.0923     C
C       0.3142   0.7672  0.01554     C
O       0.3274   0.9336  0.50307     O
H       0.3453   0.0147   0.9638     H
H       0.3506   0.2194   0.9633     H
C       0.3541   0.6607  0.12954     C
H       0.3589   0.6079   0.9549     H
H       0.3666   0.4102   0.9547     H
N       0.3669   0.8093   0.7157     N
H       0.3687   0.5357   0.3864     H
N       0.3745   0.1299   0.8103     N
C       0.3777   0.6961  0.08526     C
O       0.3793   0.9549   0.2402     O
H        0.382     0.12   0.7267     H
O       0.3855   0.1973   0.8428     O
O       0.3929   0.7837    0.681     O
H       0.4102   0.3666   0.0453     H
C       0.4139   0.2931   0.0572     C
N        0.419   0.6882  0.42606     N
O       0.4336   0.8274  0.00307     O
O       0.4348    0.117  0.64779     O
C        0.436   0.0844   0.0912     C
C         0.44   0.5992   0.4027     C
H        0.443    0.013   0.1035     H
H       0.4538   0.7026   0.0717     H
O       0.4549   0.8793   0.7402     O
N       0.4596   0.6408   0.1522     N
O       0.4681   0.6503  0.19104     O
C       0.4689   0.1549  0.73751     C
O       0.4844   0.0986   0.3222     O
O       0.4854   0.2368   0.3703     O
C       0.4937   0.1711  0.78262     C
H       0.5085   0.7397   0.6045     H
H        0.513    0.943   0.6035     H
H       0.5147   0.8453   0.4638     H
C       0.5247   0.7807   0.4479     C
N        0.531   0.1678   0.3542     N
H       0.5319   0.5655   0.6157     H
O       0.5324   0.6162   0.1295     O
C       0.5325   0.2871   0.0571     C
H       0.5357   0.3687   0.6136     H
O       0.5443   0.7657   0.2969     O
N       0.5458   0.1842  0.07324     N
C       0.5534    0.173  0.66122     C
C       0.5581   0.5961   0.4012     C
H       0.5655   0.5319   0.3843     H
C       0.5761   0.1921  0.70981     C
C       0.5817   0.8135   0.5923     C
C       0.5844    0.936   0.5912     C
C       0.5961   0.5581   0.5988     C
O       0.5986   0.9844   0.8222     O
C       0.5992     0.44   0.5973     C
H       0.6064    0.213   0.4328     H
H       0.6079   0.3589   0.0451     H
O       0.6162   0.5324   0.8705     O
O        0.617   0.9348  0.14779     O
H         0.62    0.882   0.2267     H
C       0.6226   0.2236  0.80053     C
N       0.6299   0.8745   0.3103     N
N       0.6408   0.4596   0.8478     N
C       0.6468    0.243   0.8488     C
C       0.6484   0.7838   0.4479     C
O       0.6503   0.4681  0.80896     O
C       0.6529   0.1697   0.3738     C
C       0.6549   0.9689  0.23751     C
O       0.6589   0.2183  0.63812     O
C       0.6607   0.3541  0.87046     C
N       0.6678    0.031   0.8542     N
C       0.6682   0.6882   0.4249     C
C       0.6697   0.1529   0.8738     C
C       0.6711   0.9937  0.28262     C
C       0.6715   0.2029  0.41737     C
C        0.673   0.0534  0.16122     C
N       0.6842   0.0458  0.57324     N
Ni     0.68661  0.23365  0.57295    Ni
C       0.6873   0.7997  0.57544     C
N       0.6882    0.419  0.57394     N
C       0.6882   0.6682   0.5751     C
C       0.6921   0.0761  0.20981     C
C       0.6961   0.3777  0.91474     C
O       0.6973   0.8855   0.3428     O
H       0.7026   0.4538   0.9283     H
C       0.7029   0.1715  0.91737     C
C       0.7056   0.2452  0.72597     C
O       0.7124    0.241  0.50692     O
H        0.713   0.1064   0.9328     H
O       0.7183   0.1589  0.13812     O
H       0.7194   0.8506   0.4633     H
C       0.7211   0.2873  0.93808     C
C       0.7236   0.1226  0.30053     C
C       0.7257   0.2587   0.7702     C
Ni     0.73365  0.18661  0.07295    Ni
O       0.7368   0.9854   0.8703     O
H       0.7397   0.5085   0.3955     H
O        0.741   0.2124  0.00692     O
C        0.743   0.1468   0.3488     C
C       0.7452   0.2056  0.22597     C
C       0.7587   0.2257   0.2702     C
O       0.7657   0.5443   0.7031     O
C       0.7672   0.3142  0.98446     C
H       0.7714    0.278   0.2071     H
H        0.778   0.2714   0.7071     H
C       0.7807   0.5247   0.5521     C
O       0.7837   0.3929    0.319     O
C       0.7838   0.6484   0.5521     C
C       0.7871   0.0325   0.5571     C
C       0.7873   0.2211  0.43808     C
C       0.7931   0.9139   0.5572     C
C       0.7997   0.6873  0.42456     C
N       0.8093   0.3669   0.2843     N
C       0.8135   0.5817   0.4077     C
C       0.8142   0.2672  0.48446     C
O       0.8274   0.4336  0.99693     O
H       0.8453   0.5147   0.5362     H
H       0.8506   0.7194   0.5367     H
C       0.8541   0.1607  0.37046     C
H       0.8589   0.1079   0.5451     H
H       0.8666   0.9102   0.5453     H
N       0.8669   0.3093   0.7843     N
H       0.8687   0.0357   0.1136     H
N       0.8745   0.6299   0.6897     N
C       0.8777   0.1961  0.41474     C
O       0.8793   0.4549   0.2598     O
H        0.882     0.62   0.7733     H
O       0.8855   0.6973   0.6572     O
O       0.8929   0.2837    0.819     O
H       0.9102   0.8666   0.4547     H
C       0.9139   0.7931   0.4428     C
N        0.919   0.1882  0.07394     N
O       0.9336   0.3274  0.49693     O
O       0.9348    0.617  0.85221     O
C        0.936   0.5844   0.4088     C
C         0.94   0.0992   0.0973     C
H        0.943    0.513   0.3965     H
H       0.9538   0.2026   0.4283     H
O       0.9549   0.3793   0.7598     O
N       0.9596   0.1408   0.3478     N
O       0.9681   0.1503  0.30896     O
C       0.9689   0.6549  0.76249     C
O       0.9844   0.5986   0.1778     O
O       0.9854   0.7368   0.1297     O
C       0.9937   0.6711  0.71738     C
