data_I
_chemical_name_common  '/home/zhangsd/repos/MofS-CGCNN/ML/data/TSD/clean_cifs/VEDGES_clean'
_cell_length_a 11.47770
_cell_length_b 13.31640
_cell_length_c 26.03070
_cell_angle_alpha 90.00000
_cell_angle_beta  90.00000
_cell_angle_gamma 90.00000
_space_group_name_H-M_alt      'P 1'


loop_
_space_group_symop_operation_xyz
  'x, y, z' 

loop_
_atom_site_label
_atom_site_fract_x
_atom_site_fract_y
_atom_site_fract_z
_atom_site_type_symbol
H       0.0013   0.3863   0.8564     H
C       0.0055   0.7658   0.1967     C
H       0.0093   0.6388   0.0027     H
H       0.0106   0.6854   0.8304     H
O       0.0137   0.2797   0.4394     O
O       0.0145   0.5661  0.47122     O
C       0.0152   0.1995    0.263     C
C        0.021   0.6372   0.3263     C
H       0.0263   0.2516   0.3362     H
C       0.0302   0.5355   0.8447     C
C       0.0305   0.1244    0.664     C
C       0.0355   0.7142   0.2835     C
C        0.036   0.9489   0.6494     C
O       0.0502   0.0683  0.18345     O
H       0.0652   0.1435    0.268     H
N       0.0696   0.8495  0.20323     N
H       0.0771   0.1425   0.9434     H
O       0.0785    0.428  0.38541     O
O       0.0789   0.6509  0.36616     O
H       0.0811   0.3706   0.4096     H
C       0.0863   0.0891   0.0442     C
C       0.0914   0.6314    0.005     C
C       0.0927   0.7733   0.0667     C
H       0.0938   0.4049   0.5108     H
H       0.1014    0.515   0.9551     H
Co     0.10222  0.95003  0.13961    Co
C       0.1028   0.7995   0.2903     C
C        0.117   0.8653   0.2495     C
H       0.1264     0.41   0.3551     H
C       0.1299   0.1845   0.9615     C
H       0.1387   0.8127   0.3225     H
O       0.1401   0.0533  0.08094     O
C        0.147   0.5578   0.9763     C
C       0.1476   0.1711   0.0136     C
C        0.151   0.1235   0.6645     C
C       0.1541   0.6935   0.0366     C
Co      0.1542  0.55574  0.42184    Co
O       0.1549   0.8293  0.09454     O
C        0.156   0.9538   0.6522     C
C       0.1616   0.5336   0.8521     C
H       0.1624   0.9242   0.2546     H
H       0.1749   0.6432   0.5287     H
C       0.1758   0.3956    0.509     C
H       0.1778   0.2658   0.9002     H
H       0.1795   0.2807   0.5613     H
C       0.1892   0.2588   0.9362     C
H       0.1908   0.1854   0.6692     H
H       0.1992   0.8932   0.6494     H
O        0.202   0.4571   0.8732     O
N       0.2144   0.0399   0.6586     N
O       0.2181   0.6096   0.8384     O
C       0.2209   0.2373   0.0384     C
C       0.2243   0.6888   0.5109     C
C       0.2261   0.3209   0.5393     C
H       0.2334   0.2316   0.0744     H
N       0.2369   0.4549  0.47736     N
N       0.2377   0.6781  0.45972     N
N       0.2623   0.3219  0.95972     N
N       0.2631   0.5451  0.97736     N
H       0.2666   0.7684   0.5744     H
C       0.2739   0.6791   0.0393     C
C       0.2757   0.3112   0.0109     C
C       0.2791   0.7627   0.5384     C
O       0.2819   0.3904   0.3384     O
N       0.2856   0.9601   0.1586     N
O        0.298   0.5429   0.3732     O
H       0.3008   0.1068   0.1494     H
H       0.3092   0.8146   0.1692     H
C       0.3108   0.7412   0.4362     C
H       0.3205   0.7193   0.0613     H
H       0.3222   0.7342   0.4002     H
C       0.3242   0.6044    0.009     C
H       0.3251   0.3568   0.0287     H
H       0.3376   0.0758   0.7546     H
C       0.3384   0.4664   0.3521     C
C        0.344   0.0462   0.1522     C
O       0.3451   0.1707  0.59454     O
Co      0.3458  0.44426  0.92184    Co
C       0.3459   0.3065   0.5366     C
C        0.349   0.8765   0.1645     C
C       0.3524   0.8289   0.5136     C
C        0.353   0.4422   0.4763     C
O       0.3599   0.9467  0.58094     O
H       0.3613   0.1873   0.8225     H
C       0.3701   0.8155   0.4615     C
H       0.3736     0.59   0.8551     H
C        0.383   0.1347   0.7495     C
C       0.3972   0.2005   0.7903     C
Co     0.39778  0.04997  0.63961    Co
H       0.3986    0.485   0.4551     H
H       0.4062   0.5951   0.0108     H
C       0.4073   0.2267   0.5667     C
C       0.4086   0.3686    0.505     C
C       0.4137   0.9109   0.5442     C
H       0.4189   0.6294   0.9096     H
O       0.4211   0.3491  0.86616     O
O       0.4215    0.572  0.88541     O
H       0.4229   0.8575   0.4434     H
N       0.4304   0.1505  0.70323     N
H       0.4348   0.8565    0.768     H
O       0.4498   0.9317  0.68345     O
C        0.464   0.0511   0.1494     C
C       0.4645   0.2858   0.7835     C
C       0.4695   0.8756    0.164     C
C       0.4698   0.4645   0.3447     C
H       0.4737   0.7484   0.8362     H
C        0.479   0.3628   0.8263     C
C       0.4848   0.8005    0.763     C
O       0.4855   0.4339  0.97122     O
O       0.4863   0.7203   0.9394     O
H       0.4894   0.3146   0.3304     H
H       0.4907   0.3612   0.5027     H
C       0.4945   0.2342   0.6967     C
H       0.4987   0.6137   0.3564     H
H       0.5013   0.1137   0.1436     H
C       0.5055   0.7342   0.8033     C
H       0.5093   0.8612   0.9973     H
H       0.5106   0.8146   0.1696     H
O       0.5137   0.2203   0.5606     O
O       0.5145   0.9339  0.52878     O
C       0.5152   0.3005    0.737     C
C        0.521   0.8628   0.6737     C
H       0.5263   0.2484   0.6638     H
C       0.5302   0.9645   0.1553     C
C       0.5305   0.3756    0.336     C
C       0.5355   0.7858   0.7165     C
C        0.536   0.5511   0.3506     C
O       0.5502   0.4317  0.81655     O
H       0.5652   0.3565    0.732     H
N       0.5696   0.6505  0.79677     N
H       0.5771   0.3575   0.0566     H
O       0.5785    0.072  0.61459     O
O       0.5789   0.8491  0.63384     O
H       0.5811   0.1294   0.5904     H
C       0.5863   0.4109   0.9558     C
C       0.5914   0.8686    0.995     C
C       0.5927   0.7267   0.9333     C
H       0.5938   0.0951   0.4892     H
H       0.6014    0.985   0.0449     H
Co     0.60222  0.54997  0.86039    Co
C       0.6028   0.7005   0.7097     C
C        0.617   0.6347   0.7505     C
H       0.6264     0.09   0.6449     H
C       0.6299   0.3155   0.0385     C
H       0.6387   0.6873   0.6775     H
O       0.6401   0.4467  0.91906     O
C        0.647   0.9422   0.0237     C
C       0.6476   0.3289   0.9864     C
C        0.651   0.3765   0.3355     C
C       0.6541   0.8065   0.9634     C
Co      0.6542  0.94426  0.57816    Co
O       0.6549   0.6707  0.90546     O
C        0.656   0.5462   0.3478     C
C       0.6616   0.9664   0.1479     C
H       0.6624   0.5758   0.7454     H
H       0.6749   0.8568   0.4713     H
C       0.6758   0.1044    0.491     C
H       0.6778   0.2342   0.0998     H
H       0.6795   0.2193   0.4387     H
C       0.6892   0.2412   0.0638     C
H       0.6908   0.3146   0.3308     H
H       0.6992   0.6068   0.3506     H
O        0.702   0.0429   0.1268     O
N       0.7144   0.4601   0.3414     N
O       0.7181   0.8904   0.1616     O
C       0.7209   0.2627   0.9616     C
C       0.7243   0.8112   0.4891     C
C       0.7261   0.1791   0.4607     C
H       0.7334   0.2684   0.9256     H
N       0.7369   0.0451  0.52264     N
N       0.7377   0.8219  0.54028     N
N       0.7623   0.1781  0.04028     N
N       0.7631   0.9549  0.02264     N
H       0.7666   0.7316   0.4256     H
C       0.7739   0.8209   0.9607     C
C       0.7757   0.1888   0.9891     C
C       0.7791   0.7373   0.4616     C
O       0.7819   0.1096   0.6616     O
N       0.7856   0.5399   0.8414     N
O        0.798   0.9571   0.6268     O
H       0.8008   0.3932   0.8506     H
H       0.8092   0.6854   0.8308     H
C       0.8108   0.7588   0.5638     C
H       0.8205   0.7807   0.9387     H
H       0.8222   0.7658   0.5998     H
C       0.8242   0.8956    0.991     C
H       0.8251   0.1432   0.9713     H
H       0.8376   0.4242   0.2454     H
C       0.8384   0.0336   0.6479     C
C        0.844   0.4538   0.8478     C
O       0.8451   0.3293  0.40546     O
Co      0.8458  0.05574  0.07816    Co
C       0.8459   0.1935   0.4634     C
C        0.849   0.6235   0.8355     C
C       0.8524   0.6711   0.4864     C
C        0.853   0.0578   0.5237     C
O       0.8599   0.5533  0.41906     O
H       0.8613   0.3127   0.1775     H
C       0.8701   0.6845   0.5385     C
H       0.8736     0.91   0.1449     H
C        0.883   0.3653   0.2505     C
C       0.8972   0.2995   0.2097     C
Co     0.89778  0.45003  0.36039    Co
H       0.8986    0.015   0.5449     H
H       0.9062   0.9049   0.9892     H
C       0.9073   0.2733   0.4333     C
C       0.9086   0.1314    0.495     C
C       0.9137   0.5891   0.4558     C
H       0.9189   0.8706   0.0904     H
O       0.9211   0.1509  0.13384     O
O       0.9215    0.928  0.11459     O
H       0.9229   0.6425   0.5566     H
N       0.9304   0.3495  0.29677     N
H       0.9348   0.6435    0.232     H
O       0.9498   0.5683  0.31655     O
C        0.964   0.4489   0.8506     C
C       0.9645   0.2142   0.2165     C
C       0.9695   0.6244    0.836     C
C       0.9698   0.0355   0.6553     C
H       0.9737   0.7516   0.1638     H
C        0.979   0.1372   0.1737     C
C       0.9848   0.6995    0.237     C
O       0.9855   0.0661  0.02878     O
O       0.9863   0.7797   0.0606     O
H       0.9894   0.1854   0.6696     H
H       0.9907   0.1388   0.4973     H
C       0.9945   0.2658   0.3033     C
H       0.9987   0.8863   0.6436     H
