data_I
_chemical_name_common  '/home/zhangsd/repos/MofS-CGCNN/ML/data/TSD/clean_cifs/VEHKIE_SL'
_cell_length_a 20.31790
_cell_length_b 20.31790
_cell_length_c 20.31790
_cell_angle_alpha 109.47120
_cell_angle_beta  109.47120
_cell_angle_gamma 109.47120
_space_group_name_H-M_alt      'P 1'


loop_
_space_group_symop_operation_xyz
  'x, y, z' 

loop_
_atom_site_label
_atom_site_fract_x
_atom_site_fract_y
_atom_site_fract_z
_atom_site_type_symbol
H         -0.0      0.0  0.44088     H
O         -0.0      0.0  0.48908     O
H         -0.0  0.44088     -0.0     H
O         -0.0  0.48908     -0.0     O
O      0.00504  0.82646  0.36352     O
O       0.0063  0.51495  0.61893     O
O      0.00998  0.53607  0.86491     O
O      0.01804  0.63616  0.14366     O
O      0.02064  0.39785  0.50941     O
H       0.0304   0.5444   0.7546     H
H       0.0323   0.7474   0.2583     H
Zn     0.05387  0.11007  0.57466    Zn
Zn      0.0562  0.94613  0.52079    Zn
Zn     0.06342  0.56342      0.5    Zn
H       0.0649   0.3025   0.5238     H
O      0.07579  0.19338  0.54747     O
C      0.07606  0.57506  0.65492     C
C       0.0774   0.8646   0.4012     C
C      0.07986  0.42494    0.501     C
C      0.08256  0.58819  0.78417     C
C      0.08337  0.58976  0.90849     C
C      0.08829  0.77809  0.28754     C
C      0.09151  0.68127  0.17488     C
O      0.10398  0.48505  0.49135     O
C      0.10922  0.32046  0.51672     C
Zn     0.11007  0.57466  0.05387    Zn
O      0.11156  0.60215  0.62279     O
O      0.11759  0.92421  0.47168     O
C      0.11801  0.61463  0.74398     C
C      0.12295  0.62547  0.86806     C
O      0.12562  0.61812  0.98196     O
C      0.12635  0.84471  0.36434     C
C      0.12935  0.38537  0.50338     C
C      0.13194  0.75741  0.25489     C
O      0.13509  0.67116  0.14507     O
C       0.1354   0.2128   0.5366     C
O      0.14366  0.01804  0.63616     O
O      0.14507  0.13509  0.67116     O
C      0.15529  0.28164  0.51963     C
O      0.17354  0.17858  0.53706     O
C      0.17488  0.09151  0.68127     C
O      0.17858  0.53706  0.17354     O
O      0.19338  0.54747  0.07579     O
C      0.19598  0.41181  0.49437     C
C      0.19626  0.67954  0.78876     C
C      0.19925   0.6898  0.91171     C
H       0.2102   0.4556    0.486     H
C      0.21124  0.89078   0.4075     C
C       0.2128   0.5366   0.1354     C
C      0.21583  0.80402  0.29839     C
H       0.2213   0.6975   0.7624     H
C      0.22191   0.3102  0.50945     C
H        0.226   0.7151   0.9677     H
H       0.2376   0.9351   0.4589     H
C      0.23799  0.71836  0.87365     C
C      0.24259  0.37453  0.49748     C
H       0.2454   0.7898   0.2758     H
H       0.2526   0.2849   0.5109     H
C      0.25489  0.13194  0.75741     C
C      0.25602  0.87065  0.37403     C
H       0.2583   0.0323   0.7474     H
H       0.2758   0.2454   0.7898     H
C      0.28164  0.51963  0.15529     C
H       0.2849   0.5109   0.2526     H
C      0.28754  0.08829  0.77809     C
C      0.29839  0.21583  0.80402     C
H       0.3025   0.5238   0.0649     H
C       0.3102  0.50945  0.22191     C
C      0.31873  0.41024  0.49361     C
C      0.32046  0.51672  0.10922     C
C       0.3238   0.7872   0.9226     C
O      0.32884  0.46393  0.47391     O
C      0.34508  0.92014  0.42114     C
O      0.35409  0.80662  0.88241     O
O      0.35848  0.82142  0.99496     O
O      0.36352  0.00504  0.82646     O
O      0.36384  0.38188   0.5075     O
C      0.36434  0.12635  0.84471     C
C      0.37403  0.25602  0.87065     C
C      0.37453  0.49748  0.24259     C
O      0.37721  0.97936  0.48877     O
O      0.38107  0.89602  0.38737     O
O      0.38188   0.5075  0.36384     O
C      0.38537  0.50338  0.12935     C
O      0.38737  0.38107  0.89602     O
O      0.39785  0.50941  0.02064     O
C       0.4012   0.0774   0.8646     C
C       0.4075  0.21124  0.89078     C
C      0.41024  0.49361  0.31873     C
C      0.41181  0.49437  0.19598     C
C      0.42114  0.34508  0.92014     C
C      0.42494    0.501  0.07986     C
Zn     0.42534  0.53541  0.47921    Zn
Zn     0.43658      0.5  0.93658    Zn
H      0.44088      0.0     -0.0     H
O      0.45253  0.64591  0.52832     O
H       0.4556    0.486   0.2102     H
H       0.4589   0.2376   0.9351     H
O      0.46294  0.64152  0.63648     O
C       0.4634   0.6762   0.5988     C
O      0.46393  0.47391  0.32884     O
Zn     0.46459  0.88993   0.9438    Zn
O      0.47168  0.11759  0.92421     O
O      0.47391  0.32884  0.46393     O
H       0.4762   0.7787   0.5411     H
Zn     0.47921  0.42534  0.53541    Zn
C      0.48037  0.76201  0.63566     C
C      0.48328  0.80374   0.5925     C
O      0.48505  0.49135  0.10398     O
H        0.486   0.2102   0.4556     H
O      0.48877  0.37721  0.97936     O
O      0.48908      0.0      0.0     O
H       0.4891    0.774   0.7417     H
C      0.49055  0.80075  0.71246     C
O      0.49059  0.88844  0.51123     O
O      0.49135  0.10398  0.48505     O
O       0.4925  0.87438  0.85634     O
C      0.49361  0.31873  0.41024     C
C      0.49437  0.19598  0.41181     C
C      0.49662  0.88199  0.62597     C
C      0.49748  0.24259  0.37453     C
C        0.499  0.92394  0.57886     C
Zn         0.5  0.06342  0.56342    Zn
Zn         0.5  0.93658  0.43658    Zn
C        0.501  0.07986  0.42494     C
C      0.50252  0.87705  0.74511     C
C      0.50338  0.12935  0.38537     C
C      0.50563  0.91744  0.70161     C
C      0.50639  0.91663  0.82512     C
O       0.5075  0.36384  0.38188     O
O      0.50865   0.9937  0.61263     O
O      0.50941  0.02064  0.39785     O
C      0.50945  0.22191   0.3102     C
H       0.5109   0.2526   0.2849     H
O      0.51092  0.51092  0.51092     O
O      0.51123  0.49059  0.88844     O
H        0.514   0.9696   0.7242     H
O      0.51495  0.61893   0.0063     O
C      0.51672  0.10922  0.32046     C
C      0.51963  0.15529  0.28164     C
Zn     0.52079   0.0562  0.94613    Zn
H       0.5238   0.0649   0.3025     H
O      0.52609  0.99002  0.85493     O
O      0.52832  0.45253  0.64591     O
Zn     0.53541  0.47921  0.42534    Zn
O      0.53607  0.86491  0.00998     O
C       0.5366   0.1354   0.2128     C
O      0.53706  0.17354  0.17858     O
H       0.5411   0.4762   0.7787     H
H       0.5444   0.7546   0.0304     H
O      0.54747  0.07579  0.19338     O
H      0.55912  0.55912  0.55912     H
Zn     0.56342      0.5  0.06342    Zn
Zn     0.57466  0.05387  0.11007    Zn
C      0.57506  0.65492  0.07606     C
C      0.57886    0.499  0.92394     C
C      0.58819  0.78417  0.08256     C
C      0.58976  0.90849  0.08337     C
C       0.5925  0.48328  0.80374     C
C       0.5988   0.4634   0.6762     C
O      0.60215  0.62279  0.11156     O
O      0.61263  0.50865   0.9937     O
C      0.61463  0.74398  0.11801     C
O      0.61812  0.98196  0.12562     O
O      0.61893   0.0063  0.51495     O
O      0.62279  0.11156  0.60215     O
C      0.62547  0.86806  0.12295     C
C      0.62597  0.49662  0.88199     C
C      0.63566  0.48037  0.76201     C
O      0.63616  0.14366  0.01804     O
O      0.63648  0.46294  0.64152     O
O      0.64152  0.63648  0.46294     O
O      0.64591  0.52832  0.45253     O
C      0.65492  0.07606  0.57506     C
O      0.67116  0.14507  0.13509     O
C       0.6762   0.5988   0.4634     C
C      0.67954  0.78876  0.19626     C
C      0.68127  0.17488  0.09151     C
C       0.6898  0.91171  0.19925     C
H       0.6975   0.7624   0.2213     H
C      0.70161  0.50563  0.91744     C
C      0.71246  0.49055  0.80075     C
H       0.7151   0.9677    0.226     H
C      0.71836  0.87365  0.23799     C
H       0.7242    0.514   0.9696     H
H       0.7417   0.4891    0.774     H
C      0.74398  0.11801  0.61463     C
C      0.74511  0.50252  0.87705     C
H       0.7474   0.2583   0.0323     H
H       0.7546   0.0304   0.5444     H
C      0.75741  0.25489  0.13194     C
C      0.76201  0.63566  0.48037     C
H       0.7624   0.2213   0.6975     H
H        0.774   0.7417   0.4891     H
C      0.77809  0.28754  0.08829     C
H       0.7787   0.5411   0.4762     H
C      0.78417  0.08256  0.58819     C
C       0.7872   0.9226   0.3238     C
C      0.78876  0.19626  0.67954     C
H       0.7898   0.2758   0.2454     H
C      0.80075  0.71246  0.49055     C
C      0.80374   0.5925  0.48328     C
C      0.80402  0.29839  0.21583     C
O      0.80662  0.88241  0.35409     O
O      0.82142  0.99496  0.35848     O
C      0.82512  0.50639  0.91663     C
O      0.82646  0.36352  0.00504     O
C      0.84471  0.36434  0.12635     C
O      0.85493  0.52609  0.99002     O
O      0.85634   0.4925  0.87438     O
C       0.8646   0.4012   0.0774     C
O      0.86491  0.00998  0.53607     O
C      0.86806  0.12295  0.62547     C
C      0.87065  0.37403  0.25602     C
C      0.87365  0.23799  0.71836     C
O      0.87438  0.85634   0.4925     O
C      0.87705  0.74511  0.50252     C
C      0.88199  0.62597  0.49662     C
O      0.88241  0.35409  0.80662     O
O      0.88844  0.51123  0.49059     O
Zn     0.88993   0.9438  0.46459    Zn
C      0.89078   0.4075  0.21124     C
O      0.89602  0.38737  0.38107     O
C      0.90849  0.08337  0.58976     C
C      0.91171  0.19925   0.6898     C
C      0.91663  0.82512  0.50639     C
C      0.91744  0.70161  0.50563     C
C      0.92014  0.42114  0.34508     C
C       0.9226   0.3238   0.7872     C
C      0.92394  0.57886    0.499     C
O      0.92421  0.47168  0.11759     O
H       0.9351   0.4589   0.2376     H
Zn     0.93658  0.43658      0.5    Zn
Zn      0.9438  0.46459  0.88993    Zn
Zn     0.94613  0.52079   0.0562    Zn
H       0.9677    0.226   0.7151     H
H       0.9696   0.7242    0.514     H
O      0.97936  0.48877  0.37721     O
O      0.98196  0.12562  0.61812     O
O      0.99002  0.85493  0.52609     O
O       0.9937  0.61263  0.50865     O
O      0.99496  0.35848  0.82142     O
