data_I
_chemical_name_common  '/home/zhangsd/repos/MofS-CGCNN/ML/data/TSD/clean_cifs/VEMMEG_clean'
_cell_length_a 11.69300
_cell_length_b 11.99400
_cell_length_c 13.75300
_cell_angle_alpha 92.97000
_cell_angle_beta  114.36000
_cell_angle_gamma 108.35400
_space_group_name_H-M_alt      'P 1'


loop_
_space_group_symop_operation_xyz
  'x, y, z' 

loop_
_atom_site_label
_atom_site_fract_x
_atom_site_fract_y
_atom_site_fract_z
_atom_site_type_symbol
Mn         0.0      0.0      0.0    Mn
C       0.0114   0.9692    0.599     C
N       0.0144   0.0066   0.7775     N
C       0.0257   0.9394   0.7038     C
N       0.0344   0.9493   0.8604     N
N       0.0509   0.8424   0.7388     N
N       0.0545   0.8507    0.837     N
C       0.0577   0.9575   0.4445     C
C       0.0684    0.925   0.5424     C
N       0.0831   0.2892   0.0307     N
H       0.0978   0.9293   0.4079     H
Mn      0.1074  0.72846  0.95357    Mn
H       0.1136   0.8738   0.5702     H
N       0.1191   0.1968   0.0212     N
N       0.1752   0.3886    0.029     N
N       0.1873   0.9738   0.1191     N
N       0.2125   0.8757   0.1038     N
N       0.2341   0.2339   0.0134     N
N       0.2611   0.0302   0.2235     N
C       0.2665   0.3511   0.0185     C
N       0.3027   0.8665   0.1983     N
H       0.3232   0.5616   0.9625     H
C       0.3287   0.9604   0.2699     C
H        0.359    0.106   0.4368     H
C       0.3865   0.4294     0.01     C
C       0.3952   0.5362   0.9784     C
C       0.4152   0.0628   0.4615     C
C       0.4187    0.983   0.3872     C
H       0.4898   0.3182   0.0514     H
H       0.4909   0.1316    0.622     H
C       0.4932   0.3915   0.0311     C
C       0.4953   0.0786   0.5732     C
C       0.5047   0.9214   0.4268     C
C       0.5068   0.6085   0.9689     C
H       0.5091   0.8684    0.378     H
H       0.5102   0.6818   0.9486     H
C       0.5813    0.017   0.6128     C
C       0.5848   0.9372   0.5385     C
C       0.6048   0.4638   0.0216     C
C       0.6135   0.5706     0.99     C
H        0.641    0.894   0.5632     H
C       0.6713   0.0396   0.7301     C
H       0.6768   0.4384   0.0375     H
N       0.6973   0.1335   0.8017     N
C       0.7335   0.6489   0.9815     C
N       0.7389   0.9698   0.7765     N
N       0.7659   0.7661   0.9866     N
N       0.7875   0.1243   0.8962     N
N       0.8127   0.0262   0.8809     N
N       0.8248   0.6114    0.971     N
N       0.8809   0.8032   0.9788     N
H       0.8864   0.1262   0.4298     H
Mn      0.8926  0.27154  0.04643    Mn
H       0.9022   0.0707   0.5921     H
N       0.9169   0.7108   0.9693     N
C       0.9316    0.075   0.4576     C
C       0.9423   0.0425   0.5555     C
N       0.9455   0.1493    0.163     N
N       0.9491   0.1576   0.2612     N
N       0.9656   0.0507   0.1396     N
C       0.9743   0.0606   0.2962     C
N       0.9856   0.9934   0.2225     N
C       0.9886   0.0308    0.401     C
