data_I
_chemical_name_common  '/home/zhangsd/repos/MofS-CGCNN/ML/data/TSD/clean_cifs/VEMMOQ_clean'
_cell_length_a 22.24900
_cell_length_b  7.05280
_cell_length_c 13.57470
_cell_angle_alpha 90.00000
_cell_angle_beta  90.00000
_cell_angle_gamma 90.00000
_space_group_name_H-M_alt      'P 1'


loop_
_space_group_symop_operation_xyz
  'x, y, z' 

loop_
_atom_site_label
_atom_site_fract_x
_atom_site_fract_y
_atom_site_fract_z
_atom_site_type_symbol
Cu         0.0      0.0      0.0    Cu
Cu         0.0      0.5      0.0    Cu
N      0.06337   0.1562  0.06569     N
N      0.06337   0.3438  0.06569     N
N      0.06337   0.6562  0.93431     N
N      0.06337   0.8438  0.93431     N
N      0.11095   0.0929   0.1129     N
N      0.11095   0.4071   0.1129     N
N      0.11095   0.5929   0.8871     N
N      0.11095   0.9071   0.8871     N
C       0.1391     0.25   0.1417     C
C       0.1391     0.75   0.8583     C
C       0.1954     0.25    0.198     C
C       0.1954     0.75    0.802     C
H       0.2048    0.033   0.7908     H
H       0.2048    0.467   0.7908     H
H       0.2048    0.533   0.2092     H
H       0.2048    0.967   0.2092     H
C        0.223   0.0818    0.225     C
C        0.223   0.4182    0.225     C
C        0.223   0.5818    0.775     C
C        0.223   0.9182    0.775     C
C        0.277   0.0818    0.275     C
C        0.277   0.4182    0.275     C
C        0.277   0.5818    0.725     C
C        0.277   0.9182    0.725     C
H       0.2952    0.033   0.7092     H
H       0.2952    0.467   0.7092     H
H       0.2952    0.533   0.2908     H
H       0.2952    0.967   0.2908     H
C       0.3046     0.25    0.302     C
C       0.3046     0.75    0.698     C
C       0.3609     0.25   0.3583     C
C       0.3609     0.75   0.6417     C
N      0.38905   0.0929   0.3871     N
N      0.38905   0.4071   0.3871     N
N      0.38905   0.5929   0.6129     N
N      0.38905   0.9071   0.6129     N
N      0.43663   0.1562  0.43431     N
N      0.43663   0.3438  0.43431     N
N      0.43663   0.6562  0.56569     N
N      0.43663   0.8438  0.56569     N
Cu         0.5      0.0      0.5    Cu
Cu         0.5      0.5      0.5    Cu
N      0.56337   0.1562  0.43431     N
N      0.56337   0.3438  0.43431     N
N      0.56337   0.6562  0.56569     N
N      0.56337   0.8438  0.56569     N
N      0.61095   0.0929   0.3871     N
N      0.61095   0.4071   0.3871     N
N      0.61095   0.5929   0.6129     N
N      0.61095   0.9071   0.6129     N
C       0.6391     0.25   0.3583     C
C       0.6391     0.75   0.6417     C
C       0.6954     0.25    0.302     C
C       0.6954     0.75    0.698     C
H       0.7048    0.033   0.7092     H
H       0.7048    0.467   0.7092     H
H       0.7048    0.533   0.2908     H
H       0.7048    0.967   0.2908     H
C        0.723   0.0818    0.275     C
C        0.723   0.4182    0.275     C
C        0.723   0.5818    0.725     C
C        0.723   0.9182    0.725     C
C        0.777   0.0818    0.225     C
C        0.777   0.4182    0.225     C
C        0.777   0.5818    0.775     C
C        0.777   0.9182    0.775     C
H       0.7952    0.033   0.7908     H
H       0.7952    0.467   0.7908     H
H       0.7952    0.533   0.2092     H
H       0.7952    0.967   0.2092     H
C       0.8046     0.25    0.198     C
C       0.8046     0.75    0.802     C
C       0.8609     0.25   0.1417     C
C       0.8609     0.75   0.8583     C
N      0.88905   0.0929   0.1129     N
N      0.88905   0.4071   0.1129     N
N      0.88905   0.5929   0.8871     N
N      0.88905   0.9071   0.8871     N
N      0.93663   0.1562  0.06569     N
N      0.93663   0.3438  0.06569     N
N      0.93663   0.6562  0.93431     N
N      0.93663   0.8438  0.93431     N
