data_I
_chemical_name_common  '/home/zhangsd/repos/MofS-CGCNN/ML/data/TSD/clean_cifs/VEMMAC_clean'
_cell_length_a 11.57130
_cell_length_b 11.73600
_cell_length_c 13.61900
_cell_angle_alpha 92.86900
_cell_angle_beta  114.44300
_cell_angle_gamma 107.98800
_space_group_name_H-M_alt      'P 1'


loop_
_space_group_symop_operation_xyz
  'x, y, z' 

loop_
_atom_site_label
_atom_site_fract_x
_atom_site_fract_y
_atom_site_fract_z
_atom_site_type_symbol
Zn         0.0      0.5      0.0    Zn
C       0.0137   0.4713   0.6014     C
N       0.0141   0.5105    0.781     N
C       0.0272   0.4422   0.7081     C
N       0.0326   0.4527   0.8645     N
N       0.0534    0.344   0.7433     N
C       0.0552   0.4536   0.4436     C
N       0.0558   0.3532   0.8424     N
C       0.0708   0.4253    0.545     C
N       0.0795   0.7871   0.0295     N
H       0.0923   0.4209   0.4056     H
Zn     0.10439  0.23392  0.95361    Zn
N       0.1153   0.6927   0.0193     N
H       0.1195   0.3754    0.575     H
N       0.1703   0.8873   0.0278     N
N       0.1851   0.4748   0.1142     N
N         0.21   0.3742   0.0998     N
N       0.2309   0.7282   0.0107     N
N       0.2601   0.5323   0.2202     N
C        0.263   0.8492   0.0158     C
N       0.3016   0.3637   0.1955     N
H       0.3277   0.0707    0.975     H
C       0.3291   0.4613   0.2679     C
H       0.3512   0.6023   0.4372     H
C       0.3854   0.9275   0.0088     C
C       0.3968   0.0409   0.9854     C
C       0.4114    0.561   0.4622     C
C       0.4185    0.483   0.3872     C
H       0.4802   0.8102   0.0386     H
H        0.487   0.6317   0.6223     H
C       0.4871   0.8875   0.0229     C
C       0.4923   0.5781    0.573     C
C       0.5077   0.4219    0.427     C
C       0.5129   0.1125   0.9771     C
H        0.513   0.3683   0.3777     H
H       0.5198   0.1898   0.9614     H
C       0.5815    0.517   0.6128     C
C       0.5886    0.439   0.5378     C
C       0.6032   0.9591   0.0146     C
C       0.6146   0.0725   0.9912     C
H       0.6488   0.3977   0.5628     H
C       0.6709   0.5387   0.7321     C
H       0.6723   0.9293    0.025     H
N       0.6984   0.6363   0.8045     N
C        0.737   0.1508   0.9842     C
N       0.7399   0.4677   0.7798     N
N       0.7691   0.2718   0.9893     N
N         0.79   0.6258   0.9002     N
N       0.8149   0.5252   0.8858     N
N       0.8297   0.1127   0.9722     N
H       0.8805   0.6246    0.425     H
N       0.8847   0.3073   0.9807     N
Zn     0.89561  0.76608  0.04639    Zn
H       0.9077   0.5791   0.5944     H
N       0.9205   0.2129   0.9705     N
C       0.9292   0.5747    0.455     C
N       0.9442   0.6468   0.1576     N
C       0.9448   0.5464   0.5564     C
N       0.9466    0.656   0.2567     N
N       0.9674   0.5473   0.1355     N
C       0.9728   0.5578   0.2919     C
N       0.9859   0.4895    0.219     N
C       0.9863   0.5287   0.3986     C
