data_I
_chemical_name_common  '/home/zhangsd/repos/MofS-CGCNN/ML/data/TSD/clean_cifs/VEPDEB_charged'
_cell_length_a 14.83440
_cell_length_b 19.06820
_cell_length_c 19.06820
_cell_angle_alpha 111.28900
_cell_angle_beta  108.11800
_cell_angle_gamma 71.88170
_space_group_name_H-M_alt      'P 1'


loop_
_space_group_symop_operation_xyz
  'x, y, z' 

loop_
_atom_site_label
_atom_site_fract_x
_atom_site_fract_y
_atom_site_fract_z
_atom_site_type_symbol
C       0.0002   0.3726   0.2616     C
C       0.0002   0.7384   0.6274     C
C       0.0003   0.1738   0.3308     C
C       0.0003   0.6692   0.8262     C
H       0.0086   0.2751   0.1637     H
H       0.0086   0.8363   0.7249     H
H       0.0124   0.3307   0.4815     H
H       0.0124   0.5185   0.6693     H
C       0.0127   0.2759   0.4555     C
C       0.0127   0.5445   0.7241     C
C       0.0303  0.12251  0.46469     C
C       0.0303  0.53531  0.87749     C
H       0.0313   0.0679   0.4403     H
H       0.0313   0.5597   0.9321     H
H        0.039   0.1332   0.5198     H
H        0.039   0.4802   0.8668     H
H       0.0522   0.2749   0.3631     H
H       0.0522   0.6369   0.7251     H
H       0.0565   0.5306   0.2656     H
H       0.0565   0.7344   0.4694     H
H       0.0614   0.3528   0.2932     H
H       0.0614   0.7068   0.6472     H
C       0.0676   0.4324    0.171     C
C       0.0676    0.829   0.5676     C
C       0.0687   0.4753   0.2565     C
C       0.0687   0.7435   0.5247     C
H         0.08   0.3209   0.0969     H
H         0.08   0.9031   0.6791     H
C       0.0823   0.3453   0.1517     C
C       0.0823   0.8483   0.6547     C
C       0.0984   0.1247   0.3613     C
C       0.0984   0.6387   0.8753     C
H       0.0994   0.0703   0.3361     H
H       0.0994   0.6639   0.9297     H
H       0.1015   0.9029   0.0241     H
H       0.1015   0.9759   0.0971     H
C       0.1118   0.2276   0.4882     C
C       0.1118   0.5118   0.7724     C
C       0.1122   0.1425   0.4485     C
C       0.1122   0.5515   0.8575     C
H       0.1149   0.8666   0.1334     H
H       0.1202   0.5652   0.1826     H
H       0.1202   0.8174   0.4348     H
H        0.121   0.2389   0.5435     H
H        0.121   0.4565   0.7611     H
H       0.1314   0.4589   0.2885     H
H       0.1314   0.7115   0.5411     H
C       0.1406   0.9266   0.0734     C
N       0.1447  0.44832  0.14868     N
N       0.1447  0.85132  0.55168     N
H        0.145   0.3241   0.1805     H
H        0.145   0.8195   0.6759     H
H       0.1508   0.1367   0.3507     H
H       0.1508   0.6493   0.8633     H
C       0.1573   0.5187   0.1579     C
C       0.1573   0.8421   0.4813     C
H       0.1644   0.2405   0.4787     H
H       0.1644   0.5213   0.7595     H
C       0.1726   0.8746   0.1254     C
H       0.1768   0.0523   0.5513     H
H       0.1768   0.4487   0.9477     H
H       0.1952   0.7717   0.0379     H
H       0.1952   0.9621   0.2283     H
N        0.206  0.09514  0.47906     N
N        0.206  0.52094  0.90486     N
H       0.2101   0.4148   0.5852     H
H       0.2105   0.9721   0.0279     H
C       0.2131  0.39804  0.11076     C
C       0.2131  0.88924  0.60196     C
H       0.2227   0.3445   0.0957     H
H       0.2227   0.9043   0.6555     H
C       0.2233  0.05488  0.52952     C
C       0.2233  0.47048  0.94512     C
N        0.228  0.51311  0.12789     N
N        0.228  0.87211  0.48689     N
C       0.2306   0.9387   0.0613     C
C       0.2334  0.79631  0.08729     C
C       0.2334  0.91271  0.20369     C
H       0.2525   0.7628   0.1198     H
H       0.2525   0.8802   0.2372     H
H       0.2541   0.0268   0.1642     H
H       0.2541   0.8358   0.9732     H
H       0.2627   0.4361   0.4909     H
H       0.2627   0.5091   0.5639     H
N       0.2641  0.43566  0.09812     N
N       0.2641  0.90188  0.56434     N
C       0.2797   0.4092   0.5908     C
Au     0.28041  0.16549  0.83451    Au
C       0.2921  0.86029  0.02271     C
C       0.2921  0.97729  0.13971     C
C        0.293  0.08408  0.46312     C
C        0.293  0.53688  0.91592     C
C       0.2932   0.4549   0.5451     C
C        0.294  0.07496  0.74284     C
C        0.294  0.25716  0.92504     C
H       0.2974   0.3032   0.5066     H
H       0.2974   0.4934   0.6968     H
H       0.3036   0.1053   0.4303     H
H       0.3036   0.5697   0.8947     H
N        0.307  0.15291  0.33789     N
N        0.307  0.66211  0.84709     N
C       0.3127   0.2066   0.3268     C
C       0.3127   0.6732   0.7934     C
N       0.3153  0.02646  0.68914     N
N       0.3153  0.31086  0.97354     N
N       0.3154  0.02025  0.54303     N
N       0.3154  0.45697  0.97975     N
H        0.318   0.2944   0.5894     H
H        0.318   0.4106   0.7056     H
C       0.3235  0.80893  0.07567     C
C       0.3235  0.92433  0.19107     C
Au     0.32623  0.30161  0.31481    Au
Au     0.32623  0.68519   0.6984    Au
C       0.3274  0.32347  0.56073     C
C       0.3274  0.43927  0.67653     C
C       0.3351  0.40183  0.30997     C
C       0.3351  0.69003  0.59817     C
N       0.3359  0.46091  0.30889     N
N       0.3359  0.69111  0.53909     N
H        0.349   0.8681   0.0141     H
H        0.349   0.9859   0.1319     H
H       0.3505   0.6524   0.0676     H
H       0.3505   0.9324   0.3476     H
N       0.3603  0.03883  0.50093     N
N       0.3603  0.49907  0.96117     N
Fe     0.37589  0.39214  0.04858    Fe
Fe     0.37589  0.95142  0.60786    Fe
C       0.3848   0.8466   0.1534     C
N       0.3865  0.73374  0.04192     N
N       0.3865  0.95808  0.26626     N
C       0.3921  0.66349  0.04731     C
C       0.3921  0.95269  0.33651     C
C       0.4026   0.4455   0.5545     C
H       0.4053   0.8135   0.1865     H
H       0.4121   0.4747   0.5253     H
H       0.4218   0.3395   0.4697     H
H       0.4218   0.5303   0.6605     H
N       0.4302  0.32821  0.11559     N
N       0.4302  0.88441  0.67179     N
H        0.432   0.1774   0.5906     H
H        0.432   0.4094   0.8226     H
C       0.4362  0.31469  0.57011     C
C       0.4362  0.42989  0.68531     C
H       0.4403   0.4677   0.2259     H
H       0.4403   0.7741   0.5323     H
H       0.4425   0.8541   0.1459     H
N       0.4439  0.47085  0.12317     N
N       0.4439  0.87683  0.52915     N
H        0.446   0.6614   0.3386     H
C       0.4508   0.3594    0.524     C
C       0.4508    0.476   0.6406     C
C       0.4562  0.29025  0.15575     C
C       0.4562  0.84425  0.70975     C
C       0.4615  0.72434  0.01086     C
C       0.4615  0.98914  0.27566     C
C       0.4626   0.4883   0.1989     C
C       0.4626   0.8011   0.5117     C
N       0.4657   0.6133  0.01938     N
N       0.4657  0.98062   0.3867     N
C       0.4669  0.17217  0.55543     C
C       0.4669  0.44457  0.82783     C
H       0.4762   0.7631   0.0005     H
H       0.4762   0.9995   0.2369     H
H       0.4771   0.3151   0.6849     H
H       0.4802   0.5295   0.3535     H
H       0.4802   0.6465   0.4705     H
N       0.4809  0.23139  0.54043     N
N       0.4809  0.45957  0.76861     N
C        0.485   0.3444   0.6556     C
N       0.4895  0.34776  0.00258     N
N       0.4895  0.99742  0.65224     N
N       0.4901  0.51303  0.10575     N
N       0.4901  0.89425  0.48697     N
Fe         0.5      0.0      0.5    Fe
Au         0.5  0.22502  0.22502    Au
Fe         0.5      0.5     -0.0    Fe
Au         0.5  0.77498  0.77498    Au
N       0.5099  0.10575  0.51303     N
N       0.5099  0.48697  0.89425     N
N       0.5105  0.00258  0.34776     N
N       0.5105  0.65224  0.99742     N
C        0.515   0.6556   0.3444     C
N       0.5191  0.54043  0.23139     N
N       0.5191  0.76861  0.45957     N
H       0.5198   0.3535   0.5295     H
H       0.5198   0.4705   0.6465     H
H       0.5229   0.6849   0.3151     H
H       0.5238   0.0005   0.7631     H
H       0.5238   0.2369   0.9995     H
C       0.5331  0.55543  0.17217     C
C       0.5331  0.82783  0.44457     C
N       0.5343  0.01938   0.6133     N
N       0.5343   0.3867  0.98062     N
C       0.5374   0.1989   0.4883     C
C       0.5374   0.5117   0.8011     C
C       0.5385  0.01086  0.72434     C
C       0.5385  0.27566  0.98914     C
C       0.5438  0.15575  0.29025     C
C       0.5438  0.70975  0.84425     C
C       0.5492    0.524   0.3594     C
C       0.5492   0.6406    0.476     C
H        0.554   0.3386   0.6614     H
N       0.5561  0.12317  0.47085     N
N       0.5561  0.52915  0.87683     N
H       0.5575   0.1459   0.8541     H
H       0.5597   0.2259   0.4677     H
H       0.5597   0.5323   0.7741     H
C       0.5638  0.57011  0.31469     C
C       0.5638  0.68531  0.42989     C
H        0.568   0.5906   0.1774     H
H        0.568   0.8226   0.4094     H
N       0.5698  0.11559  0.32821     N
N       0.5698  0.67179  0.88441     N
H       0.5782   0.4697   0.3395     H
H       0.5782   0.6605   0.5303     H
H       0.5879   0.5253   0.4747     H
H       0.5947   0.1865   0.8135     H
C       0.5974   0.5545   0.4455     C
C       0.6079  0.04731  0.66349     C
C       0.6079  0.33651  0.95269     C
N       0.6135  0.04192  0.73374     N
N       0.6135  0.26626  0.95808     N
C       0.6152   0.1534   0.8466     C
Fe     0.62411  0.04858  0.39214    Fe
Fe     0.62411  0.60786  0.95142    Fe
N       0.6397  0.50093  0.03883     N
N       0.6397  0.96117  0.49907     N
H       0.6495   0.0676   0.6524     H
H       0.6495   0.3476   0.9324     H
H        0.651   0.0141   0.8681     H
H        0.651   0.1319   0.9859     H
N       0.6641  0.30889  0.46091     N
N       0.6641  0.53909  0.69111     N
C       0.6649  0.30997  0.40183     C
C       0.6649  0.59817  0.69003     C
C       0.6726  0.56073  0.32347     C
C       0.6726  0.67653  0.43927     C
Au     0.67377  0.31481  0.30161    Au
Au     0.67377   0.6984  0.68519    Au
C       0.6765  0.07567  0.80893     C
C       0.6765  0.19107  0.92433     C
H        0.682   0.5894   0.2944     H
H        0.682   0.7056   0.4106     H
N       0.6846  0.54303  0.02025     N
N       0.6846  0.97975  0.45697     N
N       0.6847  0.68914  0.02646     N
N       0.6847  0.97354  0.31086     N
C       0.6873   0.3268   0.2066     C
C       0.6873   0.7934   0.6732     C
N        0.693  0.33789  0.15291     N
N        0.693  0.84709  0.66211     N
H       0.6964   0.4303   0.1053     H
H       0.6964   0.8947   0.5697     H
H       0.7026   0.5066   0.3032     H
H       0.7026   0.6968   0.4934     H
C        0.706  0.74284  0.07496     C
C        0.706  0.92504  0.25716     C
C       0.7068   0.5451   0.4549     C
C        0.707  0.46312  0.08408     C
C        0.707  0.91592  0.53688     C
C       0.7079  0.02271  0.86029     C
C       0.7079  0.13971  0.97729     C
Au     0.71959  0.83451  0.16549    Au
C       0.7203   0.5908   0.4092     C
N       0.7359  0.09812  0.43566     N
N       0.7359  0.56434  0.90188     N
H       0.7373   0.4909   0.4361     H
H       0.7373   0.5639   0.5091     H
H       0.7459   0.1642   0.0268     H
H       0.7459   0.9732   0.8358     H
H       0.7475   0.1198   0.7628     H
H       0.7475   0.2372   0.8802     H
C       0.7666  0.08729  0.79631     C
C       0.7666  0.20369  0.91271     C
C       0.7694   0.0613   0.9387     C
N        0.772  0.12789  0.51311     N
N        0.772  0.48689  0.87211     N
C       0.7767  0.52952  0.05488     C
C       0.7767  0.94512  0.47048     C
H       0.7773   0.0957   0.3445     H
H       0.7773   0.6555   0.9043     H
C       0.7869  0.11076  0.39804     C
C       0.7869  0.60196  0.88924     C
H       0.7895   0.0279   0.9721     H
H       0.7899   0.5852   0.4148     H
N        0.794  0.47906  0.09514     N
N        0.794  0.90486  0.52094     N
H       0.8048   0.0379   0.7717     H
H       0.8048   0.2283   0.9621     H
H       0.8232   0.5513   0.0523     H
H       0.8232   0.9477   0.4487     H
C       0.8274   0.1254   0.8746     C
H       0.8356   0.4787   0.2405     H
H       0.8356   0.7595   0.5213     H
C       0.8427   0.1579   0.5187     C
C       0.8427   0.4813   0.8421     C
H       0.8492   0.3507   0.1367     H
H       0.8492   0.8633   0.6493     H
H        0.855   0.1805   0.3241     H
H        0.855   0.6759   0.8195     H
N       0.8553  0.14868  0.44832     N
N       0.8553  0.55168  0.85132     N
C       0.8594   0.0734   0.9266     C
H       0.8686   0.2885   0.4589     H
H       0.8686   0.5411   0.7115     H
H        0.879   0.5435   0.2389     H
H        0.879   0.7611   0.4565     H
H       0.8798   0.1826   0.5652     H
H       0.8798   0.4348   0.8174     H
H       0.8851   0.1334   0.8666     H
C       0.8878   0.4485   0.1425     C
C       0.8878   0.8575   0.5515     C
C       0.8882   0.4882   0.2276     C
C       0.8882   0.7724   0.5118     C
H       0.8985   0.0241   0.9029     H
H       0.8985   0.0971   0.9759     H
H       0.9006   0.3361   0.0703     H
H       0.9006   0.9297   0.6639     H
C       0.9016   0.3613   0.1247     C
C       0.9016   0.8753   0.6387     C
C       0.9177   0.1517   0.3453     C
C       0.9177   0.6547   0.8483     C
H         0.92   0.0969   0.3209     H
H         0.92   0.6791   0.9031     H
C       0.9313   0.2565   0.4753     C
C       0.9313   0.5247   0.7435     C
C       0.9324    0.171   0.4324     C
C       0.9324   0.5676    0.829     C
H       0.9386   0.2932   0.3528     H
H       0.9386   0.6472   0.7068     H
H       0.9435   0.2656   0.5306     H
H       0.9435   0.4694   0.7344     H
H       0.9478   0.3631   0.2749     H
H       0.9478   0.7251   0.6369     H
H        0.961   0.5198   0.1332     H
H        0.961   0.8668   0.4802     H
H       0.9687   0.4403   0.0679     H
H       0.9687   0.9321   0.5597     H
C       0.9697  0.46469  0.12251     C
C       0.9697  0.87749  0.53531     C
C       0.9873   0.4555   0.2759     C
C       0.9873   0.7241   0.5445     C
H       0.9876   0.4815   0.3307     H
H       0.9876   0.6693   0.5185     H
H       0.9914   0.1637   0.2751     H
H       0.9914   0.7249   0.8363     H
C       0.9997   0.3308   0.1738     C
C       0.9997   0.8262   0.6692     C
C       0.9998   0.2616   0.3726     C
C       0.9998   0.6274   0.7384     C
