data_I
_chemical_name_common  '/home/zhangsd/repos/MofS-CGCNN/ML/data/TSD/clean_cifs/VERZEZ_clean'
_cell_length_a  7.81210
_cell_length_b  7.96120
_cell_length_c 13.17280
_cell_angle_alpha 90.00000
_cell_angle_beta  90.00000
_cell_angle_gamma 90.00000
_space_group_name_H-M_alt      'P 1'


loop_
_space_group_symop_operation_xyz
  'x, y, z' 

loop_
_atom_site_label
_atom_site_fract_x
_atom_site_fract_y
_atom_site_fract_z
_atom_site_type_symbol
H       0.0202   0.3264   0.7785     H
O       0.0489   0.6495  0.46043     O
Mn     0.05335  0.00539  0.91457    Mn
C       0.0842   0.7751  0.73529     C
O       0.1145   0.6399  0.69145     O
H       0.1431   0.2209   0.4731     H
O       0.1577     0.33  0.59459     O
O       0.1688   0.8683  0.03839     O
O       0.1821   0.8483  0.79651     O
C       0.1881   0.7232   0.4587     C
C       0.2069   0.2278  0.53257     C
H        0.239   0.2952   0.0134     H
O       0.2407     0.82  0.39068     O
O       0.2593     0.18  0.89068     O
H        0.261   0.7048   0.5134     H
C       0.2931   0.7722  0.03257     C
C       0.3119   0.2768   0.9587     C
O       0.3179   0.1517  0.29651     O
O       0.3312   0.1317  0.53839     O
O       0.3423     0.67  0.09459     O
H       0.3569   0.7791   0.9731     H
O       0.3855   0.3601  0.19145     O
C       0.4158   0.2249  0.23529     C
Mn     0.44665  0.99461  0.41457    Mn
O       0.4511   0.3505  0.96043     O
H       0.4798   0.6736   0.2785     H
H       0.5202   0.1736   0.2215     H
O       0.5489   0.8505  0.53957     O
Mn     0.55335  0.49461  0.08543    Mn
C       0.5842   0.7249  0.26471     C
O       0.6145   0.8601  0.30855     O
H       0.6431   0.2791   0.5269     H
O       0.6577     0.17  0.40541     O
O       0.6688   0.6317  0.96161     O
O       0.6821   0.6517  0.20349     O
C       0.6881   0.7768   0.5413     C
C       0.7069   0.2722  0.46743     C
H        0.739   0.2048   0.9866     H
O       0.7407     0.68  0.60932     O
O       0.7593     0.32  0.10932     O
H        0.761   0.7952   0.4866     H
C       0.7931   0.7278  0.96743     C
C       0.8119   0.2232   0.0413     C
O       0.8179   0.3483  0.70349     O
O       0.8312   0.3683  0.46161     O
O       0.8423     0.83  0.90541     O
H       0.8569   0.7209   0.0269     H
O       0.8855   0.1399  0.80855     O
C       0.9158   0.2751  0.76471     C
Mn     0.94665  0.50539  0.58543    Mn
O       0.9511   0.1495  0.03957     O
H       0.9798   0.8264   0.7215     H
