data_I
_chemical_name_common  '/home/zhangsd/repos/MofS-CGCNN/ML/data/TSD/clean_cifs/VESBAY_clean'
_cell_length_a  7.68830
_cell_length_b  7.78750
_cell_length_c 12.85580
_cell_angle_alpha 90.00000
_cell_angle_beta  90.00000
_cell_angle_gamma 90.00000
_space_group_name_H-M_alt      'P 1'


loop_
_space_group_symop_operation_xyz
  'x, y, z' 

loop_
_atom_site_label
_atom_site_fract_x
_atom_site_fract_y
_atom_site_fract_z
_atom_site_type_symbol
H       0.0334   0.3294   0.7781     H
O      0.04837  0.64961  0.46352     O
Mg     0.05363  0.00563  0.91555    Mg
C       0.0725   0.7766  0.73615     C
O      0.10398  0.63772  0.69084     O
H        0.124   0.2011   0.4716     H
O      0.15306  0.33591  0.58794     O
O      0.17129  0.87066  0.03392     O
O      0.17169  0.85005   0.7988     O
C       0.1899    0.724  0.46274     C
C       0.1972   0.2212  0.52788     C
H       0.2352   0.2981   0.0179     H
O      0.24214  0.82674  0.39438     O
O      0.25786  0.17326  0.89438     O
H       0.2648   0.7019   0.5179     H
C       0.3028   0.7788  0.02788     C
C       0.3101    0.276  0.96274     C
O      0.32831  0.14995   0.2988     O
O      0.32871  0.12934  0.53392     O
O      0.34694  0.66409  0.08794     O
H        0.376   0.7989   0.9716     H
O      0.39602  0.36228  0.19084     O
C       0.4275   0.2234  0.23615     C
Mg     0.44637  0.99437  0.41555    Mg
O      0.45163  0.35039  0.96352     O
H       0.4666   0.6706   0.2781     H
H       0.5334   0.1706   0.2219     H
O      0.54837  0.85039  0.53648     O
Mg     0.55363  0.49437  0.08445    Mg
C       0.5725   0.7234  0.26385     C
O      0.60398  0.86228  0.30916     O
H        0.624   0.2989   0.5284     H
O      0.65306  0.16409  0.41206     O
O      0.67129  0.62934  0.96608     O
O      0.67169  0.64995   0.2012     O
C       0.6899    0.776  0.53726     C
C       0.6972   0.2788  0.47212     C
H       0.7352   0.2019   0.9821     H
O      0.74214  0.67326  0.60562     O
O      0.75786  0.32674  0.10562     O
H       0.7648   0.7981   0.4821     H
C       0.8028   0.7212  0.97212     C
C       0.8101    0.224  0.03726     C
O      0.82831  0.35005   0.7012     O
O      0.82871  0.37066  0.46608     O
O      0.84694  0.83591  0.91206     O
H        0.876   0.7011   0.0284     H
O      0.89602  0.13772  0.80916     O
C       0.9275   0.2766  0.76385     C
Mg     0.94637  0.50563  0.58445    Mg
O      0.95163  0.14961  0.03648     O
H       0.9666   0.8294   0.7219     H
