data_I
_chemical_name_common  '/home/zhangsd/repos/MofS-CGCNN/ML/data/TSD/clean_cifs/VEWKUF_clean'
_cell_length_a 20.65360
_cell_length_b 20.79260
_cell_length_c 33.49740
_cell_angle_alpha 90.00000
_cell_angle_beta  90.00000
_cell_angle_gamma 118.61900
_space_group_name_H-M_alt      'P 1'


loop_
_space_group_symop_operation_xyz
  'x, y, z' 

loop_
_atom_site_label
_atom_site_fract_x
_atom_site_fract_y
_atom_site_fract_z
_atom_site_type_symbol
H     -0.02138  0.62911  0.84537     H
C     -0.00104  0.00834  0.08015     C
H      0.00293  0.88844  0.58194     H
C      0.01653  0.58441  0.41858     C
C      0.01715  0.49978  0.36811     C
O      0.01776  0.67408  0.46217     O
C      0.01889  0.03136  0.42281     C
C      0.01909  0.91084  0.38598     C
H      0.01918  0.86468  0.37106     H
H      0.02046   0.1038   0.5754     H
H      0.02141  0.07902  0.43729     H
C      0.02197  0.99706  0.88739     C
C      0.02231  0.05861  0.86955     C
C      0.03372   0.9465  0.57569     C
C      0.03796  0.66158  0.84776     C
H      0.03856   0.7512  0.81566     H
H      0.04138  0.49178  0.34117     H
C      0.04327  0.06696   0.5714     C
H      0.04348  0.98244   0.8079     H
C       0.0447  0.55906  0.88572     C
C      0.04487  0.47437  0.93641     C
C      0.04756   0.5704  0.38447     C
C      0.04872  0.65992  0.43532     C
H      0.05427  0.08314   0.8429     H
C      0.05903  0.99998   0.4394     C
C      0.06073  0.94034  0.42079     C
C      0.06254   0.9616    0.869     C
C      0.06885  0.95929  0.82736     C
H      0.07004  0.46594  0.96286     H
C      0.07223  0.73223  0.83125     C
H      0.07418  0.11831  0.13407     H
C      0.07443  0.54514  0.92052     C
C      0.07753  0.04038  0.09235     C
C      0.07969  0.63415  0.86767     C
H      0.09003  0.92823  0.92508     H
H       0.0901  1.02363  0.46648     H
C      0.09345  0.92776  0.89286     C
H      0.09497  0.61437  0.37002     H
H      0.09757  0.75545  0.63228     H
H      0.10173   -0.029  0.05381     H
H      0.10505  0.75797  0.55997     H
C      0.10512   0.9746  0.56084     C
C      0.10636  0.92549  0.81002     C
H      0.10698  0.92402  0.77787     H
C      0.10822  0.09856  0.11969     C
O      0.10918  0.85682  0.42022     O
C      0.10945  0.91241  0.43646     C
C      0.11483  0.09508  0.55633     C
O      0.11562  0.71481  0.42059     O
H      0.12054  0.58914   0.9358     H
C      0.12334  0.01532  0.07531     C
H      0.12771  0.93767  0.55684     H
C      0.13066  0.89379   0.8756     C
H      0.13312  0.73611  0.76279     H
C      0.14051  0.89408  0.83387     C
H       0.1417  0.73729  0.69162     H
H      0.14516  0.15273  0.54876     H
C      0.14542  0.79963  0.61828     C
C      0.14556  0.04861  0.54978     C
C      0.14918  0.77861  0.83468     C
C      0.14941  0.80125  0.57671     C
O      0.15004  0.94394  0.46652     O
H      0.15387   0.8686  0.89513     H
C      0.15616   0.6797  0.87073     C
C      0.15619  0.78888  0.74837     C
Zn     0.15687  0.81103   0.4398    Zn
O       0.1569  0.81417  0.49292     O
C      0.16174  0.78928  0.70686     C
C      0.18299  0.85492  0.77025     C
C      0.18326  0.13224  0.12886     C
C       0.1848  0.85742  0.81664     C
C      0.18984  0.75095  0.85579     C
H      0.19084  0.66044   0.8848     H
H      0.19283  0.04238  0.37512     H
C      0.19493  0.85545  0.68554     C
H      0.19696  0.04814    0.303     H
C      0.19817   0.0481  0.08493     C
C      0.20086  0.85557  0.64123     C
H      0.20482  0.17738  0.14983     H
C      0.20711  0.86575  0.51318     C
C      0.20823  0.85943  0.55702     C
C      0.21656  0.07515  0.52871     C
C      0.21813  0.92119  0.74851     C
C      0.22294  0.92146  0.70695     C
H      0.22913  0.02437  0.07137     H
C      0.23062    0.109  0.11113     C
O      0.23869  0.02916  0.51953     O
H      0.23993  0.03038  0.17443     H
H      0.24003  0.02594  0.24657     H
C      0.24159  0.08495  0.36089     C
H      0.24223  0.97333  0.76396     H
C      0.24456  0.08776  0.31933     C
O      0.24692  0.07339  0.44426     O
H      0.24805  0.78323  0.86151     H
H      0.24862   0.9737  0.69169     H
O      0.24934  0.85425  0.42271     O
Zn     0.25114  0.99789  0.47029    Zn
O      0.25466  0.14278  0.51992     O
O      0.25724  0.92283  0.49616     O
C      0.26158  0.91199  0.62141     C
H       0.2632  0.23584  0.08124     H
O      0.26361  0.96652  0.42092     O
H      0.26495  0.98504  0.86661     H
C      0.26512  0.91408  0.57978     C
C      0.26791  0.90149  0.82787     C
C      0.27148  0.07863  0.23226     C
C      0.27239  0.08097  0.19061     C
C      0.28698  0.92118  0.41327     C
C      0.29775  0.96238   0.8541     C
H      0.29819   0.8356  0.78967     H
C      0.29875  0.12988  0.42764     C
C      0.30063  0.13627  0.38374     C
H      0.30645  0.95483  0.63803     H
C      0.30741   0.1411  0.29939     C
C      0.31078  0.14289  0.25485     C
H      0.31182  0.95924   0.5655     H
C      0.31356  0.14725  0.12327     C
C      0.31526  0.14711  0.16973     C
C      0.31754  0.88064  0.81064     C
C      0.32186  0.26243  0.08639     C
O      0.32339  0.31347  0.49757     O
H      0.33446  0.35816  0.05592     H
H      0.34674  0.44308  0.51673     H
Zn     0.34719  0.18262  0.50174    Zn
O      0.34795  0.18119  0.44852     O
H      0.34828  0.14119  0.04487     H
O      0.35145  0.04621  0.47346     O
C      0.35183  0.20923  0.23439     C
C      0.35247   0.1057  0.10538     C
C      0.35394  0.21146  0.19278     C
C      0.35613  0.22701  0.10662     C
H      0.35773  0.84149  0.39656     H
C      0.35938  0.94668  0.39405     C
C      0.36272  0.19099  0.36417     C
C      0.36325   0.3337  0.07143     C
C      0.36568  0.11013  0.06384     C
C      0.36648  0.19289  0.32251     C
C      0.37184  0.99528  0.86562     C
H      0.37397  0.06243  0.16053     H
C      0.37838  0.06565  0.12847     C
H      0.38057  0.05858  0.38742     H
H      0.38128  0.26046  0.25034     H
C      0.38172  0.33116  0.51451     C
H      0.38506  0.26483  0.17947     H
C      0.38914  0.89891  0.38867     C
O      0.39051  0.13264  0.52013     O
C      0.39141   0.9142  0.82166     C
H      0.39147  1.03882   0.8876     H
C      0.39407  0.08039  0.50262     C
C      0.40052  0.07452  0.04605     C
C      0.40119  0.45854  0.52832     C
C      0.40184  0.02054  0.38368     C
H      0.40426  0.48339  0.07143     H
O      0.40448  0.27867  0.52084     O
H      0.40561  0.96219  0.47773     H
H      0.40857  0.07917  0.01403     H
H      0.40915   0.2315    0.381     H
C        0.413  0.02955  0.11047     C
H      0.41642  0.23435  0.30867     H
C      0.41903  0.97042  0.85011     C
H      0.42132  0.90316  0.08764     H
H      0.42188  0.56756  0.54133     H
C      0.42471  0.03385  0.06907     C
H      0.42667  0.89493  0.80831     H
C      0.42788  0.40772  0.52907     C
H      0.43275  0.00024   0.1293     H
C      0.43389   0.2657   0.1099     C
C      0.44046  0.37193  0.07542     C
C      0.44331  0.99245  0.50152     C
C       0.4441  0.52987  0.54292     C
C      0.44706  0.05704  0.51658     C
C      0.45809  0.49828  0.05911     C
C      0.45934  0.93329  0.06381     C
C      0.46077  0.92526  0.37394     C
H      0.46297  0.24064  0.12458     H
H      0.46589  0.63569  0.59966     H
C      0.46608  0.00014  0.05008     C
C       0.4735  0.04703  0.36967     C
C      0.47501   0.3368  0.09505     C
H       0.4773  0.91138   0.5077     H
H      0.47837  0.60702  0.04508     H
H      0.48216  0.88725  0.36986     H
C       0.4851  0.44761  0.05884     C
C      0.48534  0.96373  0.51846     C
H      0.49429  0.89507  0.86352     H
C      0.49597  1.00025  0.86453     C
C      0.49742  0.09502  0.54728     C
H       0.4976  0.85436  0.05906     H
C      0.49902  0.43054  0.54435     C
C      0.50097  0.56959  0.04434     C
H      0.50228  0.14565  0.55916     H
C      0.50254    0.905  0.04721     C
C      0.50397  -0.0001  0.36466     C
H      0.50567  0.10511  0.36363     H
C       0.5148  0.55247  0.55895     C
C      0.51481  0.03639  0.01847     C
H      0.51773  0.11287  0.86972     H
H      0.52164  0.39313  0.54504     H
H      0.52268  0.08871   0.0077     H
C      0.52501  0.66331  0.59525     C
C      0.52646  0.95314  0.86957     C
C      0.53407      1.0  0.55003     C
H      0.53412  0.36448  0.09948     H
H      0.53722  0.75954  0.62484     H
C      0.53914  0.07488  0.87386     C
C      0.54084  0.06686  0.56379     C
C      0.54186  0.50183  0.55915     C
C      0.55273  0.94277  0.01638     C
C       0.5558   0.4702  0.04281     C
C      0.55676  0.00753  0.00148     C
C      0.55947  0.62815  0.57555     C
C      0.56622  0.73438  0.61016     C
H      0.56724  0.99963  0.62922     H
C      0.57211  0.59237  0.02903     C
H      0.57317  0.10512  0.30838     H
C      0.57533   0.9662  0.56895     C
H        0.578   0.4325  0.04121     H
H      0.57884  0.09692  0.58762     H
C      0.58085  0.02968   0.3502     C
H      0.58323  0.76607  0.80938     H
C      0.58706  0.97044  0.61034     C
H      0.59134  0.92088  0.51387     H
H      0.59148   0.7694  0.88159     H
H      0.59455  0.03778 -0.02231     H
O      0.59549  0.72134  0.02089     O
H      0.59572  0.51672  0.57143     H
C      0.59804  0.97963  0.88372     C
C      0.59874  0.54154  0.02826     C
C      0.59946   0.9255  0.54588     C
C      0.60549  0.91888  0.00229     C
H      0.60833 -0.03883  0.38761     H
C      0.60847  0.08587  0.32173     C
O      0.60912  0.86701  0.02026     O
C      0.61062  0.10121  0.88874     C
H      0.61371  0.73195  0.68045     H
C      0.61831  0.66893  0.01451     C
H      0.61837  0.73831  0.75161     H
H      0.61954  0.94172  0.88728     H
C      0.62183  0.93449  0.62828     C
H      0.62651  0.93791  0.66033     H
C      0.62801  0.00475  0.36566     C
C      0.63344  0.80757  0.82297     C
C      0.63434   0.8899  0.56363     C
C      0.63667  0.66635  0.57151     C
C      0.63776  0.80953  0.86455     C
C       0.6403  0.05345  0.89426     C
H      0.64215  0.15871  0.89648     H
C      0.64394  0.77308  0.60673     C
C      0.64434  0.78547  0.69374     C
C      0.64735  0.78909   0.7352     C
C      0.64762   0.8944  0.60517     C
O      0.64785  0.95215  0.97291     O
H      0.65182  0.85891  0.54464     H
O       0.6524  0.81844  0.94864     O
Zn     0.65271  0.81726  0.00192    Zn
H       0.6532  0.55699  0.01668     H
H      0.66542   0.6419  0.55596     H
O      0.67668  0.68667  0.99759     O
C       0.6781  0.73763  0.58644     C
C      0.68233  0.11938  0.31068     C
C      0.68475  0.85314  0.66939     C
C      0.68656  0.85298  0.62306     C
C      0.68866  0.85615  0.75507     C
H      0.68867  0.04144  0.06548     H
C      0.69237  0.85894  0.79963     C
H      0.69368  0.04562  0.13802     H
C      0.70013  0.86387  0.88392     C
H      0.70167  0.16439  0.28968     H
C      0.70178  0.86957  0.92781     C
C       0.7021  0.03762  0.35414     C
C      0.71273  0.07908  0.91347     C
C      0.72758  0.91856  0.69061     C
C      0.72804  0.92024  0.73226     C
C      0.73196  0.09852  0.32791     C
H      0.73486  0.01493  0.36664     H
C       0.7354  0.08635  0.07986     C
O      0.73637  0.03371  0.92074     O
H      0.73673  0.76425  0.58116     H
C      0.73867  0.08848  0.12148     C
O      0.74303  0.07617  0.99646     O
O      0.74499  0.85736  0.02039     O
Zn     0.74912  0.00187  0.96994    Zn
O      0.75023   0.1459  0.92313     O
H      0.75141   0.0264  0.19173     H
H       0.7519  0.21681  0.36152     H
O      0.75353  0.92582  0.94451     O
C      0.75547   0.9125  0.81938     C
H      0.75773  0.02668  0.26403     H
C       0.7589  0.91547  0.86095     C
H      0.75954  0.97288  0.74659     H
H      0.76031  0.96941  0.67471     H
O      0.76122  0.97092  0.01936     O
C      0.76943  0.89115  0.61096     C
H      0.77098  0.97572  0.57115     H
C      0.77709  0.07864  0.20701     C
C      0.78184  0.07884  0.24857     C
C      0.78322   0.9251  0.02886     C
C      0.79245  0.14069  0.05712     C
C       0.7932  0.13363  0.01331     C
H      0.79495  0.82262  0.64966     H
C       0.7993  0.14482  0.14136     C
C      0.80195  0.95203  0.58476     C
H      0.80297  0.95191  0.80289     H
C      0.80513  0.14473  0.18564     C
H      0.80775  0.95834  0.87502     H
H      0.80913   0.3396  0.38479     H
C      0.81012  0.24906  0.35582     C
C      0.81509  0.14255   0.3167     C
C      0.81667  0.86782  0.62874     C
C      0.81695  0.14508  0.27034     C
C       0.8383  0.21082    0.207     C
Zn     0.84293  0.18873  0.93992    Zn
O      0.84315   0.1854  0.99296     O
C       0.8438  0.21115  0.24849     C
C      0.84381  0.32033  0.37073     C
H      0.84611  0.13141  0.39515     H
O      0.84941  0.05459  0.96612     O
C      0.85078  0.22136  0.33474     C
C      0.85115  0.19915  0.07686     C
C      0.85432  0.95164  0.04989     C
C      0.85486  0.20082  0.11848     C
H      0.85488  0.84757  0.04864     H
H      0.85834  0.26284   0.1918     H
C      0.85938  0.10583  0.33391     C
H      0.86686  0.26391  0.26292     H
C      0.86925  0.10613  0.37563     C
H      0.87268  0.06281  0.05665     H
C       0.8768   0.9848  0.57524     C
H      0.87947  0.41084  0.43582     H
O      0.88442  0.28507  0.92058     O
C      0.88514  0.90516   0.0563     C
C      0.89016  0.08681  0.93618     C
O      0.89031  0.14263  0.92034     O
C      0.89172  0.90148  0.61966     C
H      0.89304  0.07601   0.2779     H
C      0.89358  0.07447  0.31006     C
C        0.895  0.02571  0.06079     C
H      0.89554  0.24267  0.06023     H
H      0.89845  1.02913  0.55374     H
H      0.90263  0.24492  0.13257     H
H      0.90501  0.38563  0.87001     H
C      0.90651  0.07221  0.39289     C
H      0.90995  0.07178  0.42511     H
H      0.91014 -0.02363  0.96634     H
C      0.92029  0.36586  0.36768     C
C      0.92255  0.95976  0.59239     C
C      0.92556  0.45486  0.42053     C
H      0.92562  0.88163   0.6341     H
C      0.92773  0.26774  0.33129     C
H      0.92994  0.53405  0.46287     H
C      0.93114  0.04069   0.3274     C
C      0.93751  0.03845  0.36905     C
C       0.9391  0.05944  0.92055     C
C      0.94109     -0.0  0.93927     C
H      0.94599  0.91697  0.34299     H
C       0.9513  0.34007  0.93531     C
C      0.95241  0.42961  0.88447     C
C      0.95511  0.52563  0.43642     C
C      0.95528  0.44095  0.38574     C
H      0.95656  0.01759  0.30794     H
C      0.95685  0.93328  0.07121     C
H      0.95861  0.50821  0.84116     H
H      0.96139  0.24878  0.31567     H
C      0.96201  0.33841  0.34778     C
C      0.96649  0.05377  0.07552     C
C      0.97796  0.94158  0.36964     C
C      0.97826   0.0031  0.38747     C
H      0.97872   0.9211  0.93718     H
H      0.97963  0.89641  0.07516     H
H      0.98093  0.13545  0.87094     H
C      0.98097  0.08922  0.88585     C
C      0.98135  0.96878  0.92271     C
O      0.98232  0.32598  0.96216     O
C      0.98283  0.50022   0.8681     C
C      0.98343  0.41559  0.91857     C
H      0.99736  0.11183  0.08174     H
C      1.00121  0.99188  0.58034     C
H      1.02134  0.37089  0.34537     H
