data_I
_chemical_name_common  '/home/zhangsd/repos/MofS-CGCNN/ML/data/TSD/clean_cifs/VEZMIY_clean'
_cell_length_a 20.60900
_cell_length_b 20.60900
_cell_length_c 28.31400
_cell_angle_alpha 90.00000
_cell_angle_beta  90.00000
_cell_angle_gamma 120.00000
_space_group_name_H-M_alt      'P 1'


loop_
_space_group_symop_operation_xyz
  'x, y, z' 

loop_
_atom_site_label
_atom_site_fract_x
_atom_site_fract_y
_atom_site_fract_z
_atom_site_type_symbol
Cd     0.00113  0.76915  0.83161    Cd
H       0.0023   0.0466  0.96667     H
O       0.0046   0.6026   0.1931     O
O       0.0054   0.8194  0.90597     O
H       0.0054   0.8968  0.97777     H
C       0.0078   0.0817  0.98927     C
C       0.0083    0.154  0.69163     C
C       0.0083   0.2021  0.65623     C
O       0.0098   0.1667  0.26543     O
H       0.0126   0.0822  0.19723     H
O       0.0174   0.5779   0.1185     O
C       0.0205   0.1829  0.05757     C
O       0.0234   0.3881   0.9487     O
C       0.0248   0.8284  0.51627     C
H        0.025    0.216  0.07667     H
O       0.0269   0.4532   0.0111     O
C       0.0305   0.8809  0.48347     C
H        0.034   0.7998  0.09083     H
C       0.0349   0.8303  0.11533     C
C       0.0366   0.9237  0.18663     C
H       0.0374   0.9552  0.21043     H
H       0.0382   0.1739  0.71833     H
C       0.0392   0.9452  0.69433     C
O       0.0402   0.7249  0.53827     O
H       0.0443   0.9977  0.63333     H
H       0.0448   0.0822  0.54377     H
C       0.0451   0.6053   0.1583     C
C       0.0464   0.1254  0.48067     C
H       0.0466   0.0443      0.8     H
O       0.0506    0.349  0.36777     O
C        0.052   0.2864  0.66193     C
C       0.0544   0.8857  0.76973     C
C       0.0548    0.094  0.02767     C
O       0.0566    0.326  0.62803     O
C       0.0585   0.1461  0.06247     C
C       0.0587   0.7792  0.51087     C
C       0.0589   0.4413   0.9771     C
K      0.05898  0.48278  0.53353     K
C       0.0594   0.1907  0.40257     C
H        0.061   0.8908  0.45717     H
H       0.0696   0.9874   0.8639     H
O       0.0734   0.7319  0.79033     O
C       0.0739   0.9922  0.65593     C
C       0.0763   0.1129  0.51997     C
K      0.07781  0.27086  0.20335     K
C       0.0785   0.9072  0.11143     C
C        0.079   0.9536  0.14733     C
C       0.0817   0.0739   0.8226     C
H       0.0822   0.0374   0.3771     H
H       0.0822   0.0696  0.03057     H
O       0.0844   0.3142  0.70113     O
C       0.0876   0.9415  0.72913     C
Cd     0.09013  0.66589  0.49144    Cd
O       0.0921   0.8947  0.80443     O
C       0.0928   0.1713  0.44477     C
C        0.094   0.0392    0.861     C
C        0.095   0.3841  0.33317     C
O       0.0989     0.79  0.47437     O
O       0.1007    0.353  0.29717     O
H       0.1009   0.4746  0.40267     H
O       0.1013   0.2185  0.36697     O
H       0.1032   0.1086   0.3111     H
O       0.1053   0.1974  0.13777     O
H       0.1086   0.0054  0.14443     H
H       0.1092   0.1702   0.7905     H
Cd     0.11066  0.44366  0.65822    Cd
C       0.1129   0.0366   0.3533     C
C       0.1143   0.1687  0.10307     C
O       0.1172   0.8987  0.03363     O
C       0.1191   0.1496   0.8168     C
C       0.1199    0.739  0.81913     C
H       0.1201   0.6562  0.74563     H
O       0.1222   0.5632  0.69133     O
O       0.1248   0.5807  0.45967     O
C       0.1254    0.079    0.314     C
C       0.1272    0.649   0.1643     C
H       0.1274   0.6888     0.23     H
O        0.129   0.7727  0.85713     O
C       0.1298   0.5035  0.37737     C
C       0.1313   0.9406  0.06923     C
H       0.1357   0.9618    0.385     H
C       0.1372   0.4672  0.33787     C
O       0.1393   0.6477  0.56437     O
C       0.1433   0.4894   0.9706     C
C       0.1457   0.9917   0.3583     C
C       0.1459   0.6151  0.42087     C
C       0.1461   0.0876   0.8958     C
K      0.14799  0.39516   0.7855     K
H       0.1485   0.4441   0.9097     H
C       0.1496   0.0305  0.65013     C
O       0.1502   0.6784  0.41677     O
C       0.1505    0.655  0.76943     C
C        0.154   0.1457  0.52497     C
H       0.1568   0.6269   0.1004     H
O       0.1569   0.9902   0.9321     O
C        0.159   0.6898   0.2063     C
C       0.1603   0.5581  0.72443     C
H       0.1623   0.5508   0.0288     H
C       0.1624   0.9795  0.72423     C
C       0.1637   0.5804  0.38047     C
C       0.1638   0.6966  0.80953     C
O       0.1667   0.1569  0.09877     O
C       0.1687   0.0544   0.9364     C
O       0.1691   0.5047  0.58943     O
C       0.1697   0.2046  0.44867     C
H       0.1702    0.061  0.62383     H
C       0.1713   0.0785   0.2781     C
C       0.1716   0.1964   0.8496     C
H       0.1739   0.1357  0.55167     H
C       0.1762    0.652   0.1288     C
C       0.1777    0.477   0.9335     C
O       0.1785   0.5069  0.72333     O
O       0.1806    0.186   0.2393     O
C       0.1812   0.5104  0.30087     C
C       0.1829   0.1624   0.8909     C
C       0.1838   0.6109  0.76503     C
H       0.1842   0.4875  0.27327     H
C       0.1856   0.5414   0.0037     C
O        0.186   0.0054  0.07263     O
C       0.1907   0.1313   0.2359     C
H        0.191    0.975  0.74333     H
K      0.19305  0.92219  0.87002     K
C       0.1938   0.9917   0.3229     C
C       0.1964   0.0248  0.68293     C
O       0.1974   0.0921   0.9711     O
H       0.2002   0.2342  0.42417     H
C       0.2016   0.7105  0.55777     C
C       0.2021   0.1938  0.48957     C
C       0.2046   0.0349    0.282     C
C       0.2087    0.623  0.34337     C
O         0.21   0.3089   0.8077     O
O       0.2142   0.7484  0.52007     O
H        0.216    0.191     0.91     H
C        0.217   0.7038  0.84263     C
O       0.2185   0.1172   0.2003     O
C         0.22   0.4857  0.58953     C
C       0.2208   0.2795   0.8442     C
C       0.2215   0.5888  0.30477     C
O       0.2242    0.774   0.2903     O
O        0.226   0.4502  0.62363     O
O       0.2273   0.3563  0.19047     O
O       0.2298   0.9156   0.3678     O
H       0.2303   0.7375  0.86753     H
H       0.2305   0.6749  0.34417     H
Cd     0.23085  0.23198  0.16494    Cd
Cd     0.23198  0.00113  0.99828    Cd
H       0.2342    0.034   0.2575     H
C       0.2344    0.948   0.3286     C
C       0.2347   0.7306    0.213     C
H        0.235   0.6493  0.62987     H
C       0.2355   0.6142  0.79743     C
H       0.2365   0.5736  0.51323     H
K      0.24717  0.85201  0.45217     K
C       0.2504   0.6586  0.83743     C
O       0.2516   0.4658   0.8534     O
O       0.2523   0.8993  0.96383     O
C       0.2533   0.6919   0.1356     C
H       0.2563   0.6176  0.28177     H
C       0.2563   0.7434  0.59677     C
C       0.2566   0.5129   0.9301     C
H       0.2599   0.5871  0.79253     H
C        0.261   0.3809  0.15247     C
H       0.2625   0.4928  0.20087     H
C       0.2641   0.5812   0.0003     C
C       0.2645   0.7013  0.63077     C
C       0.2657     0.78   0.2562     C
C       0.2658   0.5512  0.50973     C
O       0.2681   0.3415  0.12367     O
C       0.2694   0.5041  0.54633     C
O       0.2694   0.9434   0.2947     O
K      0.27086  0.19305  0.03669     K
O       0.2751   0.3153   0.8716     O
C       0.2795   0.0587  0.67753     C
H       0.2823   0.6587  0.86073     H
H       0.2844   0.6904   0.1124     H
C       0.2854   0.7342   0.1764     C
C       0.2864   0.2344  0.49527     C
C       0.2891    0.905  0.99983     C
C       0.2895   0.4911   0.8911     C
H       0.2927   0.6189   0.0218     H
H       0.2956   0.8515  0.57637     H
C       0.2962   0.5132  0.17597     C
O       0.2984   0.9494  0.03443     O
C       0.2987   0.5632   0.9641     C
C       0.2993   0.8223  0.60017     C
H       0.3033   0.8158  0.93993     H
C       0.3034   0.4672  0.14287     C
C       0.3081   0.5614  0.46893     C
O       0.3089   0.0989  0.64103     O
H       0.3096    0.594  0.44573     H
C       0.3102   0.4692  0.53963     C
H       0.3112   0.4386  0.56333     H
O       0.3142   0.2298  0.53447     O
O       0.3153   0.0402  0.70493     O
C       0.3171   0.7359  0.66697     C
O       0.3216   0.4718   0.7501     O
H       0.3251   0.5556   0.6775     H
O        0.326   0.2694  0.46137     O
H       0.3262   0.7073  0.68847     H
H       0.3272   0.7401   0.4592     H
O       0.3284   0.8215     0.39     O
C       0.3292   0.8188  0.96753     C
C         0.33   0.8628  0.00453     C
Cd       0.333  0.88934  0.32489    Cd
Cd     0.33411  0.42424  0.82477    Cd
O       0.3356   0.8309   0.2561     O
H       0.3371   0.7635   0.1799     H
H       0.3413   0.6236  0.19407     H
C       0.3414   0.5918  0.17077     C
O       0.3415   0.0734    0.957     O
H       0.3438   0.4639  0.07897     H
C        0.345   0.4955  0.10277     C
C       0.3461   0.8567  0.63727     C
C        0.348   0.5242  0.46213     C
O        0.349   0.2984   0.2011     O
H       0.3507   0.5857   0.9632     H
C        0.351   0.4782  0.49763     C
O       0.3523   0.4916   0.8977     O
O        0.353   0.2523   0.1305     O
C       0.3558   0.8144  0.67037     C
O       0.3563    0.129   0.0238     O
H       0.3613   0.7437  0.94843     H
O       0.3647   0.9766  0.61537     O
C       0.3673   0.7785  0.97143     C
H       0.3731   0.5299  0.43373     H
C       0.3737   0.8702  0.04403     C
H       0.3737   0.8991  0.06933     H
H       0.3764   0.7177   0.5274     H
C        0.377   0.5857   0.6767     C
C       0.3787   0.7645   0.4641     C
C       0.3809   0.1199   0.9858     C
H       0.3811   0.6738  0.35513     H
H       0.3824   0.6387   0.6151     H
C       0.3824   0.9411  0.64377     C
C       0.3841   0.2891   0.1665     C
C       0.3849   0.5308   0.7542     C
C       0.3858   0.6213  0.13077     C
O       0.3881   0.3647  0.78203     O
H       0.3885   0.8377  0.69547     H
C       0.3891   0.5729  0.09837     C
C       0.3947   0.4398  0.49163     C
K      0.39516  0.24717  0.61884     K
O       0.3974    0.402  0.52643     O
C       0.3978   0.8397   0.3911     C
O        0.402   0.0046  0.35977     O
H        0.406   0.7156  0.77907     H
C       0.4082   0.7496   0.5041     C
C       0.4112   0.6327   0.6381     C
H       0.4129   0.6728  0.12587     H
H       0.4143    0.765  0.29653     H
C       0.4143   0.7913  0.01003     C
C       0.4167   0.8363  0.04713     C
C       0.4188   0.6829  0.33363     C
O       0.4193   0.5441    0.793     O
C       0.4196   0.5833   0.7138     C
O       0.4221   0.4395  0.45183     O
K       0.4238  0.94102  0.20019     K
Cd     0.42424  0.09013   0.6581    Cd
O       0.4263   0.9731  0.67777     O
H       0.4264   0.6629  0.84657     H
C       0.4271   0.8162   0.4317     C
O       0.4368    0.559  0.02467     O
C       0.4368   0.7355  0.29743     C
H       0.4386   0.1274  0.39667     H
C       0.4386   0.7467  0.80227     C
O       0.4395   0.0174  0.28517     O
C       0.4398   0.0451  0.32497     C
O        0.441   0.8778    0.358     O
C       0.4413   0.3824  0.81043     C
C       0.4419   0.6022  0.05777     C
Cd     0.44366    0.333  0.49156    Cd
H       0.4441   0.2956  0.74303     H
H       0.4444   0.7695  0.01083     H
C       0.4488   0.7146  0.84307     C
H       0.4492   0.6115  0.36213     H
O       0.4502   0.2242  0.45697     O
O       0.4532   0.4263  0.84443     O
O       0.4559   0.8752  0.12633     O
C       0.4586   0.6442  0.33703     C
H       0.4639   0.1201   0.9123     H
O       0.4658   0.2142  0.68673     O
C       0.4672   0.1638   0.9762     C
C       0.4672     0.33   0.1712     C
C       0.4692    0.159  0.37297     C
C       0.4692   0.8541  0.08753     C
H       0.4701   0.8432  0.76707     H
O       0.4718   0.1502  0.58343     O
H       0.4746   0.3737    0.236     H
C       0.4758   0.8238  0.79547     C
C        0.477   0.2993  0.76683     C
C       0.4782   0.1272  0.33097     C
K      0.48278   0.4238  0.36686     K
C       0.4857   0.2657  0.42287     C
C       0.4868    0.783   0.5093     C
C       0.4871   0.7437  0.26343     C
H       0.4875   0.3033   0.1066     H
C       0.4894   0.3461  0.80393     C
C       0.4896   0.6708   0.6342     C
C       0.4911   0.2016  0.72443     C
O       0.4916   0.1393  0.73103     O
H       0.4928   0.2303   0.0342     H
O       0.4931   0.6716  0.05667     O
O       0.4953   0.6644  0.92277     O
C       0.4955   0.1505   0.9361     C
C       0.4959   0.7653  0.87967     C
C       0.4965   0.6263   0.7107     C
C       0.5035   0.3737   0.2107     C
C       0.5041   0.2347  0.37967     C
C       0.5045   0.8495   0.4361     C
O       0.5047   0.3356  0.42277     O
O       0.5069   0.3284  0.55667     O
H       0.5072   0.7697   0.5342     H
O       0.5084   0.8607  0.23103     O
C       0.5089   0.7984  0.22443     C
C       0.5104   0.3292   0.1342     C
C       0.5106   0.6539  0.30393     C
H       0.5125   0.6967   0.6066     H
C       0.5129   0.2563  0.76343     C
C       0.5132    0.217   0.0093     C
C       0.5143   0.7343  0.92287     C
K      0.51722   0.5762  0.86686     K
C       0.5218   0.8728  0.83097     C
C        0.523   0.7007  0.26683     C
C       0.5242   0.1762  0.29547     C
H       0.5254   0.6263    0.736     H
O       0.5282   0.8498  0.08343     O
H       0.5299   0.1568  0.26707     H
C       0.5308   0.1459  0.58753     C
C       0.5308    0.841  0.87297     C
C       0.5328     0.67   0.6712     C
C       0.5328   0.8362   0.4762     C
O       0.5342   0.7858  0.18673     O
H       0.5361   0.8799   0.4123     H
C       0.5414   0.3558  0.83703     C
O       0.5441   0.1248  0.62633     O
O       0.5468   0.5737  0.34443     O
O       0.5498   0.7758  0.95697     O
H       0.5508   0.3885  0.86213     H
C       0.5512   0.2854  0.34307     C
H       0.5556   0.2305  0.51083     H
H       0.5559   0.7044  0.24303     H
Cd     0.55634    0.667  0.99156    Cd
C       0.5581   0.3978  0.55777     C
C       0.5587   0.6176  0.31043     C
O        0.559   0.1222    0.858     O
C       0.5602   0.9549  0.82497     C
O       0.5605   0.9826  0.78517     O
C       0.5614   0.2533  0.30227     C
H       0.5614   0.8726  0.89667     H
C       0.5632   0.2645  0.79743     C
O       0.5632    0.441  0.52467     O
C       0.5729   0.1838   0.9317     C
H       0.5736   0.3371  0.34657     H
O       0.5737   0.0269  0.17777     O
Cd     0.57576  0.90987   0.1581    Cd
K       0.5762  0.05898  0.70019     K
O       0.5779   0.5605  0.95183     O
C       0.5804   0.4167   0.2138     C
O       0.5807   0.4559    0.293     O
C       0.5812   0.3171  0.83363     C
C       0.5833   0.1637  0.54713     C
C       0.5857   0.2087  0.51003     C
H       0.5857    0.235  0.79653     H
H       0.5871   0.3272  0.62587     H
C       0.5888   0.3673   0.1381     C
C       0.5918   0.2504   0.0041     C
H        0.594   0.2844  0.27907     H
O        0.598   0.9954  0.85977     O
C       0.6022   0.1603   0.8911     C
O       0.6026    0.598  0.02643     O
K      0.60484  0.75283  0.11884     K
C       0.6053   0.5602  0.99163     C
C       0.6109   0.4271  0.59837     C
H       0.6115   0.1623  0.19547     H
O       0.6119   0.6353  0.28203     O
C       0.6142   0.3787  0.63077     C
C       0.6151   0.4692   0.2542     C
C       0.6159   0.7109   0.6665     C
C       0.6176   0.0589  0.14377     C
H       0.6176   0.3613   0.1151     H
H       0.6189   0.3262  0.85513     H
C       0.6191   0.8801   0.4858     C
C       0.6213   0.2355   0.9641     C
C        0.623   0.4143   0.1767     C
H       0.6236   0.2823   0.0274     H
H       0.6263   0.1009  0.56933     H
C       0.6263   0.1298  0.54403     C
H       0.6269   0.4701  0.93373     H
C       0.6327   0.2215  0.47143     C
O       0.6353   0.0234  0.11537     O
H       0.6387   0.2563  0.44843     H
O       0.6437    0.871   0.5238     O
C       0.6442   0.1856  0.17037     C
O        0.647   0.7477   0.6305     O
O       0.6477   0.5084   0.3977     O
C        0.649   0.5218  0.99763     C
H       0.6493   0.4143   0.4632     H
O        0.651   0.7016   0.7011     O
C        0.652   0.4758  0.96213     C
C       0.6539   0.1433  0.13727     C
C        0.655   0.5045  0.60277     C
H       0.6562   0.5361  0.57897     H
O       0.6585   0.9266    0.457     O
C       0.6586   0.4082  0.67077     C
H       0.6587   0.3764  0.69407     H
H       0.6629   0.2365   0.6799     H
O       0.6644   0.1691   0.7561     O
Cd     0.66589  0.57576  0.32477    Cd
Cd       0.667  0.11066  0.82489    Cd
C         0.67   0.1372  0.50453     C
C       0.6708   0.1812  0.46753     C
O       0.6716   0.1785     0.89     O
H       0.6728   0.2599   0.9592     H
H       0.6738   0.2927  0.18847     H
O        0.674   0.7306  0.96137     O
H       0.6749   0.4444   0.1775     H
O       0.6784   0.5282   0.2501     O
C       0.6829   0.2641  0.16697     C
O       0.6847   0.9598  0.20493     O
O       0.6858   0.7702  0.03447     O
H       0.6888   0.5614  0.06333     H
C       0.6898   0.5308  0.03963     C
H       0.6904    0.406  0.94573     H
O       0.6911   0.9011  0.14103     O
C       0.6919   0.4386  0.96893     C
C       0.6966   0.5328  0.64287     C
H       0.6967   0.1842  0.43993     H
C       0.7007   0.1777  0.10017     C
C       0.7013   0.4368   0.4641     C
O       0.7016   0.0506  0.53443     O
C       0.7038   0.4868  0.67597     C
H       0.7044   0.1485  0.07637     H
H       0.7073   0.3811   0.5218     H
C       0.7105   0.5089   0.3911     C
C       0.7109    0.095  0.49983     C
C       0.7136   0.7656  0.99527     C
C       0.7146   0.2658   0.6764     C
H       0.7156   0.3096   0.6124     H
H       0.7177   0.3413  0.36073     H
C       0.7205   0.9413  0.17753     C
O       0.7249   0.6847   0.3716     O
K      0.72914  0.80695  0.53669     K
O       0.7306   0.0566   0.7947     O
C       0.7306   0.4959  0.04633     C
O       0.7319   0.6585  0.62367     O
C       0.7342   0.4488  0.00973     C
C       0.7343     0.22   0.7562     C
C       0.7355   0.2987  0.13077     C
C       0.7359   0.4188   0.5003     C
H       0.7375   0.5072  0.70087     H
C        0.739   0.6191  0.65247     C
H       0.7401   0.4129  0.29253     H
C       0.7434   0.4871   0.4301     C
C       0.7437   0.2566  0.09677     C
H       0.7437   0.3824  0.78177     H
C       0.7467   0.3081   0.6356     C
O       0.7477   0.1007  0.46383     O
O       0.7484   0.5342   0.3534     O
C       0.7496   0.3414  0.33743     C
K      0.75283  0.14799  0.95217     K
H       0.7635   0.4264  0.01323     H
C       0.7645   0.3858  0.29743     C
H        0.765   0.3507  0.12987     H
C       0.7653   0.2694    0.713     C
C       0.7656    0.052   0.8286     C
H       0.7658    0.966   0.7575     H
Cd     0.76802  0.99887  0.49828    Cd
Cd     0.76915  0.76802  0.66494    Cd
H       0.7695   0.3251  0.84417     H
H       0.7697   0.2625  0.36753     H
O       0.7702   0.0844   0.8678     O
O       0.7727   0.6437  0.69047     O
O        0.774   0.5498  0.12363     O
O       0.7758    0.226   0.7903     O
C       0.7785   0.4112  0.80477     C
C       0.7792   0.7205   0.3442     C
C         0.78   0.5143  0.08953     C
O       0.7815   0.8828   0.7003     O
C        0.783   0.2962  0.34263     C
H        0.784    0.809     0.41     H
O       0.7858   0.2516  0.02007     O
O         0.79   0.6911   0.3077     O
C       0.7913    0.377  0.84337     C
C       0.7954   0.9651    0.782     C
C       0.7979   0.8062  0.98957     C
C       0.7984   0.2895  0.05777     C
H       0.7998   0.7658  0.92417     H
O       0.8026   0.9079   0.4711     O
C       0.8036   0.9752  0.18293     C
C       0.8062   0.0083   0.8229     C
K      0.80695  0.07781  0.37002     K
H        0.809    0.025  0.24333     H
C       0.8093   0.8687   0.7359     C
O        0.814   0.9946  0.57263     O
C       0.8144   0.4586   0.5037     C
H       0.8158   0.5125  0.77327     H
C       0.8162   0.3891  0.26503     C
C       0.8171   0.8376   0.3909     C
C       0.8188   0.4896  0.80087     C
O       0.8194    0.814   0.7393     O
O       0.8215   0.4931  0.22333     O
C       0.8223    0.523   0.4335     C
C       0.8238    0.348   0.6288     C
H       0.8261   0.8643  0.05167     H
C       0.8284   0.8036   0.3496     C
C       0.8287   0.9215   0.7781     C
H       0.8298    0.939  0.12383     H
C       0.8303   0.7954  0.94867     C
O       0.8309   0.4953  0.08943     O
C       0.8313   0.9456   0.4364     C
O       0.8333   0.8431  0.59877     O
C       0.8362   0.3034  0.30953     C
C       0.8363   0.4196  0.88047     C
C       0.8376   0.0205  0.22423     C
H       0.8377   0.4492   0.5288     H
C       0.8397   0.4419  0.22443     C
C        0.841   0.3102   0.7063     C
O       0.8431   0.0098   0.4321     O
H       0.8432   0.3731   0.6004     H
C        0.846   0.8543  0.02497     C
C       0.8495    0.345  0.26943     C
O       0.8498   0.3216  0.91677     O
C       0.8504   0.9695  0.15013     C
H       0.8515   0.5559   0.4097     H
K      0.85201  0.60484   0.2855     K
C       0.8539   0.9124   0.3958     C
C       0.8541   0.3849  0.92087     C
C       0.8543   0.0083   0.8583     C
C       0.8567   0.5106   0.4706     C
O       0.8607   0.3523  0.06437     O
C       0.8628   0.5328  0.83787     C
H       0.8643   0.0382    0.885     H
C       0.8687   0.0594  0.56923     C
C       0.8702   0.4965  0.87737     C
O        0.871   0.2273  0.35713     O
H       0.8726   0.3112     0.73     H
C       0.8728    0.351   0.6643     C
C       0.8746    0.921    0.814     C
O       0.8752   0.4193  0.95967     O
O       0.8778   0.4368  0.19133     O
H       0.8799   0.3438  0.24563     H
C       0.8801    0.261  0.31913     C
C       0.8809   0.8504   0.3168     C
O       0.8828   0.1013  0.53363     O
C       0.8857   0.8313  0.60307     C
C       0.8871   0.9634   0.8533     C
Cd     0.88934  0.55634  0.15822    Cd
H       0.8908   0.8298   0.2905     H
H       0.8914   0.9946  0.64443     H
O       0.8947   0.8026  0.63777     O
H       0.8968   0.8914   0.8111     H
O       0.8987   0.7815  0.86697     O
H       0.8991   0.5254  0.90267     H
O       0.8993    0.647  0.79717     O
O       0.9011     0.21  0.97437     O
C        0.905   0.6159  0.83317     C
C        0.906   0.9608    0.361     C
C       0.9072   0.8287  0.94477     C
O       0.9079   0.1053  0.30443     O
Cd     0.90987  0.33411  0.99144    Cd
C       0.9124   0.0585  0.22913     C
O       0.9156   0.6858  0.20113     O
H       0.9178   0.9304  0.53057     H
H       0.9178   0.9626   0.8771     H
C       0.9183   0.9261   0.3226     C
C        0.921   0.0464  0.64733     C
C       0.9215   0.0928  0.61143     C
K      0.92219  0.72914  0.70335     K
C       0.9237   0.8871  0.01997     C
C       0.9261   0.0078  0.15593     C
O       0.9266   0.2681  0.29033     O
H       0.9304   0.0126   0.3639     H
H        0.939   0.1092  0.95717     H
C       0.9406   0.8093  0.90257     C
K      0.94102  0.51722  0.03353     K
C       0.9411   0.5587   0.4771     C
C       0.9413   0.2208  0.01087     C
C       0.9415   0.8539  0.56247     C
O       0.9434    0.674  0.12803     O
C       0.9452    0.906  0.52767     C
C       0.9456   0.1143  0.26973     C
C        0.948   0.7136  0.16193     C
O       0.9494    0.651  0.86777     O
H       0.9534   0.9557      0.3     H
C       0.9536   0.8746  0.98067     C
C       0.9549   0.3947   0.6583     C
H       0.9552   0.9178  0.04377     H
H       0.9557   0.0023  0.13333     H
O       0.9598   0.2751  0.03827     O
C       0.9608   0.0548  0.19433     C
H       0.9618   0.8261  0.21833     H
H       0.9626   0.0448  0.71043     H
C       0.9634   0.0763  0.68663     C
C       0.9651   0.1697  0.61533     C
H        0.966   0.2002  0.59083     H
C       0.9695   0.1191  0.98347     C
O       0.9731   0.5468   0.5111     O
H        0.975    0.784  0.57667     H
C       0.9752   0.1716  0.01627     C
O       0.9766   0.6119   0.4487     O
C       0.9795   0.8171  0.55757     C
O       0.9826   0.4221   0.6185     O
H       0.9874   0.9178  0.69723     H
O       0.9902   0.8333  0.76543     O
C       0.9917   0.7979  0.15623     C
C       0.9917    0.846  0.19163     C
C       0.9922   0.9183  0.48927     C
H       0.9946   0.1032  0.47777     H
O       0.9946   0.1806  0.40597     O
O       0.9954   0.3974   0.6931     O
H       0.9977   0.9534  0.46667     H
Cd     0.99887  0.23085  0.33161    Cd
