data_I
_chemical_name_common  '/home/zhangsd/repos/MofS-CGCNN/ML/data/TSD/clean_cifs/VEZMOE_clean'
_cell_length_a 20.59090
_cell_length_b 20.59090
_cell_length_c 28.30820
_cell_angle_alpha 90.00000
_cell_angle_beta  90.00000
_cell_angle_gamma 120.00000
_space_group_name_H-M_alt      'P 1'


loop_
_space_group_symop_operation_xyz
  'x, y, z' 

loop_
_atom_site_label
_atom_site_fract_x
_atom_site_fract_y
_atom_site_fract_z
_atom_site_type_symbol
H       0.0003   0.9552  0.34557     H
Cd     0.00301  0.77051  0.98199    Cd
O      0.00333  0.60321  0.62156     O
C       0.0048   0.0798   0.8229     C
O      0.00611  0.81907  0.90687     O
H       0.0065   0.8943  0.83457     H
C       0.0069   0.1532  0.12063     C
C      0.00772  0.20105  0.15587     C
H         0.01   0.0773   0.6144     H
O       0.0105  0.16616  0.54713     O
O      0.01657   0.5794  0.69588     O
C       0.0168   0.1807  0.75477     C
H       0.0226   0.2106  0.73257     H
O      0.02651  0.38914  0.86575     O
C      0.02709  0.82949  0.29462     C
O      0.03036  0.45694  0.80485     O
H       0.0333   0.7994   0.7207     H
C       0.0336   0.8813  0.32818     C
C      0.03513  0.83047  0.69627     C
H       0.0361   0.1732   0.0937     H
H       0.0364   0.9547   0.6017     H
C       0.0369   0.9236  0.62534     C
O      0.03957  0.72377  0.27503     O
C       0.0419   0.9493  0.11733     C
C      0.04354  0.60728  0.65645     C
H       0.0448   0.0451  0.01223     H
H       0.0451   0.0003   0.1789     H
C       0.0452    0.127  0.33178     C
H       0.0453   0.0817  0.26837     H
O       0.0467  0.34749  0.44672     O
C       0.0507   0.0926    0.784     C
C      0.05327  0.28489  0.15007     C
C       0.0547  0.88869  0.04265     C
C      0.05677  0.14332  0.74951     C
K      0.05749  0.48268  0.28061     K
C       0.0578   0.7777  0.30264     C
O      0.05804  0.32445  0.18562     O
C      0.06046  0.19252  0.40961     C
C      0.06215   0.4432  0.83816     C
H       0.0639     0.89  0.35447     H
H       0.0673     0.99  0.94773     H
K      0.07441  0.27197  0.61036     K
C        0.075   0.9952  0.15623     C
C       0.0764   0.1133  0.29201     C
O      0.07647  0.73443   0.0233     O
H       0.0773   0.0673  0.78107     H
C       0.0798    0.075  0.98956     C
C      0.08048  0.90735  0.70062     C
H       0.0817   0.0364  0.43503     H
C       0.0818   0.9548  0.66511     C
O      0.08427   0.3128  0.11149     O
C      0.08655  0.94323  0.08284     C
Cd     0.08737  0.66383  0.32313    Cd
C       0.0903    0.383  0.48026     C
C       0.0926   0.0419  0.95066     C
C      0.09265  0.17313  0.36729     C
O       0.0937  0.89666  0.00771     O
O      0.09696  0.35127  0.51623     O
O      0.09819   0.7881  0.33861     O
H       0.0983   0.4734  0.41157     H
O      0.10031   0.2201  0.44543     O
O      0.10334  0.19704  0.67438     O
H       0.1057   0.1122  0.50123     H
H         0.11   0.1739  0.02113     H
C      0.11131  0.16601  0.70932     C
Cd       0.112  0.44325   0.1556    Cd
H       0.1122   0.0065   0.6679     H
C       0.1133   0.0369  0.45867     C
C       0.1187   0.1523  0.99484     C
H       0.1197   0.6555   0.0657     H
O      0.11979  0.89969  0.77876     O
O      0.12248  0.56213  0.12265     O
O      0.12286  0.57824  0.35486     O
C       0.1247   0.7414  0.99359     C
H       0.1255   0.6859  0.58353     H
C        0.127   0.0818  0.49844     C
C       0.1272  0.64965  0.64984     C
C      0.12722  0.50222  0.43685     C
C      0.13206  0.93954  0.74294     C
C      0.13436  0.46664  0.47659     C
O       0.1353  0.77672  0.95624     O
H       0.1371   0.9639  0.42703     H
O      0.13766  0.64558  0.24962     O
C      0.14332  0.08655  0.91617     C
C      0.14403   0.6138  0.39289     C
C      0.14601   0.4903  0.84364     C
C       0.1463   0.9931  0.45396     C
O      0.14772  0.67693  0.39793     O
K      0.15045  0.39599  0.02815     K
C      0.15212  0.65562  0.04277     C
C       0.1523   0.0336  0.16151     C
H       0.1523   0.4444  0.90473     H
C       0.1532   0.1463   0.2873     C
O      0.15566   0.9895  0.88046     O
H       0.1562   0.6255  0.71233     H
C      0.15751  0.68873   0.6077     C
C      0.16138  0.55788  0.09016     C
C      0.16246  0.58015  0.43393     C
C       0.1639   0.9832   0.0881     C
C      0.16601   0.0547  0.87598     C
O      0.16616  0.15566   0.7138     O
H       0.1666   0.5546  0.78583     H
C       0.1673      0.7  0.00307     C
C      0.16953  0.20466  0.36294     C
O      0.17049  0.50477  0.22448     O
C      0.17051   0.1976  0.96128     C
C      0.17313  0.08048  0.53395     C
H       0.1732   0.1371  0.26037     H
H       0.1739   0.0639   0.1878     H
C       0.1756   0.6518  0.68437     C
O      0.18022  0.50799  0.09014     O
C       0.1804   0.5109  0.51316     C
C       0.1807   0.1639  0.92143     C
O      0.18093  0.18704  0.57353     O
C      0.18121  0.47758    0.881     C
C      0.18472  0.61092   0.0489     C
H       0.1856   0.4883  0.54027     H
O      0.18704  0.00611   0.7402     O
H        0.188   0.9774   0.0659     H
C       0.1896   0.5437   0.8104     C
C      0.19252  0.13206  0.57627     C
C      0.19333  0.99228   0.4892     C
O      0.19704   0.0937  0.84104     O
K      0.19756  0.92559  0.94369     K
C       0.1976  0.02709  0.12795     C
C      0.19764  0.70702   0.2562     C
H       0.2006   0.2339  0.38737     H
C      0.20105  0.19333  0.32254     C
C      0.20466  0.03513   0.5296     C
C       0.2082   0.6229  0.47044     C
H       0.2106    0.188  0.89923     H
O      0.21074   0.7432   0.2944     O
O       0.2119  0.31009  0.00527     O
C       0.2187   0.5886  0.50949     C
C       0.2189   0.7032  0.97036     C
O       0.2201  0.11979  0.61209     O
C      0.22031  0.48551  0.22486     C
C       0.2223   0.2801   0.9693     C
O      0.22267  0.77279  0.52447     O
O      0.22328  0.35858  0.62291     O
O      0.22721  0.44988  0.19114     O
O      0.22853  0.91573  0.44482     O
Cd     0.22949   0.2325  0.64866    Cd
H       0.2314   0.7347   0.9443     H
C      0.23162  0.94673   0.4834     C
H       0.2319   0.6749  0.46887     H
Cd      0.2325  0.00301  0.81532    Cd
H       0.2339   0.0333  0.55403     H
H        0.234   0.6454  0.18467     H
C      0.23434  0.73161  0.60131     C
C       0.2357   0.6137  0.01607     C
H       0.2389    0.573   0.3001     H
K      0.24554  0.84955  0.36148     K
H       0.2516   0.6177  0.53327     H
C       0.2521   0.6589  0.97666     C
C       0.2525   0.6922   0.6781     C
C      0.25411  0.74091  0.21742     C
O      0.25431  0.90304  0.84956     O
O       0.2568  0.46754  0.96106     O
C       0.2586   0.3833  0.66026     C
H       0.2587   0.5851   0.0204     H
C      0.25909   0.5132  0.88408     C
C       0.2624   0.6974  0.18327     C
C       0.2652  0.77969  0.55819     C
H       0.2653   0.4967  0.61097     H
O      0.26557  0.34204  0.68997     O
O      0.26641  0.94196  0.51895     O
C       0.2671   0.5495  0.30393     C
C       0.2673   0.5813  0.81344     C
C      0.26839  0.50273  0.26798     C
K      0.27197  0.19756  0.77703     K
O      0.27623   0.3158  0.94169     O
C       0.2801   0.0578  0.13597     C
C       0.2824   0.7329  0.63726     C
H       0.2841    0.692  0.70153     H
C      0.28489  0.23162  0.31674     C
H       0.2856     0.66   0.9542     H
H       0.2921   0.8477  0.23807     H
C       0.2927   0.9097  0.81359     C
C      0.29298  0.49062  0.92286     C
H        0.296   0.6175  0.79113     H
C      0.29637  0.81879  0.21434     C
C       0.2968   0.5157  0.63703     C
C          0.3   0.4673  0.66974     C
O      0.30079   0.9533  0.78005     O
C       0.3026    0.565  0.84993     C
H       0.3027   0.8144   0.8736     H
C       0.3078   0.5603  0.34477     C
H        0.308   0.5921   0.3682     H
O      0.31009  0.09819  0.17194     O
C      0.31127  0.46878  0.27437     C
O       0.3128  0.22853  0.27816     O
C        0.314   0.7327  0.14678     C
H       0.3141   0.4396   0.2502     H
O       0.3158  0.03957  0.10836     O
H       0.3215    0.704  0.12447     H
O      0.32307  0.47079  0.06459     O
O      0.32445  0.26641  0.35229     O
H       0.3251    0.557  0.13553     H
H       0.3264   0.7413  0.35373     H
O      0.32777  0.81978  0.42347     O
C       0.3305   0.8196  0.84649     C
Cd     0.33125    0.888  0.48893    Cd
C      0.33228  0.86564  0.80992     C
H       0.3341   0.7611  0.63343     H
O      0.33428  0.82951  0.55781     O
Cd     0.33617  0.42353  0.98979    Cd
H         0.34   0.6256  0.62087     H
C       0.3411   0.5932  0.64333     C
O      0.34204  0.07647  0.85663     O
C      0.34429  0.85399  0.17698     C
C      0.34438   0.4965  0.70944     C
H       0.3445   0.4642  0.73237     H
O      0.34749  0.30079  0.61338     O
C       0.3482   0.5238  0.35104     C
C      0.35035  0.47755  0.31651     C
O      0.35127  0.25431  0.68289     O
C       0.3541   0.8104  0.14374     C
O      0.35442  0.49208  0.91628     O
H       0.3546   0.5886  0.85133     H
O      0.35858   0.1353  0.78957     O
O      0.36263  0.97349  0.19909     O
H       0.3661   0.7484   0.8666     H
C       0.3699   0.7813  0.84282     C
H       0.3744   0.7144  0.28753     H
H       0.3745   0.5307    0.379     H
C        0.375  0.87278  0.77018     C
H       0.3751   0.9017   0.7449     H
C       0.3771   0.5853   0.1371     C
C        0.378   0.7643   0.3494     C
C      0.38105  0.93785   0.1715     C
H       0.3823   0.6339  0.19993     H
H       0.3825   0.6785   0.4578     H
C        0.383   0.2927  0.64692     C
C       0.3833   0.1247  0.82692     C
C       0.3862  0.53023  0.05955     C
C       0.3863    0.622  0.68274     C
H        0.388   0.8334  0.11917     H
C      0.38908   0.5738  0.71557     C
O      0.38914  0.36263  0.03242     O
C      0.39272  0.43626  0.32312     C
K      0.39599  0.24554  0.19482     K
C       0.3965  0.83862  0.42349     C
O      0.39679  0.40012  0.28823     O
O      0.40012  0.00333   0.4549     O
C       0.4068   0.7479  0.30999     C
H       0.4079   0.7159  0.03487     H
C       0.4114   0.6301  0.17615     C
H       0.4114    0.766    0.518     H
C       0.4147   0.7918  0.80377     C
H       0.4149   0.6736  0.68707     H
C      0.41769  0.83754  0.76726     C
C       0.4187    0.686  0.48011     C
C      0.41985  0.58231  0.10059     C
O       0.4206  0.43717  0.36255     O
O      0.42176  0.54462  0.02152     O
Cd     0.42354  0.08737  0.15646    Cd
K      0.42519  0.94251  0.61394     K
C       0.4262  0.81528  0.38223     C
O      0.42658  0.96964  0.13819     O
H        0.427   0.6659  0.96677     H
C        0.435   0.7376   0.5166     C
C      0.43626  0.04354  0.48979     C
O      0.43717  0.01657  0.52922     O
O      0.43787  0.56035  0.78932     O
H       0.4396   0.1255  0.41687     H
O      0.43965  0.87752  0.45598     O
C       0.4397   0.7475  0.01144     C
C      0.44212   0.6035  0.75683     C
H        0.443   0.7681   0.8022     H
C       0.4432  0.38105  0.00483     C
Cd     0.44325  0.33125  0.32226    Cd
H       0.4444   0.2921   0.0714     H
H       0.4454    0.612   0.4525     H
O      0.44988  0.22267  0.35781     O
C       0.4505   0.7176   0.9706     C
O      0.45538  0.87714  0.68819     O
C       0.4563   0.6459  0.47707     C
O      0.45694  0.42658  0.97152     O
H       0.4642   0.1197  0.89903     H
C      0.46664  0.33228  0.64325     C
C       0.4673   0.1673   0.8364     C
O      0.46754  0.21074  0.12773     O
C      0.46878  0.15751  0.44104     C
H       0.4693   0.8438  0.04567     H
C      0.46977  0.85597  0.72622     C
O      0.47079  0.14772  0.23126     O
H       0.4734   0.3751  0.57823     H
C       0.4762   0.8244  0.01771     C
C      0.47755   0.1272  0.48318     C
C      0.47758  0.29637  0.04767     C
K      0.48268  0.42519  0.44727     K
C       0.4843   0.7811  0.30369     C
C      0.48551   0.2652  0.39153     C
C       0.4868  0.74589  0.55075     C
H       0.4883   0.3027  0.70693     H
C       0.4891   0.6695  0.17982     C
C       0.4903  0.34429  0.01031     C
C      0.49062  0.19764  0.08953     C
O      0.49201  0.67223  0.75681     O
O      0.49208  0.13766  0.08295     O
O      0.49523  0.66572  0.89115     O
C       0.4965  0.15212   0.8761     C
H       0.4967   0.2314  0.77763     H
C      0.49727  0.76566  0.93465     C
C      0.49778    0.625  0.10351     C
C      0.50222    0.375  0.60351     C
C      0.50273  0.23434  0.43465     C
H       0.5033   0.7686  0.27763     H
C       0.5035  0.84788   0.3761     C
O      0.50477  0.33428  0.39115     O
O      0.50792  0.86234  0.58295     O
O      0.50799  0.32777  0.25681     O
C      0.50938  0.80236  0.58953     C
C       0.5097  0.65571  0.51031     C
C       0.5109   0.3305  0.67982     C
H       0.5117   0.6973  0.20693     H
C       0.5132  0.25411  0.05075     C
C      0.51449   0.7348  0.89153     C
C       0.5157   0.2189  0.80369     C
K      0.51732  0.57481  0.94727     K
C      0.52242  0.70363  0.54767     C
C      0.52245   0.8728  0.98318     C
C       0.5238   0.1756  0.51771     C
H       0.5266   0.6249  0.07823     H
O      0.52921  0.85228  0.73126     O
C      0.53023  0.14403  0.22622     C
H       0.5307   0.1562  0.54567     H
C      0.53122  0.84249  0.94104     C
O      0.53246  0.78926  0.62773     O
C       0.5327   0.8327   0.3364     C
C      0.53336  0.66772  0.14325     C
H       0.5358   0.8803  0.39903     H
O      0.54306  0.57342  0.47152     O
C       0.5437   0.3541  0.97707     C
O      0.54462  0.12286  0.18819     O
C       0.5495   0.2824   0.4706     C
O      0.55012  0.77733  0.85781     O
H       0.5546    0.388   0.9525     H
H       0.5556   0.7079   0.5714     H
Cd     0.55675  0.66875  0.82226    Cd
C       0.5568  0.61895  0.50483     C
H        0.557   0.2319   0.3022     H
C      0.55788   0.3965  0.25683     C
C       0.5603   0.2525  0.51144     C
O      0.56035  0.12248  0.95598     O
H       0.5604   0.8745  0.91687     H
O      0.56213  0.43965  0.28932     O
O      0.56283  0.98343  0.02922     O
C      0.56374  0.95646  0.98979     C
C        0.565   0.2624   0.0166     C
H        0.573   0.3341  0.46677     H
O      0.57342  0.03036  0.63819     O
C       0.5738  0.18472  0.88223     C
K      0.57481  0.05749  0.11394     K
Cd     0.57646  0.91263  0.65646    Cd
O      0.57824  0.45538  0.52152     O
O       0.5794  0.56283  0.86255     O
C      0.58015  0.41769  0.60059     C
C       0.5813    0.314  0.98011     C
C      0.58231  0.16246  0.26726     C
H       0.5851   0.3264  0.18707     H
C       0.5853   0.2082  0.30377     C
H       0.5886    0.234    0.018     H
C       0.5886   0.3699  0.67615     C
H       0.5921   0.2841  0.53487     H
C       0.5932   0.2521  0.80999     C
O      0.59988  0.99667   0.9549     O
O      0.60321  0.59988  0.78823     O
C       0.6035  0.16138  0.92349     C
K      0.60401  0.75446  0.69482     K
C      0.60728  0.56374  0.82312     C
O      0.61086  0.63737  0.53242     O
C      0.61092   0.4262  0.21557     C
H        0.612   0.1666  0.61917     H
C       0.6137    0.378  0.18274     C
C       0.6138  0.46977  0.55955     C
C       0.6167   0.8753  0.32692     C
C        0.617   0.7073  0.14692     C
H       0.6175   0.3215   0.9578     H
H       0.6177   0.3661  0.69993     H
C      0.61895  0.06215   0.6715     C
C        0.622   0.2357   0.8494     C
C       0.6229   0.4147   0.6371     C
H       0.6249   0.0983   0.2449     H
C        0.625  0.12722  0.27018     C
H       0.6255   0.4693    0.879     H
H       0.6256   0.2856  0.78753     H
C       0.6301   0.2187  0.34282     C
H       0.6339   0.2516   0.3666     H
O      0.63737  0.02651  0.69909     O
O      0.64142   0.8647  0.28957     O
H       0.6454   0.4114  0.35133     H
O      0.64558  0.50792  0.41628     O
C       0.6459   0.1896  0.64374     C
O      0.64873  0.74569  0.18289     O
C      0.64965  0.52245  0.81651     C
C       0.6518   0.4762  0.85104     C
O      0.65251  0.69921  0.11338     O
H       0.6555   0.5358  0.23237     H
C      0.65562   0.5035  0.20944     C
C      0.65571  0.14601  0.67698     C
O      0.65796  0.92353  0.35663     O
C       0.6589   0.4068  0.14333     C
H         0.66   0.3744  0.12087     H
Cd     0.66383  0.57646  0.48979    Cd
O      0.66572  0.17049  0.05781     O
H       0.6659   0.2389  0.13343     H
C      0.66772  0.13436  0.30992     C
Cd     0.66875    0.112  0.98893    Cd
C       0.6695   0.1804  0.34649     C
O      0.67223  0.18022  0.92347     O
H       0.6736   0.2587  0.85373     H
H       0.6749    0.443  0.63553     H
O      0.67555  0.73359  0.85229     O
O      0.67693  0.52921  0.56459     O
H       0.6785    0.296  0.62447     H
O       0.6842  0.96043  0.60836     O
H       0.6859   0.5604   0.7502     H
C        0.686   0.2673  0.64678     C
O       0.6872  0.77147  0.77816     O
C      0.68873  0.53122  0.77437     C
O      0.68991  0.90181  0.67194     O
H        0.692   0.4079   0.8682     H
C       0.6922   0.4397  0.84477     C
H       0.6973   0.1856   0.3736     H
C       0.6974    0.435  0.34993     C
O      0.69921   0.0467  0.28005     O
C          0.7   0.5327  0.16974     C
C       0.7032   0.4843  0.13703     C
C      0.70363  0.18121  0.71434     C
H        0.704   0.3825  0.29113     H
C      0.70702  0.50938  0.42286     C
C       0.7073   0.0903  0.31359     C
H       0.7079   0.1523  0.73807     H
H       0.7144     0.34   0.4542     H
C      0.71511  0.76838  0.81674     C
H       0.7159    0.308  0.20153     H
C       0.7176   0.2671  0.13726     C
C       0.7199   0.9422  0.63597     C
O      0.72377   0.6842  0.44169     O
K      0.72803  0.80244  0.27703     K
C      0.73161  0.49727  0.76798     C
C       0.7327   0.4187  0.31344     C
C       0.7329   0.4505  0.80393     C
O      0.73359  0.05804  0.01895     O
O      0.73443  0.65796  0.18997     O
H       0.7347   0.5033  0.11097     H
C       0.7348  0.22031  0.05819     C
C       0.7376   0.3026  0.68327     C
C      0.74091   0.4868  0.38408     C
H       0.7413   0.4149   0.5204     H
C       0.7414   0.6167  0.16026     C
O       0.7432  0.53246  0.46106     O
O      0.74569  0.09696  0.34956     O
C      0.74589  0.25909  0.71742     C
C       0.7475   0.3078   0.1781     C
C       0.7479   0.3411  0.47666     C
H       0.7484   0.3823  0.03327     H
K      0.75446  0.15045  0.86148     K
H       0.7611    0.427   0.8001     H
C       0.7643   0.3863  0.51607     C
C      0.76566  0.26839  0.10131     C
H        0.766   0.3546  0.68467     H
H       0.7661   0.9667  0.05403     H
Cd      0.7675  0.99699  0.31532    Cd
H       0.7681   0.3251  0.96887     H
C      0.76838  0.05327   0.9834     C
H       0.7686   0.2653   0.4443     H
Cd     0.77051   0.7675  0.14866    Cd
O      0.77147  0.08427  0.94482     O
O      0.77279  0.55012  0.69114     O
O      0.77672  0.64142  0.12291     O
O      0.77733  0.22721  0.02447     O
C       0.7777   0.7199   0.4693     C
C      0.77969  0.51449  0.72486     C
O       0.7799  0.88021  0.11209     O
C       0.7811   0.2968  0.47036     C
C       0.7813   0.4114  0.00949     C
O       0.7881  0.68991  0.50527     O
O      0.78926   0.2568   0.7944     O
H       0.7894    0.812  0.39923     H
C       0.7918   0.3771  0.97044     C
C      0.79534  0.96487   0.0296     C
C      0.79895  0.80667  0.82254     C
H       0.7994   0.7661  0.88737     H
C      0.80236  0.29298   0.7562     C
C       0.8024  0.97291  0.62795     C
K      0.80244  0.07441  0.44369     K
O      0.80296   0.9063  0.34104     O
C      0.80667  0.00772   0.9892     C
C      0.80748  0.86794  0.07627     C
C       0.8104   0.4563   0.3104     C
H        0.812   0.0226   0.5659     H
O      0.81296  0.99389   0.2402     O
H       0.8144   0.5117  0.04027     H
C      0.81528  0.38908   0.5489     C
C      0.81879  0.52242    0.381     C
O      0.81907  0.81296  0.07353     O
C       0.8193   0.8361  0.42143     C
C       0.8196   0.4891  0.01316     C
O      0.81978  0.49201  0.59014     O
C       0.8244   0.3482  0.18437     C
H       0.8261   0.9361   0.6878     H
H       0.8268   0.8629  0.76037     H
C      0.82687  0.91952  0.03395     C
C      0.82949   0.8024  0.46128     C
O      0.82951  0.49523  0.72448     O
C      0.83047  0.79534  0.86294     C
C       0.8327      0.3  0.50307     C
H       0.8334   0.4454  0.28583     H
O      0.83384  0.84434   0.2138     O
C      0.83399   0.9453  0.37598     C
C       0.8361   0.0168   0.5881     C
C      0.83754  0.41985  0.93393     C
C      0.83862  0.44212  0.59016     C
C      0.84249  0.31127   0.1077     C
H       0.8438   0.3745  0.21233     H
O      0.84434   0.0105  0.38046     O
C       0.8468   0.8537   0.7873     C
H       0.8477   0.5556  0.40473     H
C       0.8477   0.9664  0.66151     C
C      0.84788  0.34438  0.54277     C
K      0.84955  0.60401  0.52815     K
O      0.85228  0.32307  0.89793     O
C       0.8537   0.0069  0.95396     C
C      0.85399   0.5097  0.34364     C
C      0.85597   0.3862  0.89289     C
C      0.85668  0.91345  0.41617     C
O      0.86234  0.35442  0.74962     O
H       0.8629   0.0361  0.92703     H
O       0.8647  0.22328  0.45624     O
C      0.86564  0.53336  0.97659     C
C      0.86794  0.06046  0.24294     C
C      0.87278  0.49778  0.93685     C
C       0.8728  0.35035  0.14984     C
C        0.873   0.9182  0.99844     C
H       0.8745   0.3141  0.08353     H
C       0.8753   0.2586  0.49359     C
O      0.87714  0.42176  0.85486     O
O      0.87752  0.43787  0.62265     O
O      0.88021  0.10031  0.27876     O
H       0.8803   0.3445   0.5657     H
C       0.8813   0.8477  0.49484     C
C       0.8867   0.9631  0.95867     C
H       0.8878   0.9935   0.1679     H
Cd       0.888  0.55675   0.6556    Cd
C      0.88869  0.83399  0.20932     C
H         0.89   0.8261  0.52113     H
H       0.8943   0.8878  0.00123     H
O      0.89666  0.80296  0.17438     O
O      0.89969   0.7799  0.94543     O
H       0.9017   0.5266  0.91157     H
O      0.90181   0.2119  0.83861     O
O      0.90304  0.64873  0.01623     O
O       0.9063  0.10334  0.50771     O
C      0.90735  0.82687  0.86729     C
C       0.9074   0.9581  0.45066     C
C       0.9097    0.617  0.98026     C
Cd     0.91264  0.33618  0.82313    Cd
C      0.91345  0.05677  0.58284     C
O      0.91573   0.6872  0.61149     O
C       0.9182   0.0452  0.16511     C
H       0.9183   0.9636  0.93503     H
C      0.91952  0.09265  0.20062     C
C       0.9202    0.925  0.48956     C
H       0.9227   0.9327  0.28107     H
O      0.92353  0.26557   0.5233     O
C       0.9236   0.8867  0.79201     C
C        0.925   0.0048  0.65623     C
K      0.92559  0.72803  0.11036     K
H       0.9327     0.01  0.44773     H
H       0.9361     0.11  0.85447     H
C      0.93785   0.5568  0.33816     C
C      0.93954  0.80748  0.90961     C
O      0.94196  0.67555  0.68562     O
C       0.9422   0.2223  0.80264     C
K      0.94251  0.51732  0.78061     K
C      0.94323  0.85668  0.24951     C
C       0.9453  0.11131  0.54265     C
C      0.94673  0.71511  0.65007     C
C       0.9493   0.9074    0.284     C
O       0.9533  0.65251  0.94672     O
H       0.9547   0.9183  0.76837     H
C       0.9548    0.873  0.83178     C
H       0.9549   0.9997   0.6789     H
H       0.9552   0.9549  0.51223     H
C      0.95646  0.39272  0.15645     C
C       0.9581   0.0507  0.61733     C
O      0.96043  0.27623  0.77503     O
C       0.9631   0.0764  0.12534     C
H       0.9636   0.0453   0.1017     H
H       0.9639   0.8268   0.5937     H
C      0.96487  0.16953  0.19627     C
C       0.9664   0.1187  0.82818     C
H       0.9667   0.2006   0.2207     H
O      0.96964  0.54306  0.30485     O
C      0.97291  0.17051  0.79462     C
O      0.97349  0.61086  0.36575     O
H       0.9774   0.7894  0.23257     H
C       0.9832   0.8193  0.25477     C
O      0.98343   0.4206  0.19588     O
O       0.9895  0.83384  0.04713     O
H         0.99   0.9227   0.1144     H
C      0.99228  0.79895  0.65587     C
C       0.9931   0.8468  0.62063     C
H       0.9935   0.1057  0.33457     H
O      0.99389  0.18093  0.40687     O
C       0.9952   0.9202   0.3229     C
O      0.99667  0.39679  0.12156     O
Cd     0.99699  0.22949  0.48199    Cd
H       0.9997   0.0448  0.84557     H
