data_I
_chemical_name_common  '/home/zhangsd/repos/MofS-CGCNN/ML/data/TSD/clean_cifs/VICSIL_clean'
_cell_length_a  9.79700
_cell_length_b 14.14590
_cell_length_c 15.78200
_cell_angle_alpha 106.27300
_cell_angle_beta  100.85500
_cell_angle_gamma 105.96800
_space_group_name_H-M_alt      'P 1'


loop_
_space_group_symop_operation_xyz
  'x, y, z' 

loop_
_atom_site_label
_atom_site_fract_x
_atom_site_fract_y
_atom_site_fract_z
_atom_site_type_symbol
C       0.0105   0.5928   0.0657     C
C       0.0199    0.689   0.1427     C
S      0.02188  0.51739  0.29525     S
H       0.0284   0.3334   0.8137     H
C       0.0478   0.6888   0.8064     C
H       0.0483   0.2717   0.0243     H
N       0.0515   0.2447   0.8925     N
H       0.0554   0.3269   0.2075     H
O       0.0563  0.14982  0.13361     O
O       0.0649  0.41491  0.69197     O
C       0.0739   0.2342   0.9742     C
C       0.0821   0.8738   0.9013     C
O       0.0931   0.5069  0.38124     O
N       0.0994   0.1782   0.8357     N
C       0.1039   0.6109   0.7726     C
H       0.1242   0.7305   0.1759     H
C       0.1252   0.4921   0.9722     C
O       0.1283   0.5432  0.24503     O
C       0.1353   0.5864   0.0375     C
H       0.1374   0.0791   0.2593     H
N       0.1379   0.1631  0.97487     N
C       0.1425   0.7899   0.8604     C
C        0.151   0.1317   0.8889     C
H       0.1641    0.892   0.3447     H
O       0.1664   0.9544  0.96457     O
H       0.1789   0.0103   0.3921     H
H       0.1936   0.0808   0.8687     H
Cu     0.19523  0.10617  0.07275    Cu
C       0.1987   0.0425   0.2388     C
H       0.2139   0.7831   0.3532     H
C       0.2295    0.965   0.3632     C
H       0.2309   0.4234   0.8861     H
N       0.2415    0.039   0.1638     N
N       0.2545   0.9868   0.2809     N
C       0.2559   0.6342   0.7897     C
H       0.2569   0.7435    0.089     H
C       0.2609   0.4822   0.9435     C
C       0.2785   0.6789   0.0763     C
H       0.2889   0.7433   0.4276     H
H       0.2939   0.5818   0.7651     H
C       0.2955   0.8128   0.8793     C
C       0.3073   0.7841   0.3881     C
H       0.3131   0.5462   0.9349     H
H       0.3258   0.4705    0.991     H
C       0.3259    0.977   0.1629     C
H       0.3278   0.1588   0.4421     H
H       0.3349   0.6752   0.0319     H
H       0.3357   0.6775   0.1329     H
N       0.3365   0.9429   0.2324     N
C       0.3517   0.7357   0.8434     C
H       0.3572   0.7539    0.346     H
H       0.3606   0.8809   0.9166     H
C        0.372   0.9829   0.4333     C
H       0.3725   0.9601   0.1168     H
C       0.4044   0.8964   0.4467     C
O       0.4056  0.15136  0.07279     O
O       0.4319   0.2946  0.18827     O
C       0.4338   0.1777   0.4674     C
C       0.4662    0.085   0.4853     C
H       0.4689    0.237   0.5248     H
C       0.4825   0.2357   0.1383     C
H        0.484   0.1965    0.424     H
H        0.516   0.8035    0.576     H
C       0.5175   0.7643   0.8617     C
H       0.5311    0.763   0.4752     H
C       0.5338    0.915   0.5147     C
C       0.5662   0.8223   0.5326     C
O       0.5681   0.7054  0.81173     O
O       0.5944  0.84864  0.92721     O
C       0.5956   0.1036   0.5533     C
H       0.6275   0.0399   0.8832     H
C        0.628   0.0171   0.5667     C
H       0.6394   0.1191   0.0834     H
H       0.6428   0.2461    0.654     H
C       0.6483   0.2643   0.1566     C
N       0.6635   0.0571   0.7676     N
H       0.6643   0.3225   0.8671     H
H       0.6651   0.3248   0.9681     H
H       0.6722   0.8412   0.5579     H
C       0.6741    0.023   0.8371     C
H       0.6742   0.5295    0.009     H
H       0.6869   0.4538   0.0651     H
C       0.6927   0.2159   0.6119     C
C       0.7045   0.1872   0.1207     C
H       0.7061   0.4182   0.2349     H
H       0.7111   0.2567   0.5724     H
C       0.7215   0.3211   0.9237     C
C       0.7391   0.5178   0.0565     C
H       0.7431   0.2565    0.911     H
C       0.7441   0.3658   0.2103     C
N       0.7455   0.0132   0.7191     N
N       0.7585    0.961   0.8362     N
H       0.7691   0.5766   0.1139     H
C       0.7705    0.035   0.6368     C
H       0.7861   0.2169   0.6468     H
C       0.8013   0.9575   0.7612     C
Cu     0.80477  0.89383  0.92725    Cu
H       0.8064   0.9192   0.1313     H
H       0.8211   0.9897   0.6079     H
O       0.8336   0.0456  0.03543     O
H       0.8359    0.108   0.6553     H
C        0.849   0.8683   0.1111     C
C       0.8575   0.2101   0.1396     C
N       0.8621   0.8369  0.02513     N
H       0.8626   0.9209   0.7407     H
C       0.8647   0.4136   0.9625     C
O       0.8717   0.4568  0.75497     O
C       0.8748   0.5079   0.0278     C
H       0.8758   0.2695   0.8241     H
C       0.8961   0.3891   0.2274     C
N       0.9006   0.8218   0.1643     N
O       0.9069   0.4931  0.61876     O
C       0.9179   0.1262   0.0987     C
C       0.9261   0.7658   0.0258     C
O       0.9351  0.58509  0.30803     O
O       0.9437  0.85018  0.86639     O
H       0.9446   0.6731   0.7925     H
N       0.9485   0.7553   0.1075     N
H       0.9517   0.7283   0.9757     H
C       0.9522   0.3112   0.1936     C
H       0.9716   0.6666   0.1863     H
S      0.97812  0.48261  0.70475     S
C       0.9801    0.311   0.8573     C
C       0.9895   0.4072   0.9343     C
