data_I
_chemical_name_common  '/home/zhangsd/repos/MofS-CGCNN/ML/data/TSD/clean_cifs/VIMRAM_clean'
_cell_length_a 24.12670
_cell_length_b 24.12670
_cell_length_c 11.30770
_cell_angle_alpha 90.00000
_cell_angle_beta  90.00000
_cell_angle_gamma 90.00000
_space_group_name_H-M_alt      'P 1'


loop_
_space_group_symop_operation_xyz
  'x, y, z' 

loop_
_atom_site_label
_atom_site_fract_x
_atom_site_fract_y
_atom_site_fract_z
_atom_site_type_symbol
O      0.00253  0.54234   0.0729     O
C      0.00382  0.81152   0.9067     C
C      0.00408   0.3449   0.0697     C
C      0.00639  0.04816   0.6781     C
C       0.0077  0.71208   0.8834     C
Cu      0.0085  0.53754   0.8985    Cu
C      0.00887  0.93063   0.4439     C
C      0.00922  0.24128   0.0535     C
C       0.0134   0.1212   0.3835     C
O      0.01853  0.61605   0.8769     O
S      0.01978  0.12974   0.0158     S
O      0.02079   0.5305   0.7322     O
O       0.0263  0.66679   0.4211     O
C       0.0285    0.101   0.4936     C
H       0.0294   0.2456    0.984     H
O      0.03029  0.89293   0.0414     O
O       0.0305  0.97921   0.2678     O
H       0.0328   0.5461   0.1048     H
C       0.0342  0.81751   0.8059     C
O      0.03538  0.34798   0.9826     O
H       0.0356   0.5847   0.5491     H
C       0.0373  0.71983   0.7802     C
C       0.0373  0.88905   0.6615     C
Cu     0.03754   0.9915   0.1015    Cu
H       0.0386   0.1422   0.3401     H
O      0.04173  0.63361   0.2234     O
O      0.04199   0.0918    0.105     O
O      0.04234  0.99747   0.9271     O
Cu     0.04413  0.40135  0.85268    Cu
H       0.0461   0.9672   0.8952     H
C      0.04816  0.49361   0.6781     C
H       0.0486   0.6892   0.7364     H
C       0.0502   0.7721   0.7415     C
O      0.05268  0.87013   0.7738     O
O      0.05293  0.06115    0.716     O
C      0.05782  0.55987   0.5077     C
C      0.05987  0.94218   0.4923     C
O      0.06115  0.44707    0.716     O
O      0.06161  0.14842   0.9358     O
H       0.0634   0.1087   0.5248     H
S      0.06456  0.64154  0.33984     S
C      0.06937  0.50887   0.5561     C
H       0.0699   0.7767   0.6715     H
C       0.0747  0.92131   0.6016     C
C      0.07869   0.5747   0.3984     C
H       0.0847   0.9644   0.4509     H
O       0.0918  0.45801    0.105     O
Cu     0.09865  0.04413  0.85268    Cu
C        0.101   0.4715   0.4936     C
O      0.10707  0.53029   0.9586     O
H       0.1087   0.4366   0.5248     H
C      0.11095   0.5373   0.3385     C
O      0.11605  0.98147   0.1231     O
O       0.1172   0.6695    0.334     O
C       0.1212   0.4866   0.3835     C
S      0.12974  0.48022   0.0158     S
O      0.12987  0.55268   0.2262     O
O      0.13361  0.95827   0.7766     O
S      0.14154  0.93544  0.66016     S
H       0.1422   0.4614   0.3401     H
O      0.14842  0.43839   0.9358     O
O      0.15202  0.03538   0.9826     O
C       0.1551  0.00408   0.0697     C
O      0.16679   0.9737   0.5789     O
O       0.1695   0.8828    0.666     O
C      0.18249   0.5342   0.1941     C
C      0.18848  0.50382   0.0933     C
H       0.1892   0.9514   0.2636     H
C      0.21208   0.9923   0.1166     C
C      0.21983   0.9627   0.2198     C
H       0.2233   0.5699   0.3285     H
C       0.2279   0.5502   0.2585     C
C      0.24128  0.49078   0.0535     C
H       0.2456   0.4706    0.984     H
H       0.2544   0.0294    0.984     H
C      0.25872  0.00922   0.0535     C
C       0.2721   0.9498   0.2585     C
H       0.2767   0.9301   0.3285     H
C      0.28017   0.5373   0.2198     C
C      0.28792   0.5077   0.1166     C
H       0.3108   0.5486   0.2636     H
C      0.31152  0.99618   0.0933     C
C      0.31751   0.9658   0.1941     C
O       0.3305   0.6172    0.666     O
O      0.33321   0.5263   0.5789     O
C       0.3449  0.49592   0.0697     C
O      0.34798  0.46462   0.9826     O
O      0.35158  0.06161   0.9358     O
H       0.3578   0.0386   0.3401     H
S      0.35846  0.56456  0.66016     S
O      0.36639  0.54173   0.7766     O
O      0.37013  0.94732   0.2262     O
S      0.37026  0.01978   0.0158     S
C       0.3788   0.0134   0.3835     C
O       0.3828   0.8305    0.334     O
O      0.38395  0.51853   0.1231     O
C      0.38905   0.9627   0.3385     C
H       0.3913   0.0634   0.5248     H
O      0.39293  0.96971   0.9586     O
C        0.399   0.0285   0.4936     C
Cu     0.40135  0.45587  0.85268    Cu
O       0.4082  0.04199    0.105     O
H       0.4153   0.5356   0.4509     H
C      0.42131   0.9253   0.3984     C
C       0.4253  0.57869   0.6016     C
H       0.4301   0.7233   0.6715     H
C      0.43063  0.99113   0.5561     C
S      0.43544  0.85846  0.33984     S
H       0.4366   0.3913   0.5248     H
O      0.43839  0.35158   0.9358     O
O      0.43885  0.05293    0.716     O
C      0.44013  0.55782   0.4923     C
C      0.44218  0.94013   0.5077     C
O      0.44707  0.43885    0.716     O
O      0.44732  0.62987   0.7738     O
C       0.4498   0.7279   0.7415     C
H       0.4514   0.8108   0.7364     H
C      0.45184  0.00639   0.6781     C
H       0.4539   0.5328   0.8952     H
Cu     0.45587  0.09865  0.85268    Cu
O      0.45766  0.50253   0.9271     O
O      0.45801   0.4082    0.105     O
O      0.45827  0.86639   0.2234     O
H       0.4614   0.3578   0.3401     H
Cu     0.46246   0.5085   0.1015    Cu
C       0.4627  0.61095   0.6615     C
C       0.4627  0.78017   0.7802     C
H       0.4644   0.9153   0.5491     H
O      0.46462  0.15202   0.9826     O
C       0.4658  0.68249   0.8059     C
H       0.4672   0.9539   0.1048     H
O       0.4695  0.52079   0.2678     O
O      0.46971  0.60707   0.0414     O
H       0.4706   0.2544    0.984     H
C       0.4715    0.399   0.4936     C
O       0.4737  0.83321   0.4211     O
O      0.47921   0.9695   0.7322     O
S      0.48022  0.37026   0.0158     S
O      0.48147  0.88395   0.8769     O
C       0.4866   0.3788   0.3835     C
C      0.49078  0.25872   0.0535     C
C      0.49113  0.56937   0.4439     C
Cu      0.4915  0.96246   0.8985    Cu
C       0.4923  0.78792   0.8834     C
C      0.49361  0.45184   0.6781     C
C      0.49592   0.1551   0.0697     C
C      0.49618  0.68848   0.9067     C
O      0.49747  0.95766   0.0729     O
O      0.50253  0.04234   0.9271     O
C      0.50382  0.31152   0.0933     C
C      0.50408   0.8449   0.9303     C
C      0.50639  0.54816   0.3219     C
C       0.5077  0.21208   0.1166     C
Cu      0.5085  0.03754   0.1015    Cu
C      0.50887  0.43063   0.5561     C
C      0.50922  0.74128   0.9465     C
C       0.5134   0.6212   0.6165     C
O      0.51853  0.11605   0.1231     O
S      0.51978  0.62974   0.9842     S
O      0.52079   0.0305   0.2678     O
O       0.5263  0.16679   0.5789     O
C       0.5285    0.601   0.5064     C
H       0.5294   0.7456    0.016     H
O      0.53029  0.39293   0.9586     O
O       0.5305  0.47921   0.7322     O
H       0.5328   0.0461   0.8952     H
C       0.5342  0.31751   0.1941     C
O      0.53538  0.84798   0.0174     O
H       0.5356   0.0847   0.4509     H
C       0.5373  0.21983   0.2198     C
C       0.5373  0.38905   0.3385     C
Cu     0.53754   0.4915   0.8985    Cu
H       0.5386   0.6422   0.6599     H
O      0.54173  0.13361   0.7766     O
O      0.54199   0.5918    0.895     O
O      0.54234  0.49747   0.0729     O
Cu     0.54413  0.90135  0.14732    Cu
H       0.5461   0.4672   0.1048     H
C      0.54816  0.99361   0.3219     C
H       0.5486   0.1892   0.2636     H
C       0.5502   0.2721   0.2585     C
O      0.55268  0.37013   0.2262     O
O      0.55293  0.56115    0.284     O
C      0.55782  0.05987   0.4923     C
C      0.55987  0.44218   0.5077     C
O      0.56115  0.94707    0.284     O
O      0.56161  0.64842   0.0642     O
H       0.5634   0.6087   0.4752     H
S      0.56456  0.14154  0.66016     S
C      0.56937  0.00887   0.4439     C
H       0.5699   0.2767   0.3285     H
C       0.5747  0.42131   0.3984     C
C      0.57869   0.0747   0.6016     C
H       0.5847   0.4644   0.5491     H
O       0.5918  0.95801    0.895     O
Cu     0.59865  0.54413  0.14732    Cu
C        0.601   0.9715   0.5064     C
O      0.60707  0.03029   0.0414     O
H       0.6087   0.9366   0.4752     H
C      0.61095   0.0373   0.6615     C
O      0.61605  0.48147   0.8769     O
O       0.6172   0.1695    0.666     O
C       0.6212   0.9866   0.6165     C
S      0.62974  0.98022   0.9842     S
O      0.62987  0.05268   0.7738     O
O      0.63361  0.45827   0.2234     O
S      0.64154  0.43544  0.33984     S
H       0.6422   0.9614   0.6599     H
O      0.64842  0.93839   0.0642     O
O      0.65202  0.53538   0.0174     O
C       0.6551  0.50408   0.9303     C
O      0.66679   0.4737   0.4211     O
O       0.6695   0.3828    0.334     O
C      0.68249   0.0342   0.8059     C
C      0.68848  0.00382   0.9067     C
H       0.6892   0.4514   0.7364     H
C      0.71208   0.4923   0.8834     C
C      0.71983   0.4627   0.7802     C
H       0.7233   0.0699   0.6715     H
C       0.7279   0.0502   0.7415     C
C      0.74128  0.99078   0.9465     C
H       0.7456   0.9706    0.016     H
H       0.7544   0.5294    0.016     H
C      0.75872  0.50922   0.9465     C
C       0.7721   0.4498   0.7415     C
H       0.7767   0.4301   0.6715     H
C      0.78017   0.0373   0.7802     C
C      0.78792   0.0077   0.8834     C
H       0.8108   0.0486   0.7364     H
C      0.81152  0.49618   0.9067     C
C      0.81751   0.4658   0.8059     C
O       0.8305   0.1172    0.334     O
O      0.83321   0.0263   0.4211     O
C       0.8449  0.99592   0.9303     C
O      0.84798  0.96462   0.0174     O
O      0.85158  0.56161   0.0642     O
H       0.8578   0.5386   0.6599     H
S      0.85846  0.06456  0.33984     S
O      0.86639  0.04173   0.2234     O
O      0.87013  0.44732   0.7738     O
S      0.87026  0.51978   0.9842     S
C       0.8788   0.5134   0.6165     C
O       0.8828   0.3305    0.666     O
O      0.88395  0.01853   0.8769     O
C      0.88905   0.4627   0.6615     C
H       0.8913   0.5634   0.4752     H
O      0.89293  0.46971   0.0414     O
C        0.899   0.5285   0.5064     C
Cu     0.90135  0.95587  0.14732    Cu
O       0.9082  0.54199    0.895     O
H       0.9153   0.0356   0.5491     H
C      0.92131   0.4253   0.6016     C
C       0.9253  0.07869   0.3984     C
H       0.9301   0.2233   0.3285     H
C      0.93063  0.49113   0.4439     C
S      0.93544  0.35846  0.66016     S
H       0.9366   0.8913   0.4752     H
O      0.93839  0.85158   0.0642     O
O      0.93885  0.55293    0.284     O
C      0.94013  0.05782   0.5077     C
C      0.94218  0.44013   0.4923     C
O      0.94707  0.93885    0.284     O
O      0.94732  0.12987   0.2262     O
C       0.9498   0.2279   0.2585     C
H       0.9514   0.3108   0.2636     H
C      0.95184  0.50639   0.3219     C
H       0.9539   0.0328   0.1048     H
Cu     0.95587  0.59865  0.14732    Cu
O      0.95766  0.00253   0.0729     O
O      0.95801   0.9082    0.895     O
O      0.95827  0.36639   0.7766     O
H       0.9614   0.8578   0.6599     H
Cu     0.96246   0.0085   0.8985    Cu
C       0.9627  0.11095   0.3385     C
C       0.9627  0.28017   0.2198     C
H       0.9644   0.4153   0.4509     H
O      0.96462  0.65202   0.0174     O
C       0.9658  0.18249   0.1941     C
H       0.9672   0.4539   0.8952     H
O       0.9695  0.02079   0.7322     O
O      0.96971  0.10707   0.9586     O
H       0.9706   0.7544    0.016     H
C       0.9715    0.899   0.5064     C
O       0.9737  0.33321   0.5789     O
O      0.97921   0.4695   0.2678     O
S      0.98022  0.87026   0.9842     S
O      0.98147  0.38395   0.1231     O
C       0.9866   0.8788   0.6165     C
C      0.99078  0.75872   0.9465     C
C      0.99113  0.06937   0.5561     C
Cu      0.9915  0.46246   0.1015    Cu
C       0.9923  0.28792   0.1166     C
C      0.99361  0.95184   0.3219     C
C      0.99592   0.6551   0.9303     C
C      0.99618  0.18848   0.0933     C
O      0.99747  0.45766   0.9271     O
