data_I
_chemical_name_common  '/home/zhangsd/repos/MofS-CGCNN/ML/data/TSD/clean_cifs/VITYUU_clean'
_cell_length_a 11.66000
_cell_length_b 12.24500
_cell_length_c 13.56800
_cell_angle_alpha 64.88000
_cell_angle_beta  68.25000
_cell_angle_gamma 88.14000
_space_group_name_H-M_alt      'P 1'


loop_
_space_group_symop_operation_xyz
  'x, y, z' 

loop_
_atom_site_label
_atom_site_fract_x
_atom_site_fract_y
_atom_site_fract_z
_atom_site_type_symbol
Eu         0.0      0.0      0.0    Eu
O       0.0013   0.6996   0.7234     O
C       0.0027   0.4348   0.5135     C
H       0.0032    0.376   0.6755     H
C       0.0039   0.3498   0.6202     C
C       0.0062   0.2264   0.6482     C
C       0.0068    0.144   0.7663     C
C       0.0083   0.3912   0.4321     C
H       0.0095   0.4457   0.3586     H
C       0.0098   0.1844    0.567     C
H       0.0107   0.1023    0.585     H
C        0.012   0.2692   0.4576     C
O       0.0233   0.6687   0.9451     O
C       0.0234   0.2293   0.3636     C
O       0.0281   0.9701   0.1863     O
O        0.041   0.1889   0.8196     O
O       0.0593   0.1287   0.3714     O
O       0.0657   0.8427   0.9441     O
Eu     0.07117   0.1706  0.17231    Eu
C       0.0789   0.7314   0.9708     C
H       0.1366   0.5076   0.0472     H
C       0.1669   0.6769   0.0302     C
C       0.1838   0.5562   0.0599     C
O         0.21   0.1936   0.9799     O
O       0.2148   0.0465   0.9249     O
H       0.2254     0.83   0.0315     H
O        0.234   0.0555   0.2083     O
C       0.2365   0.7489   0.0512     C
O       0.2372   0.3236   0.0976     O
H       0.2548    0.868   0.1777     H
C       0.2677   0.1264   0.9356     C
C       0.2706   0.5068   0.1084     C
C       0.2892    0.377   0.1345     C
C        0.323   0.7004   0.1016     C
C         0.34   0.8669   0.1582     C
C        0.341   0.5785   0.1288     C
C       0.3467   0.0519   0.1913     C
O       0.3566   0.3277   0.1914     O
C       0.3961   0.7807   0.1209     C
H       0.3997   0.5459   0.1602     H
C       0.4081   0.1387   0.8933     C
C       0.4083   0.9505   0.1668     C
O       0.4187   0.1304   0.1911     O
H       0.4215   0.9959   0.8516     H
H       0.4357   0.2788   0.9262     H
C       0.4671   0.0517    0.858     C
C       0.4754   0.2212   0.9033     C
C       0.5246   0.7788   0.0967     C
C       0.5329   0.9483    0.142     C
H       0.5643   0.7212   0.0738     H
H       0.5785   0.0041   0.1484     H
O       0.5813   0.8696   0.8089     O
C       0.5917   0.0495   0.8332     C
C       0.5919   0.8613   0.1067     C
H       0.6003   0.4541   0.8398     H
C       0.6039   0.2193   0.8791     C
O       0.6434   0.6723   0.8086     O
C       0.6533   0.9481   0.8087     C
C        0.659   0.4215   0.8712     C
C         0.66   0.1331   0.8418     C
C        0.677   0.2996   0.8984     C
C       0.7108    0.623   0.8655     C
C       0.7294   0.4932   0.8916     C
C       0.7323   0.8736   0.0644     C
H       0.7452    0.132   0.8223     H
O       0.7628   0.6764   0.9024     O
C       0.7635   0.2511   0.9488     C
O        0.766   0.9445   0.7917     O
H       0.7746     0.17   0.9685     H
O       0.7852   0.9535   0.0751     O
O         0.79   0.8064   0.0201     O
C       0.8162   0.4438   0.9401     C
C       0.8331   0.3231   0.9698     C
H       0.8634   0.4924   0.9528     H
C       0.9211   0.2686   0.0292     C
Eu     0.92883   0.8294  0.82769    Eu
O       0.9343   0.1573   0.0559     O
O       0.9407   0.8713   0.6286     O
O        0.959   0.8111   0.1804     O
O       0.9719   0.0299   0.8137     O
C       0.9766   0.7707   0.6364     C
O       0.9767   0.3313   0.0549     O
C        0.988   0.7308   0.5424     C
H       0.9893   0.8977    0.415     H
C       0.9902   0.8156    0.433     C
H       0.9905   0.5543   0.6414     H
C       0.9917   0.6088   0.5679     C
C       0.9932    0.856   0.2337     C
C       0.9938   0.7736   0.3518     C
C       0.9961   0.6502   0.3798     C
H       0.9968    0.624   0.3245     H
C       0.9973   0.5652   0.4865     C
O       0.9987   0.3004   0.2766     O
