data_I
_chemical_name_common  '/home/zhangsd/repos/MofS-CGCNN/ML/data/TSD/clean_cifs/VITZIJ_clean'
_cell_length_a 11.59760
_cell_length_b 12.21300
_cell_length_c 13.51870
_cell_angle_alpha 65.03900
_cell_angle_beta  68.35100
_cell_angle_gamma 87.85800
_space_group_name_H-M_alt      'P 1'


loop_
_space_group_symop_operation_xyz
  'x, y, z' 

loop_
_atom_site_label
_atom_site_fract_x
_atom_site_fract_y
_atom_site_fract_z
_atom_site_type_symbol
Dy         0.0      0.5      0.5    Dy
H       0.0014    0.876   0.1763     H
C       0.0017   0.9343    0.013     C
C       0.0026   0.8497   0.1206     C
H       0.0047   0.9465   0.8589     H
O        0.005   0.2001   0.2244     O
C       0.0053   0.7252   0.1478     C
H       0.0058   0.6007    0.085     H
C       0.0058   0.8919   0.9316     C
C       0.0063   0.6409   0.2665     C
C       0.0073   0.6834   0.0662     C
C       0.0116   0.7674   0.9563     C
C       0.0209   0.7294   0.8621     C
O       0.0211   0.1722   0.4452     O
O       0.0285   0.4714    0.688     O
O       0.0393   0.6847   0.3217     O
O        0.058   0.6296   0.8692     O
O       0.0647   0.3448   0.4443     O
Dy     0.07124  0.66999  0.67256    Dy
C       0.0773    0.233   0.4717     C
H       0.1346   0.0081   0.5474     H
C       0.1662   0.1778   0.5303     C
C       0.1827   0.0567   0.5596     C
O       0.2082   0.6943    0.483     O
O       0.2105   0.5466    0.428     O
H       0.2272   0.3298   0.5307     H
O       0.2338   0.8225    0.601     O
O       0.2362   0.5572   0.7062     O
C       0.2374   0.2483   0.5512     C
H       0.2554   0.3668   0.6773     H
C       0.2653   0.6278   0.4378     C
C       0.2712   0.0072   0.6075     C
C       0.2884   0.8777   0.6346     C
C       0.3246   0.1994   0.6026     C
C       0.3403   0.0785   0.6293     C
C        0.341   0.3657   0.6585     C
C       0.3457   0.5506   0.6931     C
O       0.3584   0.8284   0.6885     O
H       0.3981   0.0446   0.6624     H
C       0.3987   0.2805   0.6217     C
C        0.406   0.6383   0.3939     C
C       0.4096   0.4502   0.6678     C
O       0.4164   0.6288   0.6952     O
H       0.4199   0.4983   0.3499     H
H       0.4353    0.781   0.4257     H
C       0.4655   0.5533   0.3573     C
C       0.4747   0.7227    0.403     C
C       0.5253   0.2773    0.597     C
C       0.5345   0.4467   0.6427     C
H       0.5647    0.219   0.5743     H
H       0.5801   0.5017   0.6501     H
O       0.5836   0.3712   0.3048     O
C       0.5904   0.5498   0.3322     C
C        0.594   0.3617   0.6061     C
C       0.6013   0.7195   0.3783     C
H       0.6019   0.9554   0.3376     H
O       0.6416   0.1716   0.3115     O
C       0.6543   0.4494   0.3069     C
C        0.659   0.6343   0.3415     C
C       0.6597   0.9215   0.3707     C
C       0.6754   0.8006   0.3974     C
C       0.7116   0.1223   0.3654     C
C       0.7288   0.9928   0.3925     C
C       0.7347   0.3722   0.5622     C
H       0.7446   0.6332   0.3227     H
C       0.7626   0.7517   0.4488     C
O       0.7638   0.4428   0.2938     O
O       0.7662   0.1775    0.399     O
H       0.7728   0.6702   0.4693     H
O       0.7895   0.4534    0.572     O
O       0.7918   0.3057    0.517     O
C       0.8173   0.9433   0.4404     C
C       0.8338   0.8222   0.4697     C
H       0.8654   0.9919   0.4526     H
C       0.9227    0.767   0.5283     C
Dy     0.92876  0.33001  0.32744    Dy
O       0.9353   0.6552   0.5557     O
O        0.942   0.3704   0.1308     O
O       0.9607   0.3153   0.6783     O
O       0.9715   0.5286    0.312     O
O       0.9789   0.8278   0.5548     O
C       0.9791   0.2706   0.1379     C
C       0.9884   0.2326   0.0437     C
C       0.9927   0.3166   0.9338     C
C       0.9937   0.3591   0.7335     C
C       0.9942   0.1081   0.0684     C
H       0.9942   0.3993    0.915     H
C       0.9947   0.2748   0.8522     C
O        0.995   0.7999   0.7756     O
H       0.9953   0.0535   0.1411     H
C       0.9974   0.1503   0.8794     C
C       0.9983   0.0657    0.987     C
H       0.9986    0.124   0.8237     H
