data_I
_chemical_name_common  '/home/zhangsd/repos/MofS-CGCNN/ML/data/TSD/clean_cifs/VITZEF_clean'
_cell_length_a 11.64700
_cell_length_b 12.24700
_cell_length_c 13.60400
_cell_angle_alpha 65.01000
_cell_angle_beta  67.88000
_cell_angle_gamma 88.32000
_space_group_name_H-M_alt      'P 1'


loop_
_space_group_symop_operation_xyz
  'x, y, z' 

loop_
_atom_site_label
_atom_site_fract_x
_atom_site_fract_y
_atom_site_fract_z
_atom_site_type_symbol
C        0.024    0.779   0.5967     C
C       0.0317   0.9486   0.6425     C
H        0.064   0.7217   0.5736     H
H       0.0765   0.0038   0.6504     H
O       0.0826   0.8689   0.3103     O
C       0.0918   0.8627   0.6072     C
C       0.0928   0.0486   0.3345     C
H       0.1009   0.4533   0.3421     H
C       0.1028   0.2192   0.3796     C
O        0.142   0.6702   0.3132     O
C       0.1555   0.9482   0.3088     C
C       0.1585   0.4197   0.3745     C
C       0.1608   0.1319   0.3438     C
C       0.1752   0.2981   0.4005     C
C       0.2083   0.6216     0.37     C
C       0.2274   0.4899   0.3969     C
C       0.2309   0.8725   0.5678     C
H       0.2459   0.1303   0.3262     H
O       0.2603   0.6745   0.4064     O
C       0.2605   0.2512   0.4508     C
O       0.2648   0.9434   0.2949     O
H       0.2715   0.1702   0.4705     H
O       0.2824   0.9522   0.5804     O
O       0.2907    0.808   0.5221     O
C       0.3134   0.4433   0.4439     C
C         0.33   0.3223   0.4725     C
H       0.3603   0.4923   0.4566     H
C       0.4198    0.268   0.5299     C
Sm     0.42948  0.82883  0.32814    Sm
O       0.4327   0.1577   0.5579     O
O         0.44   0.8708   0.1287     O
O       0.4597     0.81   0.6803     O
O       0.4748   0.3319   0.5556     O
O       0.4751   0.0307   0.3117     O
C       0.4752   0.7705   0.1364     C
C       0.4859   0.7311   0.0422     C
C       0.4891   0.8148   0.9338     C
H       0.4891    0.897   0.9157     H
H       0.4898   0.5553   0.1418     H
C       0.4909    0.609   0.0685     C
C        0.491   0.8557    0.735     C
C       0.4923   0.7727   0.8524     C
C       0.4962     0.65   0.8795     C
C       0.4977   0.5645   0.9864     C
H       0.4979    0.624   0.8239     H
O       0.4996   0.6977    0.224     O
Sm         0.5      0.0      0.5    Sm
O       0.5004   0.3023    0.776     O
H       0.5021    0.376   0.1761     H
C       0.5023   0.4355   0.0136     C
C       0.5038     0.35   0.1205     C
C       0.5077   0.2273   0.1476     C
C        0.509   0.1443    0.265     C
C       0.5091    0.391   0.9315     C
H       0.5102   0.4447   0.8582     H
H       0.5109    0.103   0.0843     H
C       0.5109   0.1852   0.0662     C
C       0.5141   0.2689   0.9578     C
C       0.5248   0.2295   0.8636     C
O       0.5249   0.9693   0.6883     O
O       0.5252   0.6681   0.4444     O
O       0.5403     0.19   0.3197     O
O         0.56   0.1292   0.8713     O
O       0.5673   0.8423   0.4421     O
Sm     0.57053  0.17117  0.67186    Sm
C       0.5802    0.732   0.4701     C
H       0.6397   0.5077   0.5434     H
C         0.67   0.6777   0.5275     C
C       0.6866   0.5567   0.5561     C
O       0.7093    0.192   0.4779     O
O       0.7176   0.0478   0.4196     O
H       0.7285   0.8298   0.5295     H
O       0.7352   0.0566   0.7051     O
C       0.7395   0.7488   0.5492     C
O       0.7397   0.3255   0.5936     O
H       0.7541   0.8697   0.6738     H
C       0.7691   0.1275   0.4322     C
C       0.7726   0.5101   0.6031     C
C       0.7917   0.3784     0.63     C
C       0.8248   0.7019   0.5995     C
C       0.8392   0.8681   0.6562     C
C       0.8415   0.5803   0.6255     C
C       0.8445   0.0518   0.6912     C
O        0.858   0.3298   0.6868     O
C       0.8972   0.7808   0.6204     C
H       0.8991   0.5467   0.6579     H
C       0.9072   0.9514   0.6655     C
C       0.9082   0.1373   0.3928     C
O       0.9174   0.1311   0.6897     O
H       0.9235   0.9962   0.3496     H
H        0.936   0.2783   0.4264     H
C       0.9683   0.0514   0.3575     C
C        0.976    0.221   0.4033     C
