data_I
_chemical_name_common  '/home/zhangsd/repos/MofS-CGCNN/ML/data/TSD/clean_cifs/VIWKIX_clean'
_cell_length_a 11.00600
_cell_length_b 19.84700
_cell_length_c 23.22800
_cell_angle_alpha 90.00000
_cell_angle_beta  90.00000
_cell_angle_gamma 99.91000
_space_group_name_H-M_alt      'P 1'


loop_
_space_group_symop_operation_xyz
  'x, y, z' 

loop_
_atom_site_label
_atom_site_fract_x
_atom_site_fract_y
_atom_site_fract_z
_atom_site_type_symbol
O       0.0066   0.0954   0.2083     O
O        0.007    0.802   0.1807     O
C       0.0088   0.6671   0.7407     C
H       0.0158   0.4903   0.3033     H
O       0.0262   0.1747   0.7284     O
C       0.0351   0.4531   0.2831     C
C       0.0358    0.215   0.7702     C
C        0.038    0.611     0.71     C
La     0.03807  0.89823  0.35561    La
O       0.0381   0.6512   0.1226     O
C       0.0444   0.6634   0.1746     C
C       0.0484   0.4755   0.0484     C
C       0.0718   0.3416   0.7912     C
C        0.077   0.5235   0.9543     C
C       0.0779   0.7382   0.7318     C
H       0.0805   0.4591   0.0816     H
Cu     0.09015  0.89752  0.17962    Cu
O       0.0902    0.779    0.773     O
C       0.0911   0.3431   0.2218     C
O       0.0927   0.1707   0.1446     O
C       0.1014   0.1349   0.1883     C
C       0.1041   0.2859   0.7616     C
O       0.1049   0.5713   0.8622     O
H       0.1086   0.3064   0.2003     H
O       0.1154   0.7547   0.6817     O
H       0.1208   0.4435   0.8034     H
O       0.1212   0.0498    0.704     O
C       0.1271    0.498   0.0036     C
C       0.1363   0.4621   0.2467     C
O       0.1412   0.5953   0.6231     O
C       0.1434   0.4063   0.7844     C
O       0.1437   0.6776   0.2038     O
O       0.1456    0.978   0.2831     O
La     0.14886  0.85527  0.85631    La
C       0.1515   0.6149   0.6732     C
C       0.1591   0.5539   0.9057     C
C       0.1651   0.4065   0.2158     C
O       0.1719   0.9643   0.5397     O
O       0.1733    0.992   0.1888     O
C       0.1833   0.0129   0.2405     C
Cu     0.19867  0.84996  0.67992    Cu
O        0.203   0.0581   0.4871     O
C       0.2072   0.5335   0.2393     C
C       0.2076    0.296    0.726     C
O       0.2078   0.1235   0.6386     O
C       0.2148   0.0885   0.6831     C
C       0.2206   0.1411   0.2202     C
O       0.2229   0.5552   0.1883     O
H       0.2282    0.259   0.7059     H
O        0.229   0.9402    0.411     O
O       0.2391   0.5684   0.2836     O
C       0.2394   0.0082     0.51     C
O       0.2464   0.8657   0.1987     O
C       0.2481   0.4162   0.7497     C
C       0.2519   0.0838   0.2497     C
O       0.2536   0.6343   0.6987     O
C       0.2606   0.4918     0.01     C
O       0.2609   0.9316   0.7836     O
O        0.271   0.5598    0.911     O
H       0.2718    0.241   0.2059     H
O       0.2771   0.9448   0.6883     O
C       0.2794   0.3589   0.7202     C
C       0.2852   0.4115   0.1831     C
O       0.2922   0.3765   0.1386     O
C       0.2924    0.204    0.226     C
C       0.2928   0.9665   0.7393     C
O        0.297   0.4419   0.9871     O
Cu     0.30133  0.65004  0.17992    Cu
C       0.3167   0.4871   0.7405     C
O       0.3267    0.508   0.6888     O
O       0.3281   0.5357   0.0397     O
C       0.3349   0.0935   0.7158     C
C       0.3409   0.9461   0.4057     C
C       0.3485   0.8851   0.1732     C
La     0.35114  0.64473  0.35631    La
O       0.3544    0.522   0.7831     O
O       0.3563   0.8224   0.7038     O
C       0.3566   0.0937   0.2844     C
O       0.3588   0.9047   0.1231     O
C       0.3637   0.0379   0.7467     C
C       0.3729    0.002   0.5036     C
O       0.3788   0.4502    0.204     O
H       0.3792   0.0565   0.3034     H
O       0.3846   0.7453   0.1817     O
H       0.3914   0.1936   0.7003     H
O       0.3951   0.9287   0.3622     O
C       0.3959   0.2141   0.2616     C
C       0.3986   0.3651   0.6883     C
O       0.4073   0.3293   0.6446     O
C       0.4089   0.1569   0.7218     C
O       0.4098    0.721    0.273     O
Cu     0.40985  0.60248  0.67962    Cu
H       0.4195   0.0409   0.5816     H
C       0.4221   0.7618   0.2318     C
C        0.423   0.9765   0.4543     C
C       0.4282   0.1584   0.2912     C
C       0.4516   0.0245   0.5484     C
C       0.4556   0.8366   0.6746     C
O       0.4619   0.8488   0.6226     O
La     0.46193  0.60177  0.85561    La
C        0.462    0.889     0.21     C
C       0.4642    0.285   0.2702     C
C       0.4649   0.0469   0.7831     C
O       0.4738   0.3253   0.2284     O
H       0.4842   0.0097   0.8033     H
C       0.4912   0.8329   0.2407     C
O        0.493    0.698   0.6807     O
O       0.4934   0.4046   0.7083     O
O       0.5066   0.5954   0.2917     O
O        0.507    0.302   0.3193     O
C       0.5088   0.1671   0.7593     C
H       0.5158   0.9903   0.1967     H
O       0.5262   0.6747   0.7716     O
C       0.5351   0.9531   0.2169     C
C       0.5358    0.715   0.7298     C
C        0.538    0.111     0.79     C
La     0.53807  0.39823  0.14439    La
O       0.5381   0.1512   0.3774     O
C       0.5444   0.1634   0.3254     C
C       0.5484   0.9755   0.4516     C
C       0.5718   0.8416   0.7088     C
C        0.577   0.0235   0.5457     C
C       0.5779   0.2382   0.7682     C
H       0.5805   0.9591   0.4184     H
Cu     0.59015  0.39752  0.32038    Cu
O       0.5902    0.279    0.727     O
C       0.5911   0.8431   0.2782     C
O       0.5927   0.6707   0.3554     O
C       0.6014   0.6349   0.3117     C
C       0.6041   0.7859   0.7384     C
O       0.6049   0.0713   0.6378     O
H       0.6086   0.8064   0.2997     H
O       0.6154   0.2547   0.8183     O
H       0.6208   0.9435   0.6966     H
O       0.6212   0.5498    0.796     O
C       0.6271    0.998   0.4964     C
C       0.6363   0.9621   0.2533     C
O       0.6412   0.0953   0.8769     O
C       0.6434   0.9063   0.7156     C
O       0.6437   0.1776   0.2962     O
O       0.6456    0.478   0.2169     O
La     0.64886  0.35527  0.64369    La
C       0.6515   0.1149   0.8268     C
C       0.6591   0.0539   0.5943     C
C       0.6651   0.9065   0.2842     C
O       0.6719   0.4643   0.9603     O
O       0.6733    0.492   0.3112     O
C       0.6833   0.5129   0.2595     C
Cu     0.69867  0.34996  0.82008    Cu
O        0.703   0.5581   0.0129     O
C       0.7072   0.0335   0.2607     C
C       0.7076    0.796    0.774     C
O       0.7078   0.6235   0.8614     O
C       0.7148   0.5885   0.8169     C
C       0.7206   0.6411   0.2798     C
O       0.7229   0.0552   0.3117     O
H       0.7282    0.759   0.7941     H
O        0.729   0.4402    0.089     O
O       0.7391   0.0684   0.2164     O
C       0.7394   0.5082     0.99     C
O       0.7464   0.3657   0.3013     O
C       0.7481   0.9162   0.7503     C
C       0.7519   0.5838   0.2503     C
O       0.7536   0.1343   0.8013     O
C       0.7606   0.9918     0.49     C
O       0.7609   0.4316   0.7164     O
O        0.771   0.0598    0.589     O
H       0.7718    0.741   0.2941     H
O       0.7771   0.4448   0.8117     O
C       0.7794   0.8589   0.7798     C
C       0.7852   0.9115   0.3169     C
O       0.7922   0.8765   0.3614     O
C       0.7924    0.704    0.274     C
C       0.7928   0.4665   0.7607     C
O        0.797   0.9419   0.5129     O
Cu     0.80133  0.15004  0.32008    Cu
C       0.8167   0.9871   0.7595     C
O       0.8267    0.008   0.8112     O
O       0.8281   0.0357   0.4603     O
C       0.8349   0.5935   0.7842     C
C       0.8409   0.4461   0.0943     C
C       0.8485   0.3851   0.3268     C
La     0.85114  0.14473  0.14369    La
O       0.8544    0.022   0.7169     O
O       0.8563   0.3224   0.7962     O
C       0.8566   0.5937   0.2156     C
O       0.8588   0.4047   0.3769     O
C       0.8637   0.5379   0.7533     C
C       0.8729    0.502   0.9964     C
O       0.8788   0.9502    0.296     O
H       0.8792   0.5565   0.1966     H
O       0.8846   0.2453   0.3183     O
H       0.8914   0.6936   0.7997     H
O       0.8951   0.4287   0.1378     O
C       0.8959   0.7141   0.2384     C
C       0.8986   0.8651   0.8117     C
O       0.9073   0.8293   0.8554     O
C       0.9089   0.6569   0.7782     C
O       0.9098    0.221    0.227     O
Cu     0.90985  0.10248  0.82038    Cu
H       0.9195   0.5409   0.9184     H
C       0.9221   0.2618   0.2682     C
C        0.923   0.4765   0.0457     C
C       0.9282   0.6584   0.2088     C
C       0.9516   0.5245   0.9516     C
C       0.9556   0.3366   0.8254     C
O       0.9619   0.3488   0.8774     O
La     0.96193  0.10177  0.64439    La
C        0.962    0.389     0.29     C
C       0.9642    0.785   0.2298     C
C       0.9649   0.5469   0.7169     C
O       0.9738   0.8253   0.2716     O
H       0.9842   0.5097   0.6967     H
C       0.9912   0.3329   0.2593     C
O        0.993    0.198   0.8193     O
O       0.9934   0.9046   0.7917     O
