data_I
_chemical_name_common  '/home/zhangsd/repos/MofS-CGCNN/ML/data/TSD/clean_cifs/VIXZUZ_clean'
_cell_length_a  8.43580
_cell_length_b 10.07400
_cell_length_c 15.07900
_cell_angle_alpha 71.07100
_cell_angle_beta  87.93100
_cell_angle_gamma 67.63100
_space_group_name_H-M_alt      'P 1'


loop_
_space_group_symop_operation_xyz
  'x, y, z' 

loop_
_atom_site_label
_atom_site_fract_x
_atom_site_fract_y
_atom_site_fract_z
_atom_site_type_symbol
H       0.0301   0.2221    0.604     H
O       0.0501   0.2926   0.4325     O
O       0.0766   0.1251   0.9985     O
H       0.0916   0.0867   0.7631     H
C       0.1141   0.1235   0.6242     C
C       0.1428   0.0532   0.0817     C
C        0.149   0.1581   0.4566     C
C       0.1508   0.0429   0.7198     C
H       0.1526   0.3271   0.0325     H
C       0.1647   0.2847   0.0979     C
C       0.1654   0.1391   0.1416     C
O       0.1678    0.606   0.1542     O
Zn     0.18147  0.78964  0.04176    Zn
C       0.1826   0.3653   0.1538     C
C       0.1843   0.0766   0.2386     C
H       0.1893    0.978   0.2672     H
C       0.1931   0.3041   0.2518     C
C       0.1958   0.1595   0.2935     C
C       0.1961   0.5156   0.1094     C
O       0.1973   0.9087   0.1201     O
C        0.198   0.0624   0.5583     C
H       0.1983   0.3607   0.2888     H
N       0.2192   0.0875   0.3937     N
O       0.2315   0.8687   0.9095     O
O       0.2348   0.5514   0.0256     O
C       0.2765   0.8963   0.7505     C
H       0.2829   0.9918   0.4157     H
C       0.3145   0.8045   0.8541     C
C       0.3246   0.9187   0.5904     C
C       0.3631    0.836   0.6853     C
H       0.3859    0.876   0.5472     H
O       0.4247   0.6708   0.8758     O
H       0.4488   0.7382   0.7052     H
Zn         0.5      0.5      0.0    Zn
H       0.5512   0.2618   0.2948     H
O       0.5753   0.3292   0.1242     O
H       0.6141    0.124   0.4528     H
C       0.6369    0.164   0.3147     C
C       0.6754   0.0813   0.4096     C
C       0.6855   0.1955   0.1459     C
H       0.7171   0.0082   0.5843     H
C       0.7235   0.1037   0.2495     C
O       0.7652   0.4486   0.9744     O
O       0.7685   0.1313   0.0905     O
N       0.7808   0.9125   0.6063     N
H       0.8017   0.6393   0.7112     H
C        0.802   0.9376   0.4417     C
O       0.8027   0.0913   0.8799     O
C       0.8039   0.4844   0.8906     C
C       0.8042   0.8405   0.7065     C
C       0.8069   0.6959   0.7482     C
H       0.8107    0.022   0.7328     H
C       0.8157   0.9234   0.7614     C
C       0.8174   0.6347   0.8462     C
Zn     0.81853  0.21036  0.95824    Zn
O       0.8322    0.394   0.8458     O
C       0.8346   0.8609   0.8584     C
C       0.8353   0.7153   0.9021     C
H       0.8474   0.6729   0.9675     H
C       0.8492   0.9571   0.2802     C
C        0.851   0.8419   0.5434     C
C       0.8572   0.9468   0.9183     C
C       0.8859   0.8765   0.3758     C
H       0.9084   0.9133   0.2369     H
O       0.9234   0.8749   0.0015     O
O       0.9499   0.7074   0.5675     O
H       0.9699   0.7779    0.396     H
