data_I
_chemical_name_common  '/home/zhangsd/repos/MofS-CGCNN/ML/data/TSD/clean_cifs/VOCQEJ_clean'
_cell_length_a 14.08210
_cell_length_b 15.24980
_cell_length_c 18.60580
_cell_angle_alpha 90.00000
_cell_angle_beta  106.74700
_cell_angle_gamma 90.00000
_space_group_name_H-M_alt      'P 1'


loop_
_space_group_symop_operation_xyz
  'x, y, z' 

loop_
_atom_site_label
_atom_site_fract_x
_atom_site_fract_y
_atom_site_fract_z
_atom_site_type_symbol
H          0.0   0.0137     0.75     H
O          0.0   0.0486     0.25     O
O          0.0   0.9514     0.75     O
H          0.0   0.9863     0.25     H
C       0.0009   0.2149   0.4398     C
C       0.0009   0.7851   0.9398     C
H       0.0107   0.1705   0.5945     H
C       0.0107   0.2031   0.1427     C
C       0.0107   0.7969   0.6427     C
H       0.0107   0.8295   0.0945     H
O       0.0358   0.0223   0.8792     O
O       0.0358   0.9777   0.3792     O
H        0.054   0.2045   0.0414     H
H        0.054   0.7955   0.5414     H
O       0.0649   0.2111  0.33534     O
O       0.0649   0.7889  0.83534     O
C        0.068   0.2054   0.6152     C
C        0.068   0.7946   0.1152     C
H       0.0745   0.1878   0.7249     H
H       0.0745   0.8122   0.2249     H
C       0.0872   0.2398   0.4865     C
C       0.0872   0.7602   0.9865     C
O       0.0973   0.1824  0.18221     O
O       0.0973   0.8176  0.68221     O
H       0.1019   0.0308   0.0189     H
H       0.1019   0.9692   0.5189     H
C       0.1057   0.2157    0.692     C
C       0.1057   0.7843    0.192     C
H       0.1103   0.3838   0.2154     H
H       0.1103   0.6162   0.7154     H
C        0.116   0.2474   0.5688     C
C        0.116   0.7526   0.0688     C
C       0.1168   0.0123   0.4151     C
C       0.1168   0.9877   0.9151     C
Ni     0.13335  0.11992  0.28341    Ni
Ni     0.13335  0.88008  0.78341    Ni
H       0.1371   0.2547   0.4635     H
H       0.1371   0.7453   0.9635     H
H       0.1408   0.3737   0.3458     H
H       0.1408   0.6263   0.8458     H
H       0.1438   0.0547   0.1321     H
H       0.1438   0.9453   0.6321     H
C       0.1441   0.0038   0.4986     C
C       0.1441   0.9962   0.9986     C
C       0.1603   0.4188    0.248     C
C       0.1603   0.5812    0.748     C
O       0.1736    0.054  0.38644     O
O       0.1736    0.946  0.88644     O
C       0.1785   0.4126   0.3249     C
C       0.1785   0.5874   0.8249     C
C         0.19   0.2674   0.7209     C
C         0.19   0.7326   0.2209     C
C       0.1948   0.0195   0.1633     C
C       0.1948   0.9805   0.6633     C
C       0.1997   0.2951   0.6031     C
C       0.1997   0.7049   0.1031     C
H        0.201   0.4808   0.1661     H
H        0.201   0.5192   0.6661     H
N        0.212   0.0261   0.2376     N
N        0.212   0.9739   0.7376     N
H       0.2146   0.2748   0.7738     H
H       0.2146   0.7252   0.2738     H
C       0.2153   0.4763    0.219     C
C       0.2153   0.5237    0.719     C
C       0.2211   0.0399    0.546     C
C       0.2211   0.9601    0.046     C
H       0.2339   0.3219   0.5716     H
H       0.2339   0.6781   0.0716     H
H       0.2353    0.428   0.4748     H
H       0.2353    0.572   0.9748     H
N       0.2369   0.3067   0.6774     N
N       0.2369   0.6933   0.1774     N
C       0.2473    0.036   0.6288     C
C       0.2473    0.964   0.1288     C
C       0.2527    0.464   0.3712     C
C       0.2527    0.536   0.8712     C
N       0.2631   0.1933   0.3226     N
N       0.2631   0.8067   0.8226     N
H       0.2647    0.072   0.5252     H
H       0.2647    0.928   0.0252     H
H       0.2661   0.1781   0.4284     H
H       0.2661   0.8219   0.9284     H
C       0.2789   0.4601    0.454     C
C       0.2789   0.5399    0.954     C
C       0.2847   0.0237    0.781     C
C       0.2847   0.9763    0.281     C
H       0.2854   0.2252   0.2262     H
H       0.2854   0.7748   0.7262     H
N        0.288   0.4739   0.7624     N
N        0.288   0.5261   0.2624     N
H        0.299   0.0192   0.8339     H
H        0.299   0.9808   0.3339     H
C       0.3003   0.2049   0.3969     C
C       0.3003   0.7951   0.8969     C
C       0.3052   0.4805   0.8367     C
C       0.3052   0.5195   0.3367     C
C         0.31   0.2326   0.2791     C
C         0.31   0.7674   0.7791     C
C       0.3215   0.0874   0.6751     C
C       0.3215   0.9126   0.1751     C
O       0.3264    0.446  0.61356     O
O       0.3264    0.554  0.11356     O
C       0.3397   0.0812    0.752     C
C       0.3397   0.9188    0.252     C
C       0.3559   0.4962   0.5014     C
C       0.3559   0.5038   0.0014     C
H       0.3562   0.4453   0.8679     H
H       0.3562   0.5547   0.3679     H
H       0.3592   0.1263   0.6542     H
H       0.3592   0.8737   0.1542     H
H       0.3629   0.2453   0.5365     H
H       0.3629   0.7547   0.0365     H
Ni     0.36665  0.38008  0.71659    Ni
Ni     0.36665  0.61992  0.21659    Ni
C       0.3832   0.4877   0.5849     C
C       0.3832   0.5123   0.0849     C
C        0.384   0.2526   0.4312     C
C        0.384   0.7474   0.9312     C
H       0.3897   0.1162   0.7846     H
H       0.3897   0.8838   0.2846     H
C       0.3943   0.2843    0.308     C
C       0.3943   0.7157    0.808     C
H       0.3981   0.4692   0.9811     H
H       0.3981   0.5308   0.4811     H
O       0.4027   0.3176  0.81779     O
O       0.4027   0.6824  0.31779     O
C       0.4128   0.2602   0.5135     C
C       0.4128   0.7398   0.0135     C
H       0.4255   0.3122   0.2751     H
H       0.4255   0.6878   0.7751     H
C        0.432   0.2946   0.3848     C
C        0.432   0.7054   0.8848     C
O       0.4351   0.2889  0.66466     O
O       0.4351   0.7111  0.16466     O
H        0.446   0.2955   0.9586     H
H        0.446   0.7045   0.4586     H
O       0.4642   0.4777   0.1208     O
O       0.4642   0.5223   0.6208     O
C       0.4893   0.2969   0.8573     C
H       0.4893   0.3295   0.4055     H
H       0.4893   0.6705   0.9055     H
C       0.4893   0.7031   0.3573     C
C       0.4991   0.2851   0.5602     C
C       0.4991   0.7149   0.0602     C
O          0.5   0.4514     0.75     O
H          0.5   0.4863     0.25     H
H          0.5   0.5137     0.75     H
O          0.5   0.5486     0.25     O
C       0.5009   0.2851   0.9398     C
C       0.5009   0.7149   0.4398     C
C       0.5107   0.2969   0.6427     C
H       0.5107   0.3295   0.0945     H
H       0.5107   0.6705   0.5945     H
C       0.5107   0.7031   0.1427     C
O       0.5358   0.4777   0.3792     O
O       0.5358   0.5223   0.8792     O
H        0.554   0.2955   0.5414     H
H        0.554   0.7045   0.0414     H
O       0.5649   0.2889  0.83534     O
O       0.5649   0.7111  0.33534     O
C        0.568   0.2946   0.1152     C
C        0.568   0.7054   0.6152     C
H       0.5745   0.3122   0.2249     H
H       0.5745   0.6878   0.7249     H
C       0.5872   0.2602   0.9865     C
C       0.5872   0.7398   0.4865     C
O       0.5973   0.3176  0.68221     O
O       0.5973   0.6824  0.18221     O
H       0.6019   0.4692   0.5189     H
H       0.6019   0.5308   0.0189     H
C       0.6057   0.2843    0.192     C
C       0.6057   0.7157    0.692     C
H       0.6103   0.1162   0.7154     H
H       0.6103   0.8838   0.2154     H
C        0.616   0.2526   0.0688     C
C        0.616   0.7474   0.5688     C
C       0.6168   0.4877   0.9151     C
C       0.6168   0.5123   0.4151     C
Ni     0.63335  0.38008  0.78341    Ni
Ni     0.63335  0.61992  0.28341    Ni
H       0.6371   0.2453   0.9635     H
H       0.6371   0.7547   0.4635     H
H       0.6408   0.1263   0.8458     H
H       0.6408   0.8737   0.3458     H
H       0.6438   0.4453   0.6321     H
H       0.6438   0.5547   0.1321     H
C       0.6441   0.4962   0.9986     C
C       0.6441   0.5038   0.4986     C
C       0.6603   0.0812    0.748     C
C       0.6603   0.9188    0.248     C
O       0.6736    0.446  0.88644     O
O       0.6736    0.554  0.38644     O
C       0.6785   0.0874   0.8249     C
C       0.6785   0.9126   0.3249     C
C         0.69   0.2326   0.2209     C
C         0.69   0.7674   0.7209     C
C       0.6948   0.4805   0.6633     C
C       0.6948   0.5195   0.1633     C
C       0.6997   0.2049   0.1031     C
C       0.6997   0.7951   0.6031     C
H        0.701   0.0192   0.6661     H
H        0.701   0.9808   0.1661     H
N        0.712   0.4739   0.7376     N
N        0.712   0.5261   0.2376     N
H       0.7146   0.2252   0.2738     H
H       0.7146   0.7748   0.7738     H
C       0.7153   0.0237    0.719     C
C       0.7153   0.9763    0.219     C
C       0.7211   0.4601    0.046     C
C       0.7211   0.5399    0.546     C
H       0.7339   0.1781   0.0716     H
H       0.7339   0.8219   0.5716     H
H       0.7353    0.072   0.9748     H
H       0.7353    0.928   0.4748     H
N       0.7369   0.1933   0.1774     N
N       0.7369   0.8067   0.6774     N
C       0.7473    0.464   0.1288     C
C       0.7473    0.536   0.6288     C
C       0.7527    0.036   0.8712     C
C       0.7527    0.964   0.3712     C
N       0.7631   0.3067   0.8226     N
N       0.7631   0.6933   0.3226     N
H       0.7647    0.428   0.0252     H
H       0.7647    0.572   0.5252     H
H       0.7661   0.3219   0.9284     H
H       0.7661   0.6781   0.4284     H
C       0.7789   0.0399    0.954     C
C       0.7789   0.9601    0.454     C
C       0.7847   0.4763    0.281     C
C       0.7847   0.5237    0.781     C
H       0.7854   0.2748   0.7262     H
H       0.7854   0.7252   0.2262     H
N        0.788   0.0261   0.2624     N
N        0.788   0.9739   0.7624     N
H        0.799   0.4808   0.3339     H
H        0.799   0.5192   0.8339     H
C       0.8003   0.2951   0.8969     C
C       0.8003   0.7049   0.3969     C
C       0.8052   0.0195   0.3367     C
C       0.8052   0.9805   0.8367     C
C         0.81   0.2674   0.7791     C
C         0.81   0.7326   0.2791     C
C       0.8215   0.4126   0.1751     C
C       0.8215   0.5874   0.6751     C
O       0.8264    0.054  0.11356     O
O       0.8264    0.946  0.61356     O
C       0.8397   0.4188    0.252     C
C       0.8397   0.5812    0.752     C
C       0.8559   0.0038   0.0014     C
C       0.8559   0.9962   0.5014     C
H       0.8562   0.0547   0.3679     H
H       0.8562   0.9453   0.8679     H
H       0.8592   0.3737   0.1542     H
H       0.8592   0.6263   0.6542     H
H       0.8629   0.2547   0.0365     H
H       0.8629   0.7453   0.5365     H
Ni     0.86665  0.11992  0.21659    Ni
Ni     0.86665  0.88008  0.71659    Ni
C       0.8832   0.0123   0.0849     C
C       0.8832   0.9877   0.5849     C
C        0.884   0.2474   0.9312     C
C        0.884   0.7526   0.4312     C
H       0.8897   0.3838   0.2846     H
H       0.8897   0.6162   0.7846     H
C       0.8943   0.2157    0.808     C
C       0.8943   0.7843    0.308     C
H       0.8981   0.0308   0.4811     H
H       0.8981   0.9692   0.9811     H
O       0.9027   0.1824  0.31779     O
O       0.9027   0.8176  0.81779     O
C       0.9128   0.2398   0.0135     C
C       0.9128   0.7602   0.5135     C
H       0.9255   0.1878   0.7751     H
H       0.9255   0.8122   0.2751     H
C        0.932   0.2054   0.8848     C
C        0.932   0.7946   0.3848     C
O       0.9351   0.2111  0.16466     O
O       0.9351   0.7889  0.66466     O
H        0.946   0.2045   0.4586     H
H        0.946   0.7955   0.9586     H
O       0.9642   0.0223   0.6208     O
O       0.9642   0.9777   0.1208     O
H       0.9893   0.1705   0.9055     H
C       0.9893   0.2031   0.3573     C
C       0.9893   0.7969   0.8573     C
H       0.9893   0.8295   0.4055     H
C       0.9991   0.2149   0.0602     C
C       0.9991   0.7851   0.5602     C
