data_I
_chemical_name_common  '/home/zhangsd/repos/MofS-CGCNN/ML/data/TSD/clean_cifs/VOGPEO_clean'
_cell_length_a 24.83190
_cell_length_b 33.53200
_cell_length_c 18.70990
_cell_angle_alpha 90.00000
_cell_angle_beta  90.00000
_cell_angle_gamma 90.00000
_space_group_name_H-M_alt      'P 1'


loop_
_space_group_symop_operation_xyz
  'x, y, z' 

loop_
_atom_site_label
_atom_site_fract_x
_atom_site_fract_y
_atom_site_fract_z
_atom_site_type_symbol
Cu         0.0  0.06204     0.25    Cu
Cu         0.0  0.14105     0.25    Cu
H          0.0   0.2765     0.75     H
C          0.0   0.3042     0.75     C
C          0.0   0.3765    0.678     C
C          0.0   0.3765    0.822     C
C          0.0   0.4135    0.634     C
C          0.0   0.4135    0.866     C
C          0.0   0.5865    0.134     C
C          0.0   0.5865    0.366     C
C          0.0   0.6235    0.178     C
C          0.0   0.6235    0.322     C
C          0.0   0.6958     0.25     C
H          0.0   0.7235     0.25     H
Cu         0.0  0.85895     0.75    Cu
Cu         0.0  0.93796     0.75    Cu
O        0.042   0.4294   0.6293     O
O        0.042   0.4294   0.8707     O
O        0.042   0.5706   0.1293     O
O        0.042   0.5706   0.3707     O
C       0.0485   0.3209     0.75     C
C       0.0485   0.6791     0.25     C
C       0.0487   0.3576   0.6991     C
C       0.0487   0.3576   0.8009     C
C       0.0487   0.6424   0.1991     C
C       0.0487   0.6424   0.3009     C
O      0.05491  0.13499   0.1776     O
O      0.05491  0.13499   0.3224     O
O      0.05491  0.86501   0.6776     O
O      0.05491  0.86501   0.8224     O
O      0.05622  0.06832   0.1764     O
O      0.05622  0.06832   0.3236     O
O      0.05622  0.93168   0.6764     O
O      0.05622  0.93168   0.8236     O
C       0.0732  0.10144   0.1568     C
C       0.0732  0.10144   0.3432     C
C       0.0732  0.89856   0.6568     C
C       0.0732  0.89856   0.8432     C
H       0.0813   0.3673    0.682     H
H       0.0813   0.3673    0.818     H
H       0.0813   0.6327    0.182     H
H       0.0813   0.6327    0.318     H
C        0.099   0.2993     0.75     C
C        0.099   0.7007     0.25     C
H        0.108   0.2948    0.645     H
H        0.108   0.2948    0.855     H
H        0.108   0.7052    0.145     H
H        0.108   0.7052    0.355     H
O       0.1114   0.4704   0.5157     O
O       0.1114   0.4704   0.9843     O
O       0.1114   0.5296   0.0157     O
O       0.1114   0.5296   0.4843     O
C         0.12  0.10363   0.1058     C
C         0.12  0.10363   0.3942     C
C         0.12  0.89637   0.6058     C
C         0.12  0.89637   0.8942     C
H       0.1217   0.1637   0.0987     H
H       0.1217   0.1637   0.4013     H
H       0.1217   0.8363   0.5987     H
H       0.1217   0.8363   0.9013     H
C       0.1244  0.28836   0.6882     C
C       0.1244  0.28836   0.8118     C
C       0.1244  0.71164   0.1882     C
C       0.1244  0.71164   0.3118     C
H        0.134   0.0451   0.0975     H
H        0.134   0.0451   0.4025     H
H        0.134   0.9549   0.5975     H
H        0.134   0.9549   0.9025     H
C       0.1348      0.5      0.0     C
C       0.1348      0.5      0.5     C
C       0.1392  0.14057    0.084     C
C       0.1392  0.14057    0.416     C
C       0.1392  0.85943    0.584     C
C       0.1392  0.85943    0.916     C
C       0.1467  0.06989    0.083     C
C       0.1467  0.06989    0.417     C
C       0.1467  0.93011    0.583     C
C       0.1467  0.93011    0.917     C
H        0.157      0.0      0.0     H
H        0.157      0.0      0.5     H
C       0.1742  0.26777   0.6859     C
C       0.1742  0.26777   0.8141     C
C       0.1742  0.73223   0.1859     C
C       0.1742  0.73223   0.3141     C
O      0.17798  0.27104   0.5602     O
O      0.17798  0.27104   0.9398     O
O      0.17798  0.72896   0.0602     O
O      0.17798  0.72896   0.4398     O
O      0.18153  0.21354   0.0453     O
O      0.18153  0.21354   0.4547     O
O      0.18153  0.78646   0.5453     O
O      0.18153  0.78646   0.9547     O
C       0.1835  0.14328   0.0412     C
C       0.1835  0.14328   0.4588     C
C       0.1835  0.85672   0.5412     C
C       0.1835  0.85672   0.9588     C
C       0.1916   0.0715   0.0397     C
C       0.1916   0.0715   0.4603     C
C       0.1916   0.9285   0.5397     C
C       0.1916   0.9285   0.9603     C
C       0.1945      0.0      0.0     C
C       0.1945      0.0      0.5     C
C       0.1954      0.5      0.0     C
C       0.1954      0.5      0.5     C
C       0.1976   0.2583     0.75     C
C       0.1976   0.7417     0.25     C
C       0.2016  0.25889   0.6162     C
C       0.2016  0.25889   0.8838     C
C       0.2016  0.74111   0.1162     C
C       0.2016  0.74111   0.3838     C
H       0.2027    0.444   0.5334     H
H       0.2027    0.444   0.9666     H
H       0.2027    0.556   0.0334     H
H       0.2027    0.556   0.4666     H
C       0.2057  0.18365   0.0223     C
C       0.2057  0.18365   0.4777     C
C       0.2057  0.81635   0.5223     C
C       0.2057  0.81635   0.9777     C
C       0.2091   0.1087   0.0186     C
C       0.2091   0.1087   0.4814     C
C       0.2091   0.8913   0.5186     C
C       0.2091   0.8913   0.9814     C
Cu     0.20979  0.26764  0.03475    Cu
Cu     0.20979  0.26764  0.46525    Cu
Cu     0.20979  0.73236  0.53475    Cu
Cu     0.20979  0.73236  0.96525    Cu
C       0.2216  0.03502   0.0187     C
C       0.2216  0.03502   0.4813     C
C       0.2216  0.96498   0.5187     C
C       0.2216  0.96498   0.9813     C
C       0.2221  0.46637   0.5194     C
C       0.2221  0.46637   0.9806     C
C       0.2221  0.53363   0.0194     C
C       0.2221  0.53363   0.4806     C
H       0.2305    0.245     0.75     H
H       0.2305    0.755     0.25     H
H       0.2389   0.1107   0.5114     H
H       0.2389   0.1107   0.9886     H
H       0.2389   0.8893   0.0114     H
H       0.2389   0.8893   0.4886     H
O      0.24664  0.24208   0.6196     O
O      0.24664  0.24208   0.8804     O
O      0.24664  0.75792   0.1196     O
O      0.24664  0.75792   0.3804     O
O      0.24918  0.18359   0.5138     O
O      0.24918  0.18359   0.9862     O
O      0.24918  0.81641   0.0138     O
O      0.24918  0.81641   0.4862     O
O      0.25082  0.31641   0.0138     O
O      0.25082  0.31641   0.4862     O
O      0.25082  0.68359   0.5138     O
O      0.25082  0.68359   0.9862     O
O      0.25336  0.25792   0.1196     O
O      0.25336  0.25792   0.3804     O
O      0.25336  0.74208   0.6196     O
O      0.25336  0.74208   0.8804     O
H       0.2611   0.3893   0.0114     H
H       0.2611   0.3893   0.4886     H
H       0.2611   0.6107   0.5114     H
H       0.2611   0.6107   0.9886     H
H       0.2695    0.255     0.25     H
H       0.2695    0.745     0.75     H
C       0.2779  0.03363   0.0194     C
C       0.2779  0.03363   0.4806     C
C       0.2779  0.96637   0.5194     C
C       0.2779  0.96637   0.9806     C
C       0.2784  0.46498   0.5187     C
C       0.2784  0.46498   0.9813     C
C       0.2784  0.53502   0.0187     C
C       0.2784  0.53502   0.4813     C
Cu     0.29021  0.23236  0.53475    Cu
Cu     0.29021  0.23236  0.96525    Cu
Cu     0.29021  0.76764  0.03475    Cu
Cu     0.29021  0.76764  0.46525    Cu
C       0.2909   0.3913   0.5186     C
C       0.2909   0.3913   0.9814     C
C       0.2909   0.6087   0.0186     C
C       0.2909   0.6087   0.4814     C
C       0.2943  0.31635   0.5223     C
C       0.2943  0.31635   0.9777     C
C       0.2943  0.68365   0.0223     C
C       0.2943  0.68365   0.4777     C
H       0.2973    0.056   0.0334     H
H       0.2973    0.056   0.4666     H
H       0.2973    0.944   0.5334     H
H       0.2973    0.944   0.9666     H
C       0.2984  0.24111   0.1162     C
C       0.2984  0.24111   0.3838     C
C       0.2984  0.75889   0.6162     C
C       0.2984  0.75889   0.8838     C
C       0.3024   0.2417     0.25     C
C       0.3024   0.7583     0.75     C
C       0.3046      0.0      0.0     C
C       0.3046      0.0      0.5     C
C       0.3055      0.5      0.0     C
C       0.3055      0.5      0.5     C
C       0.3084   0.4285   0.5397     C
C       0.3084   0.4285   0.9603     C
C       0.3084   0.5715   0.0397     C
C       0.3084   0.5715   0.4603     C
C       0.3165  0.35672   0.5412     C
C       0.3165  0.35672   0.9588     C
C       0.3165  0.64328   0.0412     C
C       0.3165  0.64328   0.4588     C
O      0.31847  0.28646   0.5453     O
O      0.31847  0.28646   0.9547     O
O      0.31847  0.71354   0.0453     O
O      0.31847  0.71354   0.4547     O
O      0.32202  0.22896   0.0602     O
O      0.32202  0.22896   0.4398     O
O      0.32202  0.77104   0.5602     O
O      0.32202  0.77104   0.9398     O
C       0.3258  0.23223   0.1859     C
C       0.3258  0.23223   0.3141     C
C       0.3258  0.76777   0.6859     C
C       0.3258  0.76777   0.8141     C
H        0.343      0.5      0.0     H
H        0.343      0.5      0.5     H
C       0.3533  0.43011    0.583     C
C       0.3533  0.43011    0.917     C
C       0.3533  0.56989    0.083     C
C       0.3533  0.56989    0.417     C
C       0.3608  0.35943    0.584     C
C       0.3608  0.35943    0.916     C
C       0.3608  0.64057    0.084     C
C       0.3608  0.64057    0.416     C
C       0.3652      0.0      0.0     C
C       0.3652      0.0      0.5     C
H        0.366   0.4549   0.5975     H
H        0.366   0.4549   0.9025     H
H        0.366   0.5451   0.0975     H
H        0.366   0.5451   0.4025     H
C       0.3756  0.21164   0.1882     C
C       0.3756  0.21164   0.3118     C
C       0.3756  0.78836   0.6882     C
C       0.3756  0.78836   0.8118     C
H       0.3783   0.3363   0.5987     H
H       0.3783   0.3363   0.9013     H
H       0.3783   0.6637   0.0987     H
H       0.3783   0.6637   0.4013     H
C         0.38  0.39637   0.6058     C
C         0.38  0.39637   0.8942     C
C         0.38  0.60363   0.1058     C
C         0.38  0.60363   0.3942     C
O       0.3886   0.0296   0.0157     O
O       0.3886   0.0296   0.4843     O
O       0.3886   0.9704   0.5157     O
O       0.3886   0.9704   0.9843     O
H        0.392   0.2052    0.145     H
H        0.392   0.2052    0.355     H
H        0.392   0.7948    0.645     H
H        0.392   0.7948    0.855     H
C        0.401   0.2007     0.25     C
C        0.401   0.7993     0.75     C
H       0.4187   0.1327    0.182     H
H       0.4187   0.1327    0.318     H
H       0.4187   0.8673    0.682     H
H       0.4187   0.8673    0.818     H
C       0.4268  0.39856   0.6568     C
C       0.4268  0.39856   0.8432     C
C       0.4268  0.60144   0.1568     C
C       0.4268  0.60144   0.3432     C
O      0.44378  0.43168   0.6764     O
O      0.44378  0.43168   0.8236     O
O      0.44378  0.56832   0.1764     O
O      0.44378  0.56832   0.3236     O
O      0.44509  0.36501   0.6776     O
O      0.44509  0.36501   0.8224     O
O      0.44509  0.63499   0.1776     O
O      0.44509  0.63499   0.3224     O
C       0.4513   0.1424   0.1991     C
C       0.4513   0.1424   0.3009     C
C       0.4513   0.8576   0.6991     C
C       0.4513   0.8576   0.8009     C
C       0.4515   0.1791     0.25     C
C       0.4515   0.8209     0.75     C
O        0.458   0.0706   0.1293     O
O        0.458   0.0706   0.3707     O
O        0.458   0.9294   0.6293     O
O        0.458   0.9294   0.8707     O
C          0.5   0.0865    0.134     C
C          0.5   0.0865    0.366     C
C          0.5   0.1235    0.178     C
C          0.5   0.1235    0.322     C
C          0.5   0.1958     0.25     C
H          0.5   0.2235     0.25     H
Cu         0.5  0.35895     0.75    Cu
Cu         0.5  0.43796     0.75    Cu
Cu         0.5  0.56204     0.25    Cu
Cu         0.5  0.64105     0.25    Cu
H          0.5   0.7765     0.75     H
C          0.5   0.8042     0.75     C
C          0.5   0.8765    0.678     C
C          0.5   0.8765    0.822     C
C          0.5   0.9135    0.634     C
C          0.5   0.9135    0.866     C
O        0.542   0.0706   0.1293     O
O        0.542   0.0706   0.3707     O
O        0.542   0.9294   0.6293     O
O        0.542   0.9294   0.8707     O
C       0.5485   0.1791     0.25     C
C       0.5485   0.8209     0.75     C
C       0.5487   0.1424   0.1991     C
C       0.5487   0.1424   0.3009     C
C       0.5487   0.8576   0.6991     C
C       0.5487   0.8576   0.8009     C
O      0.55491  0.36501   0.6776     O
O      0.55491  0.36501   0.8224     O
O      0.55491  0.63499   0.1776     O
O      0.55491  0.63499   0.3224     O
O      0.55622  0.43168   0.6764     O
O      0.55622  0.43168   0.8236     O
O      0.55622  0.56832   0.1764     O
O      0.55622  0.56832   0.3236     O
C       0.5732  0.39856   0.6568     C
C       0.5732  0.39856   0.8432     C
C       0.5732  0.60144   0.1568     C
C       0.5732  0.60144   0.3432     C
H       0.5813   0.1327    0.182     H
H       0.5813   0.1327    0.318     H
H       0.5813   0.8673    0.682     H
H       0.5813   0.8673    0.818     H
C        0.599   0.2007     0.25     C
C        0.599   0.7993     0.75     C
H        0.608   0.2052    0.145     H
H        0.608   0.2052    0.355     H
H        0.608   0.7948    0.645     H
H        0.608   0.7948    0.855     H
O       0.6114   0.0296   0.0157     O
O       0.6114   0.0296   0.4843     O
O       0.6114   0.9704   0.5157     O
O       0.6114   0.9704   0.9843     O
C         0.62  0.39637   0.6058     C
C         0.62  0.39637   0.8942     C
C         0.62  0.60363   0.1058     C
C         0.62  0.60363   0.3942     C
H       0.6217   0.3363   0.5987     H
H       0.6217   0.3363   0.9013     H
H       0.6217   0.6637   0.0987     H
H       0.6217   0.6637   0.4013     H
C       0.6244  0.21164   0.1882     C
C       0.6244  0.21164   0.3118     C
C       0.6244  0.78836   0.6882     C
C       0.6244  0.78836   0.8118     C
H        0.634   0.4549   0.5975     H
H        0.634   0.4549   0.9025     H
H        0.634   0.5451   0.0975     H
H        0.634   0.5451   0.4025     H
C       0.6348      0.0      0.0     C
C       0.6348      0.0      0.5     C
C       0.6392  0.35943    0.584     C
C       0.6392  0.35943    0.916     C
C       0.6392  0.64057    0.084     C
C       0.6392  0.64057    0.416     C
C       0.6467  0.43011    0.583     C
C       0.6467  0.43011    0.917     C
C       0.6467  0.56989    0.083     C
C       0.6467  0.56989    0.417     C
H        0.657      0.5      0.0     H
H        0.657      0.5      0.5     H
C       0.6742  0.23223   0.1859     C
C       0.6742  0.23223   0.3141     C
C       0.6742  0.76777   0.6859     C
C       0.6742  0.76777   0.8141     C
O      0.67798  0.22896   0.0602     O
O      0.67798  0.22896   0.4398     O
O      0.67798  0.77104   0.5602     O
O      0.67798  0.77104   0.9398     O
O      0.68153  0.28646   0.5453     O
O      0.68153  0.28646   0.9547     O
O      0.68153  0.71354   0.0453     O
O      0.68153  0.71354   0.4547     O
C       0.6835  0.35672   0.5412     C
C       0.6835  0.35672   0.9588     C
C       0.6835  0.64328   0.0412     C
C       0.6835  0.64328   0.4588     C
C       0.6916   0.4285   0.5397     C
C       0.6916   0.4285   0.9603     C
C       0.6916   0.5715   0.0397     C
C       0.6916   0.5715   0.4603     C
C       0.6945      0.5      0.0     C
C       0.6945      0.5      0.5     C
C       0.6954      0.0      0.0     C
C       0.6954      0.0      0.5     C
C       0.6976   0.2417     0.25     C
C       0.6976   0.7583     0.75     C
C       0.7016  0.24111   0.1162     C
C       0.7016  0.24111   0.3838     C
C       0.7016  0.75889   0.6162     C
C       0.7016  0.75889   0.8838     C
H       0.7027    0.056   0.0334     H
H       0.7027    0.056   0.4666     H
H       0.7027    0.944   0.5334     H
H       0.7027    0.944   0.9666     H
C       0.7057  0.31635   0.5223     C
C       0.7057  0.31635   0.9777     C
C       0.7057  0.68365   0.0223     C
C       0.7057  0.68365   0.4777     C
C       0.7091   0.3913   0.5186     C
C       0.7091   0.3913   0.9814     C
C       0.7091   0.6087   0.0186     C
C       0.7091   0.6087   0.4814     C
Cu     0.70979  0.23236  0.53475    Cu
Cu     0.70979  0.23236  0.96525    Cu
Cu     0.70979  0.76764  0.03475    Cu
Cu     0.70979  0.76764  0.46525    Cu
C       0.7216  0.46498   0.5187     C
C       0.7216  0.46498   0.9813     C
C       0.7216  0.53502   0.0187     C
C       0.7216  0.53502   0.4813     C
C       0.7221  0.03363   0.0194     C
C       0.7221  0.03363   0.4806     C
C       0.7221  0.96637   0.5194     C
C       0.7221  0.96637   0.9806     C
H       0.7305    0.255     0.25     H
H       0.7305    0.745     0.75     H
H       0.7389   0.3893   0.0114     H
H       0.7389   0.3893   0.4886     H
H       0.7389   0.6107   0.5114     H
H       0.7389   0.6107   0.9886     H
O      0.74664  0.25792   0.1196     O
O      0.74664  0.25792   0.3804     O
O      0.74664  0.74208   0.6196     O
O      0.74664  0.74208   0.8804     O
O      0.74918  0.31641   0.0138     O
O      0.74918  0.31641   0.4862     O
O      0.74918  0.68359   0.5138     O
O      0.74918  0.68359   0.9862     O
O      0.75082  0.18359   0.5138     O
O      0.75082  0.18359   0.9862     O
O      0.75082  0.81641   0.0138     O
O      0.75082  0.81641   0.4862     O
O      0.75336  0.24208   0.6196     O
O      0.75336  0.24208   0.8804     O
O      0.75336  0.75792   0.1196     O
O      0.75336  0.75792   0.3804     O
H       0.7611   0.1107   0.5114     H
H       0.7611   0.1107   0.9886     H
H       0.7611   0.8893   0.0114     H
H       0.7611   0.8893   0.4886     H
H       0.7695    0.245     0.75     H
H       0.7695    0.755     0.25     H
C       0.7779  0.46637   0.5194     C
C       0.7779  0.46637   0.9806     C
C       0.7779  0.53363   0.0194     C
C       0.7779  0.53363   0.4806     C
C       0.7784  0.03502   0.0187     C
C       0.7784  0.03502   0.4813     C
C       0.7784  0.96498   0.5187     C
C       0.7784  0.96498   0.9813     C
Cu     0.79021  0.26764  0.03475    Cu
Cu     0.79021  0.26764  0.46525    Cu
Cu     0.79021  0.73236  0.53475    Cu
Cu     0.79021  0.73236  0.96525    Cu
C       0.7909   0.1087   0.0186     C
C       0.7909   0.1087   0.4814     C
C       0.7909   0.8913   0.5186     C
C       0.7909   0.8913   0.9814     C
C       0.7943  0.18365   0.0223     C
C       0.7943  0.18365   0.4777     C
C       0.7943  0.81635   0.5223     C
C       0.7943  0.81635   0.9777     C
H       0.7973    0.444   0.5334     H
H       0.7973    0.444   0.9666     H
H       0.7973    0.556   0.0334     H
H       0.7973    0.556   0.4666     H
C       0.7984  0.25889   0.6162     C
C       0.7984  0.25889   0.8838     C
C       0.7984  0.74111   0.1162     C
C       0.7984  0.74111   0.3838     C
C       0.8024   0.2583     0.75     C
C       0.8024   0.7417     0.25     C
C       0.8046      0.5      0.0     C
C       0.8046      0.5      0.5     C
C       0.8055      0.0      0.0     C
C       0.8055      0.0      0.5     C
C       0.8084   0.0715   0.0397     C
C       0.8084   0.0715   0.4603     C
C       0.8084   0.9285   0.5397     C
C       0.8084   0.9285   0.9603     C
C       0.8165  0.14328   0.0412     C
C       0.8165  0.14328   0.4588     C
C       0.8165  0.85672   0.5412     C
C       0.8165  0.85672   0.9588     C
O      0.81847  0.21354   0.0453     O
O      0.81847  0.21354   0.4547     O
O      0.81847  0.78646   0.5453     O
O      0.81847  0.78646   0.9547     O
O      0.82202  0.27104   0.5602     O
O      0.82202  0.27104   0.9398     O
O      0.82202  0.72896   0.0602     O
O      0.82202  0.72896   0.4398     O
C       0.8258  0.26777   0.6859     C
C       0.8258  0.26777   0.8141     C
C       0.8258  0.73223   0.1859     C
C       0.8258  0.73223   0.3141     C
H        0.843      0.0      0.0     H
H        0.843      0.0      0.5     H
C       0.8533  0.06989    0.083     C
C       0.8533  0.06989    0.417     C
C       0.8533  0.93011    0.583     C
C       0.8533  0.93011    0.917     C
C       0.8608  0.14057    0.084     C
C       0.8608  0.14057    0.416     C
C       0.8608  0.85943    0.584     C
C       0.8608  0.85943    0.916     C
C       0.8652      0.5      0.0     C
C       0.8652      0.5      0.5     C
H        0.866   0.0451   0.0975     H
H        0.866   0.0451   0.4025     H
H        0.866   0.9549   0.5975     H
H        0.866   0.9549   0.9025     H
C       0.8756  0.28836   0.6882     C
C       0.8756  0.28836   0.8118     C
C       0.8756  0.71164   0.1882     C
C       0.8756  0.71164   0.3118     C
H       0.8783   0.1637   0.0987     H
H       0.8783   0.1637   0.4013     H
H       0.8783   0.8363   0.5987     H
H       0.8783   0.8363   0.9013     H
C         0.88  0.10363   0.1058     C
C         0.88  0.10363   0.3942     C
C         0.88  0.89637   0.6058     C
C         0.88  0.89637   0.8942     C
O       0.8886   0.4704   0.5157     O
O       0.8886   0.4704   0.9843     O
O       0.8886   0.5296   0.0157     O
O       0.8886   0.5296   0.4843     O
H        0.892   0.2948    0.645     H
H        0.892   0.2948    0.855     H
H        0.892   0.7052    0.145     H
H        0.892   0.7052    0.355     H
C        0.901   0.2993     0.75     C
C        0.901   0.7007     0.25     C
H       0.9187   0.3673    0.682     H
H       0.9187   0.3673    0.818     H
H       0.9187   0.6327    0.182     H
H       0.9187   0.6327    0.318     H
C       0.9268  0.10144   0.1568     C
C       0.9268  0.10144   0.3432     C
C       0.9268  0.89856   0.6568     C
C       0.9268  0.89856   0.8432     C
O      0.94378  0.06832   0.1764     O
O      0.94378  0.06832   0.3236     O
O      0.94378  0.93168   0.6764     O
O      0.94378  0.93168   0.8236     O
O      0.94509  0.13499   0.1776     O
O      0.94509  0.13499   0.3224     O
O      0.94509  0.86501   0.6776     O
O      0.94509  0.86501   0.8224     O
C       0.9513   0.3576   0.6991     C
C       0.9513   0.3576   0.8009     C
C       0.9513   0.6424   0.1991     C
C       0.9513   0.6424   0.3009     C
C       0.9515   0.3209     0.75     C
C       0.9515   0.6791     0.25     C
O        0.958   0.4294   0.6293     O
O        0.958   0.4294   0.8707     O
O        0.958   0.5706   0.1293     O
O        0.958   0.5706   0.3707     O
