data_I
_chemical_name_common  '/home/zhangsd/repos/MofS-CGCNN/ML/data/TSD/clean_cifs/VOGTIV_clean_h'
_cell_length_a  6.75880
_cell_length_b 15.19410
_cell_length_c 15.19410
_cell_angle_alpha 62.15890
_cell_angle_beta  81.47290
_cell_angle_gamma 98.52710
_space_group_name_H-M_alt      'P 1'


loop_
_space_group_symop_operation_xyz
  'x, y, z' 

loop_
_atom_site_label
_atom_site_fract_x
_atom_site_fract_y
_atom_site_fract_z
_atom_site_type_symbol
O      0.02844  0.63127  0.84375     O
Mg     0.03026   0.7344  0.57976    Mg
C      0.06425  0.43793  0.46778     C
H      0.10475  0.98636  0.56129     H
C      0.10932  0.53771  0.55115     C
H      0.11838  0.45235  0.98636     H
O      0.12781  0.15625  0.47502     O
O      0.13501  0.37149  0.43866     O
C      0.14793  0.38268  0.17929     C
O       0.1727   0.3524    0.267     O
O       0.1797   0.6194   0.6476     O
C      0.19112  0.46424  0.52358     C
C      0.23475  0.56197  0.61732     C
O      0.23648  0.81015  0.62851     O
C      0.27312  0.98782  0.53576     C
C       0.2853  0.47642  0.98782     C
Mg     0.29586  0.68584   0.7344    Mg
C      0.32722  0.17929  0.43803     C
H      0.32957  0.43019  0.54037     H
C      0.33953  0.44885  0.08886     C
C      0.37368  0.90571  0.56207     C
Mg     0.38998  0.42024  0.31416    Mg
O      0.39717  0.52498  0.63127     O
O      0.42633  0.56134  0.81015     O
C      0.42839  0.08886  0.46229     C
O       0.4397    0.267   0.3806     O
C      0.46797  0.53222  0.90571     C
C      0.53203  0.46778  0.09429     C
O       0.5603    0.733   0.6194     O
C      0.57161  0.91114  0.53771     C
O      0.57367  0.43866  0.18985     O
O      0.60283  0.47502  0.36873     O
Mg     0.61002  0.57976  0.68584    Mg
C      0.62632  0.09429  0.43793     C
C      0.66047  0.55115  0.91114     C
H      0.66603  0.56129  0.45235     H
C      0.67278  0.82071  0.56197     C
Mg     0.70414  0.31416   0.2656    Mg
C       0.7147  0.52358  0.01218     C
C      0.72688  0.01218  0.46424     C
O      0.76352  0.18985  0.37149     O
C      0.76525  0.43803  0.38268     C
C      0.80888  0.53576  0.47642     C
O       0.8203   0.3806   0.3524     O
O       0.8273   0.6476    0.733     O
C      0.85207  0.61732  0.82071     C
O      0.86499  0.62851  0.56134     O
H      0.86994  0.54037  0.02945     H
O      0.87219  0.84375  0.52498     O
C      0.89068  0.46229  0.44885     C
H      0.89525  0.01364  0.43871     H
C      0.93575  0.56207  0.53222     C
Mg     0.96974   0.2656  0.42024    Mg
O      0.97156  0.36873  0.15625     O
