data_I
_chemical_name_common  '/home/zhangsd/repos/MofS-CGCNN/ML/data/TSD/clean_cifs/VOXVEL_clean'
_cell_length_a 14.69580
_cell_length_b 11.64510
_cell_length_c 20.59120
_cell_angle_alpha 90.00000
_cell_angle_beta  93.81100
_cell_angle_gamma 90.00000
_space_group_name_H-M_alt      'P 1'


loop_
_space_group_symop_operation_xyz
  'x, y, z' 

loop_
_atom_site_label
_atom_site_fract_x
_atom_site_fract_y
_atom_site_fract_z
_atom_site_type_symbol
H       0.0015   0.3112   0.4518     H
H       0.0015   0.6888   0.9518     H
P      0.02723  0.36954  0.16128     P
P      0.02723  0.63046  0.66128     P
O        0.041   0.0672  0.20654     O
O        0.041   0.9328  0.70654     O
H       0.0454   0.3502    0.318     H
H       0.0454   0.6498    0.818     H
O       0.0551   0.2996  0.22194     O
O       0.0551   0.7004  0.72194     O
O       0.0622   0.3439   0.3566     O
O       0.0622   0.6561   0.8566     O
O       0.0636   0.2034  0.54467     O
O       0.0636   0.7966  0.04467     O
Be      0.1006   0.1732   0.2352    Be
Be      0.1006   0.8268   0.7352    Be
O        0.113   0.4188  0.13022     O
O        0.113   0.5812  0.63022     O
O       0.1164   0.1608   0.3131     O
O       0.1164   0.8392   0.8131     O
O       0.1271   0.2024  0.42943     O
O       0.1271   0.7976  0.92943     O
P       0.1358  0.25094  0.36466     P
P       0.1358  0.74906  0.86466     P
Be      0.1551   0.2183   0.5064    Be
Be      0.1551   0.7817   0.0064    Be
H        0.156   0.3745    0.137     H
H        0.156   0.6255    0.637     H
O       0.1862   0.0329   0.6309     O
O       0.1862   0.9671   0.1309     O
O       0.1977   0.3457  0.52157     O
O       0.1977   0.6543  0.02157     O
O        0.198   0.1609  0.20187     O
O        0.198   0.8391  0.70187     O
H       0.2035   0.0263   0.1493     H
H       0.2035   0.9737   0.6493     H
O       0.2255   0.1164  0.52525     O
O       0.2255   0.8836  0.02525     O
O        0.227   0.3063   0.3577     O
O        0.227   0.6937   0.8577     O
P      0.26498  0.08341  0.59238     P
P      0.26498  0.91659  0.09238     P
H       0.2699   0.2873   0.2844     H
H       0.2699   0.7127   0.7844     H
O       0.2745   0.3082  0.13801     O
O       0.2745   0.6918  0.63801     O
H       0.2781   0.3994   0.4245     H
H       0.2781   0.6006   0.9245     H
O       0.2792   0.4754  0.05874     O
O       0.2792   0.5246  0.55874     O
P       0.2854  0.41309  0.52246     P
P       0.2854  0.58691  0.02246     P
P      0.28683  0.22732  0.19556     P
P      0.28683  0.77268  0.69556     P
O       0.2981   0.1892  0.63098     O
O       0.2981   0.8108  0.13098     O
O       0.3039   0.4457  0.44947     O
O       0.3039   0.5543  0.94947     O
O       0.3078   0.3011  0.25794     O
O       0.3078   0.6989  0.75794     O
O       0.3397   0.0045  0.08553     O
O       0.3397   0.9955  0.58553     O
Be      0.3472   0.3857   0.0961    Be
Be      0.3472   0.6143   0.5961    Be
O       0.3643   0.1447  0.19057     O
O       0.3643   0.8553  0.69057     O
O       0.3677   0.3427  0.54827     O
O       0.3677   0.6573  0.04827     O
H       0.3799    0.433   0.2581     H
H       0.3799    0.567   0.7581     H
Be      0.3815   0.2744    0.617    Be
Be      0.3815   0.7256    0.117    Be
O        0.384   0.3573   0.6802     O
O        0.384   0.6427   0.1802     O
O       0.3939   0.3073  0.04522     O
O       0.3939   0.6927  0.54522     O
O       0.4111   0.4909  0.26397     O
O       0.4111   0.5091  0.76397     O
Be      0.4145   0.0691   0.1378    Be
Be      0.4145   0.9309   0.6378    Be
O       0.4258   0.4429  0.14651     O
O       0.4258   0.5571  0.64651     O
P      0.44169  0.46336  0.69596     P
P      0.44169  0.53664  0.19596     P
O       0.4623   0.1673  0.97564     O
O       0.4623   0.8327  0.47564     O
O       0.4714    0.029  0.68074     O
O       0.4714    0.971  0.18074     O
P      0.47546  0.22986  0.04238     P
P      0.47546  0.77014  0.54238     P
O       0.4774   0.2055  0.61024     O
O       0.4774   0.7945  0.11024     O
O         0.48   0.1408  0.09486     O
O         0.48   0.8592  0.59486     O
H       0.5015   0.1888   0.9518     H
H       0.5015   0.8112   0.4518     H
P      0.52723  0.13046  0.66128     P
P      0.52723  0.86954  0.16128     P
O        0.541   0.4328  0.70654     O
O        0.541   0.5672  0.20654     O
H       0.5454   0.1498    0.818     H
H       0.5454   0.8502    0.318     H
O       0.5551   0.2004  0.72194     O
O       0.5551   0.7996  0.22194     O
O       0.5622   0.1561   0.8566     O
O       0.5622   0.8439   0.3566     O
O       0.5636   0.2966  0.04467     O
O       0.5636   0.7034  0.54467     O
Be      0.6006   0.3268   0.7352    Be
Be      0.6006   0.6732   0.2352    Be
O        0.613   0.0812  0.63022     O
O        0.613   0.9188  0.13022     O
O       0.6164   0.3392   0.8131     O
O       0.6164   0.6608   0.3131     O
O       0.6271   0.2976  0.92943     O
O       0.6271   0.7024  0.42943     O
P       0.6358  0.24906  0.86466     P
P       0.6358  0.75094  0.36466     P
Be      0.6551   0.2817   0.0064    Be
Be      0.6551   0.7183   0.5064    Be
H        0.656   0.1255    0.637     H
H        0.656   0.8745    0.137     H
O       0.6862   0.4671   0.1309     O
O       0.6862   0.5329   0.6309     O
O       0.6977   0.1543  0.02157     O
O       0.6977   0.8457  0.52157     O
O        0.698   0.3391  0.70187     O
O        0.698   0.6609  0.20187     O
H       0.7035   0.4737   0.6493     H
H       0.7035   0.5263   0.1493     H
O       0.7255   0.3836  0.02525     O
O       0.7255   0.6164  0.52525     O
O        0.727   0.1937   0.8577     O
O        0.727   0.8063   0.3577     O
P      0.76498  0.41659  0.09238     P
P      0.76498  0.58341  0.59238     P
H       0.7699   0.2127   0.7844     H
H       0.7699   0.7873   0.2844     H
O       0.7745   0.1918  0.63801     O
O       0.7745   0.8082  0.13801     O
H       0.7781   0.1006   0.9245     H
H       0.7781   0.8994   0.4245     H
O       0.7792   0.0246  0.55874     O
O       0.7792   0.9754  0.05874     O
P       0.7854  0.08691  0.02246     P
P       0.7854  0.91309  0.52246     P
P      0.78683  0.27268  0.69556     P
P      0.78683  0.72732  0.19556     P
O       0.7981   0.3108  0.13098     O
O       0.7981   0.6892  0.63098     O
O       0.8039   0.0543  0.94947     O
O       0.8039   0.9457  0.44947     O
O       0.8078   0.1989  0.75794     O
O       0.8078   0.8011  0.25794     O
O       0.8397   0.4955  0.58553     O
O       0.8397   0.5045  0.08553     O
Be      0.8472   0.1143   0.5961    Be
Be      0.8472   0.8857   0.0961    Be
O       0.8643   0.3553  0.69057     O
O       0.8643   0.6447  0.19057     O
O       0.8677   0.1573  0.04827     O
O       0.8677   0.8427  0.54827     O
H       0.8799    0.067   0.7581     H
H       0.8799    0.933   0.2581     H
Be      0.8815   0.2256    0.117    Be
Be      0.8815   0.7744    0.617    Be
O        0.884   0.1427   0.1802     O
O        0.884   0.8573   0.6802     O
O       0.8939   0.1927  0.54522     O
O       0.8939   0.8073  0.04522     O
O       0.9111   0.0091  0.76397     O
O       0.9111   0.9909  0.26397     O
Be      0.9145   0.4309   0.6378    Be
Be      0.9145   0.5691   0.1378    Be
O       0.9258   0.0571  0.64651     O
O       0.9258   0.9429  0.14651     O
P      0.94169  0.03664  0.19596     P
P      0.94169  0.96336  0.69596     P
O       0.9623   0.3327  0.47564     O
O       0.9623   0.6673  0.97564     O
O       0.9714    0.471  0.18074     O
O       0.9714    0.529  0.68074     O
P      0.97546  0.27014  0.54238     P
P      0.97546  0.72986  0.04238     P
O       0.9774   0.2945  0.11024     O
O       0.9774   0.7055  0.61024     O
O         0.98   0.3592  0.59486     O
O         0.98   0.6408  0.09486     O
