data_I
_chemical_name_common  '/home/zhangsd/repos/MofS-CGCNN/ML/data/TSD/clean_cifs/VUKJOC_clean'
_cell_length_a 15.94510
_cell_length_b 28.14800
_cell_length_c 23.41600
_cell_angle_alpha 90.00000
_cell_angle_beta  107.83700
_cell_angle_gamma 90.00000
_space_group_name_H-M_alt      'P 1'


loop_
_space_group_symop_operation_xyz
  'x, y, z' 

loop_
_atom_site_label
_atom_site_fract_x
_atom_site_fract_y
_atom_site_fract_z
_atom_site_type_symbol
H       0.0004   0.6711   0.5553     H
C       0.0011   0.2633   0.8144     C
C       0.0085   0.0689   0.1455     C
C        0.009   0.6897    0.174     C
C       0.0093   0.3569   0.5808     C
H       0.0111   0.0966   0.9813     H
C       0.0152   0.0281   0.1788     C
O       0.0157  0.60245  0.87616     O
C       0.0162   0.6568   0.5242     C
C       0.0207   0.9486   0.6145     C
O       0.0241  0.17274  0.77245     O
O       0.0242  0.11095  0.66499     O
H       0.0267   0.2611   0.6337     H
O        0.029  0.94125  0.24149     O
C       0.0308   0.0323   0.6297     C
C       0.0328   0.3345   0.5351     C
O       0.0367   0.4136  0.34795     O
C       0.0386  0.05091   0.8011     C
H       0.0394   0.9181   0.6281     H
C         0.04    0.962   0.4215     C
C       0.0424   0.0082   0.8396     C
O       0.0427  0.30744  0.35205     O
H       0.0444   0.8933   0.1222     H
H       0.0467   0.0942   0.1596     H
C       0.0469   0.8936    0.036     C
C       0.0483   0.0449   0.4378     C
H       0.0483   0.7562   0.1972     H
O       0.0503   0.3869   0.8535     O
O       0.0518  0.41192  0.25745     O
O       0.0546   0.3518   0.6397     O
C       0.0549   0.9285   0.9085     C
O       0.0571  0.30869  0.26177     O
C        0.058   0.6117   0.4315     C
O       0.0586  0.88584   0.9393     O
Tb     0.06013  0.64079  0.71878    Tb
H       0.0604   0.0254   0.2149     H
C        0.061   0.9878    0.646     C
H        0.062   0.9317    0.433     H
C       0.0628  0.33905    0.842     C
H       0.0645   0.6776    0.177     H
C       0.0699   0.0748   0.6672     C
H       0.0706   0.5954   0.4006     H
C       0.0707  0.42977   0.3109     C
H       0.0712   0.4729   0.8774     H
C       0.0764  0.29104   0.3148     C
C       0.0782  0.42115   0.8199     C
C       0.0784   0.0008   0.4559     C
H        0.079   0.5747    0.113     H
O       0.0791  0.08623   0.4688     O
C       0.0805   0.8881   0.0983     C
H       0.0809    0.314   0.5441     H
H       0.0813   0.3823   0.7496     H
O       0.0813  0.64139  0.82081     O
C        0.082  0.24441   0.8193     C
C       0.0841  0.61689   0.8665     C
C       0.0846  0.46641   0.8422     C
C        0.085   0.2684   0.6544     C
Tb     0.08516  0.86922  0.29299    Tb
C       0.0872  0.62745   0.5365     C
C       0.0914   0.4124   0.7665     C
C       0.0919  0.19401   0.8014     C
H       0.0969   0.4937   0.1275     H
C       0.0979   0.8849   0.0016     C
H       0.1003   0.1544   0.1046     H
O       0.1066  0.07658  0.81407     O
Tb     0.10682  0.35748  0.19479    Tb
C        0.107   0.0045    0.893     C
C       0.1073   0.6043   0.4896     C
H       0.1103   0.9837   0.6793     H
C        0.111  0.50184   0.8117     C
C       0.1118   0.9648   0.9282     C
C        0.113   0.3142   0.6598     C
H       0.1148   0.5327   0.8265     H
H       0.1155   0.8279   0.4286     H
H       0.1157   0.7071   0.3042     H
O        0.117    0.839   0.3951     O
H       0.1192   0.1276   0.5662     H
C       0.1201  0.44856   0.7373     C
O       0.1243   0.7184  0.73868     O
H       0.1246   0.9966   0.4911     H
H        0.125   0.2331   0.1304     H
H       0.1255   0.2012   0.6772     H
H       0.1264   0.4912   0.2448     H
O       0.1289  0.63831  0.64283     O
H       0.1306   0.5673   0.9676     H
H       0.1316   0.4422   0.7014     H
C       0.1321  0.49371   0.7603     C
C       0.1326  0.47115   0.3281     C
C       0.1352  0.56166   0.1259     C
C       0.1356  0.24917     0.33     C
H       0.1399   0.2443   0.4167     H
H       0.1409   0.0109   0.3254     H
H       0.1419   0.6273   0.3249     H
C       0.1439   0.2327     0.68     C
C        0.144   0.3213    0.849     C
C        0.146  0.51327   0.1343     C
C        0.147  0.62002   0.5979     C
H       0.1476   0.2389   0.2497     H
H       0.1479   0.0288   0.9059     H
O       0.1488  0.07106   0.6999     O
C       0.1497   0.4991   0.2852     C
O         0.15   0.7949    0.302     O
O       0.1514  0.87304  0.22044     O
C       0.1533   0.2735   0.8378     C
O       0.1535  0.57488  0.74324     O
H       0.1543   0.9629   0.9656     H
H       0.1549   0.5835   0.4981     H
C       0.1572  0.16497    0.124     C
H       0.1597   0.4629   0.4166     H
H       0.1602   0.0921   0.3358     H
C       0.1607   0.2307   0.3875     C
C        0.163    0.089   0.5089     C
C       0.1648   0.2274   0.2889     C
H       0.1649   0.8543   0.4015     H
C        0.167    0.875    0.124     C
O       0.1679  0.17694  0.81549     O
C       0.1688  0.53211   0.7319     C
C       0.1693   0.1154   0.5591     C
C         0.17  0.48216   0.3872     C
C       0.1722  0.21203   0.1388     C
C       0.1725  0.60663   0.9102     C
C       0.1731  0.69651   0.3214     C
O        0.177  0.41948   0.1707     O
C       0.1807   0.5797   0.9607     C
H       0.1839    0.799   0.7645     H
C       0.1847   0.8729   0.0256     C
O       0.1881  0.63746   0.1229     O
C       0.1885  0.64875   0.3346     C
O       0.1903  0.92227  0.34133     O
H       0.1932   0.3409   0.8612     H
C       0.1974   0.0236   0.3371     C
C       0.1991   0.3269   0.6893     C
C        0.202   0.5396   0.3019     C
C       0.2032  0.70675   0.7615     C
O       0.2041  0.08739    0.119     O
C       0.2041  0.86962   0.1911     C
O       0.2063  0.30525  0.17958     O
C       0.2079  0.59041   0.1365     C
C       0.2089  0.07205   0.3442     C
H       0.2093   0.2611   0.8429     H
H       0.2123   0.5593   0.2728     H
O       0.2153  0.59636  0.60542     O
O       0.2156   0.3629  0.28783     O
O       0.2165  0.52309  0.70024     O
H       0.2168   0.3585   0.6918     H
C       0.2171   0.1919   0.4015     C
C       0.2198    0.868   0.0878     C
H       0.2199    0.868   0.0009     H
Tb     0.22024  0.10566  0.78991    Tb
C       0.2203   0.1881   0.3031     C
H       0.2212     0.36   0.3952     H
C       0.2227  0.52141   0.4035     C
O       0.2266  0.66352  0.76269     O
C       0.2269  0.77971   0.3168     C
C       0.2271  0.13302   0.1378     C
C         0.23  0.49367   0.1528     C
C        0.231  0.24422   0.7099     C
H       0.2313   0.0528   0.4643     H
H       0.2339   0.1796   0.4402     H
C       0.2365   0.0709   0.4984     C
C       0.2378  0.54977   0.3612     C
H       0.2385   0.1731   0.2736     H
C       0.2399   0.4413   0.1613     C
C        0.242   0.7914   0.7852     C
H       0.2422   0.6409   0.8659     H
C       0.2423  0.72877   0.3334     C
C       0.2471   0.6235   0.9005     C
C       0.2472   0.1722     0.36     C
H       0.2482   0.5286   0.4439     H
H       0.2518   0.0286   0.0561     H
C       0.2528   0.6722     0.14     C
C       0.2529   0.1235   0.5995     C
C       0.2577  0.22877   0.1666     C
H       0.2578   0.1409   0.6341     H
C        0.258   0.2914   0.7148     C
C       0.2601   0.9413   0.3387     C
H       0.2615   0.6731   0.2264     H
C       0.2622  0.04977   0.1388     C
C       0.2635   0.5709   0.0016     C
H       0.2661   0.6796   0.0598     H
H       0.2687   0.5528   0.0357     H
C        0.269  0.74422   0.7901     C
C         0.27  0.99367   0.3472     C
C       0.2729  0.63302   0.3622     C
C       0.2731  0.27971   0.1832     C
O       0.2734  0.16352  0.73731     O
C       0.2773  0.02141   0.0965     C
H       0.2788     0.86   0.1048     H
C       0.2797   0.6881   0.1969     C
Tb     0.27976  0.60566  0.71009    Tb
H       0.2801    0.368   0.4991     H
C       0.2802    0.368   0.4122     C
C       0.2829   0.6919   0.0985     C
H       0.2832   0.8585   0.8082     H
O       0.2835  0.02309  0.79976     O
O       0.2844   0.8629  0.21217     O
O       0.2847  0.09636  0.89458     O
H       0.2877   0.0593   0.2272     H
H       0.2907   0.7611   0.6571     H
C       0.2911  0.57205   0.1558     C
C       0.2921  0.09041   0.3635     C
O       0.2937  0.80525  0.32042     O
C       0.2959  0.36962   0.3089     C
O       0.2959  0.58739    0.381     O
C       0.2968  0.20675   0.7385     C
C        0.298   0.0396   0.1981     C
C       0.3009   0.8269   0.8107     C
C       0.3026   0.5236   0.1629     C
H       0.3068   0.8409   0.6388     H
O       0.3097  0.42227  0.15867     O
C       0.3115  0.14875   0.1654     C
O       0.3119  0.13746   0.3771     O
C       0.3153   0.3729   0.4744     C
H       0.3161    0.299   0.7355     H
C       0.3193   0.0797   0.5393     C
O        0.323  0.91948   0.3293     O
C       0.3269  0.19651   0.1786     C
C       0.3275  0.10663   0.5898     C
C       0.3278  0.71203   0.3612     C
C         0.33  0.98216   0.1128     C
C       0.3307   0.6154   0.9409     C
C       0.3312  0.03211   0.7681     C
O       0.3321  0.67694  0.68451     O
C        0.333    0.375    0.376     C
H       0.3351   0.3543   0.0985     H
C       0.3352   0.7274   0.2111     C
C        0.337    0.589   0.9911     C
C       0.3393   0.7307   0.1125     C
H       0.3398   0.5921   0.1642     H
H       0.3403   0.9629   0.0834     H
C       0.3428  0.66497    0.376     C
H       0.3451   0.0835   0.0019     H
H       0.3457   0.4629   0.5344     H
O       0.3465  0.07488  0.75676     O
C       0.3467   0.7735   0.6622     C
O       0.3486  0.37304  0.27956     O
O         0.35   0.2949    0.198     O
C       0.3503   0.9991   0.2148     C
O       0.3512  0.57106   0.8001     O
H       0.3521   0.5288   0.5941     H
H       0.3524   0.7389   0.2503     H
C        0.353  0.12002   0.9021     C
C        0.354  0.01327   0.3657     C
C        0.356   0.8213    0.651     C
C       0.3561   0.7327     0.82     C
H       0.3581   0.1273   0.1751     H
H       0.3591   0.5109   0.1746     H
H       0.3601   0.7443   0.0833     H
C       0.3644  0.74917     0.17     C
C       0.3648  0.06166   0.3741     C
C       0.3674  0.97115   0.1719     C
C       0.3679  0.99371   0.7397     C
H       0.3684   0.9422   0.7986     H
H       0.3694   0.0673   0.5324     H
O       0.3711  0.13831  0.85717     O
H       0.3736   0.9912   0.2552     H
H       0.3745   0.7012   0.8228     H
H        0.375   0.7331   0.3696     H
H       0.3754   0.4966   0.0089     H
O       0.3757   0.2184  0.76132     O
C       0.3799  0.94856   0.7627     C
H       0.3808   0.6276   0.9338     H
O        0.383    0.339   0.1049     O
H       0.3843   0.2071   0.1958     H
H       0.3845   0.3279   0.0714     H
H       0.3852   0.0327   0.6735     H
C        0.387   0.8142   0.8402     C
C       0.3882   0.4648   0.5718     C
C        0.389  0.00184   0.6883     C
H       0.3897   0.4837   0.8207     H
C       0.3927   0.1043   0.0104     C
C        0.393   0.5045    0.607     C
Tb     0.39318  0.85748  0.30521    Tb
O       0.3934  0.57658  0.68593     O
H       0.3997   0.6544   0.3954     H
C       0.4021   0.3849   0.4984     C
H       0.4031   0.9937   0.3725     H
C       0.4081  0.69401   0.6986     C
C       0.4086   0.9124   0.7335     C
C       0.4128  0.12745   0.9635     C
Tb     0.41484  0.36922  0.20701    Tb
C        0.415   0.7684   0.8456     C
C       0.4154  0.96641   0.6578     C
C       0.4159  0.11689   0.6335     C
C        0.418  0.74441   0.6807     C
O       0.4187  0.14139  0.67919     O
H       0.4187   0.8823   0.7504     H
H       0.4191    0.814   0.9559     H
C       0.4195   0.3881   0.4017     C
O       0.4209  0.58623   0.0312     O
H        0.421   0.0747    0.387     H
C       0.4216   0.5008   0.0441     C
C       0.4218  0.92115   0.6801     C
C       0.4236  0.79104   0.1852     C
H       0.4288   0.9729   0.6226     H
C       0.4293  0.92977   0.1891     C
H       0.4294   0.0954   0.0994     H
C       0.4301   0.5748   0.8328     C
H       0.4355   0.1776    0.323     H
C       0.4372  0.83905    0.658     C
H        0.438   0.4317    0.067     H
C        0.439   0.4878    0.854     C
H       0.4396   0.5254   0.2851     H
Tb     0.43987  0.14079  0.78122    Tb
O       0.4414  0.38584   0.5607     O
C        0.442   0.1117   0.0685     C
O       0.4429  0.80869  0.23823     O
C       0.4451   0.4285   0.5915     C
O       0.4454   0.8518   0.8603     O
O       0.4482  0.91192  0.24255     O
O       0.4497   0.8869   0.6465     O
H       0.4517   0.2562   0.3028     H
C       0.4517   0.5449   0.0622     C
C       0.4531   0.3936    0.464     C
H       0.4533   0.5942   0.3404     H
H       0.4556   0.3933   0.3778     H
O       0.4573  0.80744  0.14795     O
C       0.4576   0.5082   0.6604     C
C         0.46    0.462   0.0785     C
H       0.4606   0.4181   0.8719     H
C       0.4614  0.55091   0.6989     C
O       0.4633   0.9136  0.15205     O
C       0.4672   0.8345   0.9649     C
C       0.4692   0.5323   0.8703     C
O        0.471  0.44125  0.25851     O
H       0.4733   0.7611   0.8663     H
O       0.4758  0.61095  0.83501     O
O       0.4759  0.67274  0.72755     O
C       0.4793   0.4486   0.8855     C
C       0.4838   0.1568   0.9758     C
O       0.4843  0.10245  0.62384     O
C       0.4848   0.5281   0.3212     C
H       0.4889   0.5966   0.5187     H
C       0.4907   0.8569   0.9192     C
C        0.491   0.1897    0.326     C
C       0.4915   0.5689   0.3545     C
C       0.4989   0.7633   0.6856     C
H       0.4996   0.1711   0.9447     H
H       0.5004   0.8289   0.0553     H
C       0.5011   0.2367   0.3144     C
C       0.5085   0.4311   0.6455     C
C        0.509   0.8103    0.674     C
C       0.5093   0.1431   0.0808     C
H       0.5111   0.4034   0.4813     H
C       0.5152   0.4719   0.6788     C
O       0.5157  0.89755  0.37616     O
C       0.5162   0.8432   0.0242     C
C       0.5207   0.5514   0.1145     C
O       0.5241  0.32726  0.27245     O
O       0.5242  0.38905  0.16499     O
H       0.5267   0.2389   0.1337     H
O        0.529  0.55875  0.74149     O
C       0.5308   0.4677   0.1297     C
C       0.5328   0.1655   0.0351     C
O       0.5367   0.0864  0.84795     O
C       0.5386  0.44909   0.3011     C
H       0.5394   0.5819   0.1281     H
C         0.54    0.538   0.9215     C
C       0.5424   0.4918   0.3396     C
O       0.5427  0.19256  0.85205     O
H       0.5444   0.6067   0.6222     H
H       0.5467   0.4058   0.6596     H
C       0.5469   0.6064    0.536     C
C       0.5483   0.4551   0.9378     C
H       0.5483   0.7438   0.6972     H
O       0.5503   0.1131   0.3535     O
O       0.5518  0.08808  0.75745     O
O       0.5546   0.1482   0.1397     O
C       0.5549   0.5715   0.4085     C
O       0.5571  0.19131  0.76177     O
C        0.558   0.8883   0.9315     C
O       0.5586  0.61416   0.4393     O
Tb     0.56013  0.85921  0.21878    Tb
H       0.5604   0.4746   0.7149     H
C        0.561   0.5122    0.146     C
H        0.562   0.5683    0.933     H
C       0.5628  0.16095    0.342     C
H       0.5645   0.8224    0.677     H
C       0.5699   0.4252   0.1672     C
H       0.5706   0.9046   0.9006     H
C       0.5707  0.07023   0.8109     C
H       0.5712   0.0271   0.3774     H
C       0.5764  0.20896   0.8148     C
C       0.5782  0.07885   0.3199     C
C       0.5784   0.4992   0.9559     C
H        0.579   0.9253    0.613     H
O       0.5791  0.41377   0.9688     O
C       0.5805   0.6119   0.5983     C
H       0.5809    0.186   0.0441     H
H       0.5813   0.1177   0.2496     H
O       0.5813  0.85861  0.32081     O
C        0.582  0.25559   0.3193     C
C       0.5841  0.88311   0.3665     C
C       0.5846  0.03359   0.3422     C
C        0.585   0.2316   0.1544     C
Tb     0.58516  0.63078  0.79299    Tb
C       0.5872  0.87255   0.0365     C
C       0.5914   0.0876   0.2665     C
C       0.5919  0.30599   0.3014     C
H       0.5969   0.0063   0.6275     H
C       0.5979   0.6151   0.5016     C
H       0.6003   0.3456   0.6046     H
O       0.6066  0.42342  0.31407     O
Tb     0.60682  0.14252  0.69479    Tb
C        0.607   0.4955    0.393     C
C       0.6073   0.8957   0.9896     C
H       0.6103   0.5163   0.1793     H
C        0.611  0.99816   0.3117     C
C       0.6118   0.5352   0.4282     C
C        0.613   0.1858   0.1598     C
H       0.6148   0.9673   0.3265     H
H       0.6155   0.6721   0.9286     H
H       0.6157   0.7929   0.8042     H
O        0.617    0.661   0.8951     O
H       0.6192   0.3724   0.0662     H
C       0.6201  0.05144   0.2373     C
O       0.6243   0.7816  0.23868     O
H       0.6246   0.5034   0.9911     H
H        0.625   0.2669   0.6304     H
H       0.6255   0.2988   0.1772     H
H       0.6264   0.0088   0.7448     H
O       0.6289  0.86169  0.14283     O
H       0.6306   0.9327   0.4676     H
H       0.6316   0.0578   0.2014     H
C       0.6321  0.00629   0.2603     C
C       0.6326  0.02885   0.8281     C
C       0.6352  0.93834   0.6259     C
C       0.6356  0.25083     0.83     C
H       0.6399   0.2557   0.9167     H
H       0.6409   0.4891   0.8254     H
H       0.6419   0.8727   0.8249     H
C       0.6439   0.2673     0.18     C
C        0.644   0.1787    0.349     C
C        0.646  0.98673   0.6343     C
C        0.647  0.87998   0.0979     C
H       0.6476   0.2611   0.7497     H
H       0.6479   0.4712   0.4059     H
O       0.6488  0.42894   0.1999     O
C       0.6497   0.0009   0.7852     C
O         0.65   0.7051    0.802     O
O       0.6514  0.62696  0.72044     O
C       0.6533   0.2265   0.3378     C
O       0.6535  0.92512  0.24324     O
H       0.6543   0.5371   0.4656     H
H       0.6549   0.9165   0.9981     H
C       0.6572  0.33503    0.624     C
H       0.6597   0.0371   0.9166     H
H       0.6602   0.4079   0.8358     H
C       0.6607   0.2693   0.8875     C
C        0.663    0.411   0.0089     C
C       0.6648   0.2726   0.7889     C
H       0.6649   0.6457   0.9015     H
C        0.667    0.625    0.624     C
O       0.6679  0.32306  0.31549     O
C       0.6688  0.96789   0.2319     C
C       0.6693   0.3846   0.0591     C
C         0.67  0.01784   0.8872     C
C       0.6722  0.28797   0.6388     C
C       0.6725  0.89337   0.4102     C
C       0.6731  0.80349   0.8214     C
O        0.677  0.08052   0.6707     O
C       0.6807   0.9203   0.4607     C
H       0.6839    0.701   0.2645     H
C       0.6847   0.6271   0.5256     C
O       0.6881  0.86254   0.6229     O
C       0.6885  0.85125   0.8346     C
O       0.6903  0.57773  0.84133     O
H       0.6932   0.1591   0.3612     H
C       0.6974   0.4764   0.8371     C
C       0.6991   0.1731   0.1893     C
C        0.702   0.9604   0.8019     C
C       0.7032  0.79325   0.2615     C
O       0.7041  0.41261    0.619     O
C       0.7041  0.63038   0.6911     C
O       0.7063  0.19475  0.67958     O
C       0.7079  0.90959   0.6365     C
C       0.7089  0.42795   0.8442     C
H       0.7093   0.2389   0.3429     H
H       0.7123   0.9407   0.7728     H
O       0.7153  0.90364  0.10542     O
O       0.7156   0.1371  0.78783     O
O       0.7165  0.97691  0.20024     O
H       0.7168   0.1415   0.1918     H
C       0.7171   0.3081   0.9015     C
C       0.7198    0.632   0.5878     C
H       0.7199    0.632   0.5009     H
Tb     0.72024  0.39434  0.28991    Tb
C       0.7203   0.3119   0.8031     C
H       0.7212     0.14   0.8952     H
C       0.7227  0.97859   0.9035     C
O       0.7266  0.83648  0.26269     O
C       0.7269  0.72029   0.8168     C
C       0.7271  0.36698   0.6378     C
C         0.73  0.00633   0.6528     C
C        0.731  0.25578   0.2099     C
H       0.7313   0.4472   0.9643     H
H       0.7339   0.3204   0.9402     H
C       0.7365   0.4291   0.9984     C
C       0.7378  0.95023   0.8612     C
H       0.7385   0.3269   0.7736     H
C       0.7399   0.0587   0.6613     C
C        0.742   0.7086   0.2852     C
H       0.7422   0.8591   0.3659     H
C       0.7423  0.77123   0.8334     C
C       0.7471   0.8765   0.4005     C
C       0.7472   0.3278     0.86     C
H       0.7482   0.9714   0.9439     H
H       0.7518   0.4714   0.5561     H
C       0.7528   0.8278     0.64     C
C       0.7529   0.3765   0.0995     C
C       0.7577  0.27123   0.6666     C
H       0.7578   0.3591   0.1341     H
C        0.758   0.2086   0.2148     C
C       0.7601   0.5587   0.8387     C
H       0.7615   0.8269   0.7264     H
C       0.7622  0.45023   0.6388     C
C       0.7635   0.9291   0.5016     C
H       0.7661   0.8204   0.5598     H
H       0.7687   0.9472   0.5357     H
C        0.769  0.75578   0.2901     C
C         0.77  0.50633   0.8472     C
C       0.7729  0.86698   0.8622     C
C       0.7731  0.22029   0.6832     C
O       0.7734  0.33648  0.23731     O
C       0.7773  0.47859   0.5965     C
H       0.7788     0.64   0.6048     H
C       0.7797   0.8119   0.6969     C
Tb     0.77976  0.89434  0.21009    Tb
H       0.7801    0.132   0.9991     H
C       0.7802    0.132   0.9122     C
C       0.7829   0.8081   0.5985     C
H       0.7832   0.6415   0.3082     H
O       0.7835  0.47691  0.29976     O
O       0.7844   0.6371  0.71217     O
O       0.7847  0.40364  0.39458     O
H       0.7877   0.4407   0.7272     H
H       0.7907   0.7389   0.1571     H
C       0.7911  0.92795   0.6558     C
C       0.7921  0.40959   0.8635     C
O       0.7937  0.69475  0.82042     O
C       0.7959  0.13038   0.8089     C
O       0.7959  0.91261    0.881     O
C       0.7968  0.29325   0.2385     C
C        0.798   0.4604   0.6981     C
C       0.8009   0.6731   0.3107     C
C       0.8026   0.9764   0.6629     C
H       0.8068   0.6591   0.1388     H
O       0.8097  0.07773  0.65867     O
C       0.8115  0.35125   0.6654     C
O       0.8119  0.36254   0.8771     O
C       0.8153   0.1271   0.9744     C
H       0.8161    0.201   0.2355     H
C       0.8193   0.4203   0.0393     C
O        0.823  0.58052   0.8293     O
C       0.8269  0.30349   0.6786     C
C       0.8275  0.39337   0.0898     C
C       0.8278  0.78797   0.8612     C
C         0.83  0.51784   0.6128     C
C       0.8307   0.8846   0.4409     C
C       0.8312  0.46789   0.2681     C
O       0.8321  0.82306  0.18451     O
C        0.833    0.125    0.876     C
H       0.8351   0.1457   0.5985     H
C       0.8352   0.7726   0.7111     C
C        0.837    0.911   0.4911     C
C       0.8393   0.7693   0.6125     C
H       0.8398   0.9079   0.6642     H
H       0.8403   0.5371   0.5834     H
C       0.8428  0.83503    0.876     C
H       0.8451   0.4165   0.5019     H
H       0.8457   0.0371   0.0344     H
O       0.8465  0.42512  0.25676     O
C       0.8467   0.7265   0.1622     C
O       0.8486  0.12696  0.77956     O
O         0.85   0.2051    0.698     O
C       0.8503   0.5009   0.7148     C
O       0.8512  0.92894   0.3001     O
H       0.8521   0.9712   0.0941     H
H       0.8524   0.7611   0.7503     H
C        0.853  0.37998   0.4021     C
C        0.854  0.48673   0.8657     C
C        0.856   0.6787    0.151     C
C       0.8561   0.7673     0.32     C
H       0.8581   0.3727   0.6751     H
H       0.8591   0.9891   0.6746     H
H       0.8601   0.7557   0.5833     H
C       0.8644  0.75083     0.67     C
C       0.8648  0.43834   0.8741     C
C       0.8674  0.52885   0.6719     C
C       0.8679  0.50629   0.2397     C
H       0.8684   0.5578   0.2986     H
H       0.8694   0.4327   0.0324     H
O       0.8711  0.36169  0.35717     O
H       0.8736   0.5088   0.7552     H
H       0.8745   0.7988   0.3228     H
H        0.875   0.7669   0.8696     H
H       0.8754   0.0034   0.5089     H
O       0.8757   0.2816  0.26132     O
C       0.8799  0.55144   0.2627     C
H       0.8808   0.8724   0.4338     H
O        0.883    0.161   0.6049     O
H       0.8843   0.2929   0.6958     H
H       0.8845   0.1721   0.5714     H
H       0.8852   0.4673   0.1735     H
C        0.887   0.6858   0.3402     C
C       0.8882   0.0352   0.0718     C
C        0.889  0.49816   0.1883     C
H       0.8897   0.0163   0.3207     H
C       0.8927   0.3957   0.5104     C
C        0.893   0.9955    0.107     C
Tb     0.89318  0.64252  0.80521    Tb
O       0.8934  0.92342  0.18593     O
H       0.8997   0.8456   0.8954     H
C       0.9021   0.1151   0.9984     C
H       0.9031   0.5063   0.8725     H
C       0.9081  0.80599   0.1986     C
C       0.9086   0.5876   0.2335     C
C       0.9128  0.37255   0.4635     C
Tb     0.91484  0.13078  0.70701    Tb
C        0.915   0.7316   0.3456     C
C       0.9154  0.53359   0.1578     C
C       0.9159  0.38311   0.1335     C
C        0.918  0.75559   0.1807     C
O       0.9187  0.35861  0.17919     O
H       0.9187   0.6177   0.2504     H
H       0.9191    0.686   0.4559     H
C       0.9195   0.1119   0.9017     C
O       0.9209  0.91377   0.5312     O
H        0.921   0.4253    0.887     H
C       0.9216   0.9992   0.5441     C
C       0.9218  0.57885   0.1801     C
C       0.9236  0.70896   0.6852     C
H       0.9288   0.5271   0.1226     H
C       0.9293  0.57023   0.6891     C
H       0.9294   0.4046   0.5994     H
C       0.9301   0.9252   0.3328     C
H       0.9355   0.3224    0.823     H
C       0.9372  0.66095    0.158     C
H        0.938   0.0683    0.567     H
C        0.939   0.0122    0.354     C
H       0.9396   0.9746   0.7851     H
Tb     0.93987  0.35921  0.28122    Tb
O       0.9414  0.11416   0.0607     O
C        0.942   0.3883   0.5685     C
O       0.9429  0.69131  0.73823     O
C       0.9451   0.0715   0.0915     C
O       0.9454   0.6482   0.3603     O
O       0.9482  0.58808  0.74255     O
O       0.9497   0.6131   0.1465     O
H       0.9517   0.2438   0.8028     H
C       0.9517   0.9551   0.5622     C
C       0.9531   0.1064    0.964     C
H       0.9533   0.9058   0.8404     H
H       0.9556   0.1067   0.8778     H
O       0.9573  0.69256  0.64795     O
C       0.9576   0.9918   0.1604     C
C         0.96    0.038   0.5785     C
H       0.9606   0.0819   0.3719     H
C       0.9614  0.94909   0.1989     C
O       0.9633   0.5864  0.65205     O
C       0.9672   0.6655   0.4649     C
C       0.9692   0.9677   0.3703     C
O        0.971  0.05875  0.75851     O
H       0.9733   0.7389   0.3663     H
O       0.9758  0.88905  0.33501     O
O       0.9759  0.82726  0.22755     O
C       0.9793   0.0514   0.3855     C
C       0.9838   0.3432   0.4758     C
O       0.9843  0.39755  0.12384     O
C       0.9848   0.9719   0.8212     C
H       0.9889   0.9034   0.0187     H
C       0.9907   0.6431   0.4192     C
C        0.991   0.3103    0.826     C
C       0.9915   0.9311   0.8545     C
C       0.9989   0.7367   0.1856     C
H       0.9996   0.3289   0.4447     H
