data_I
_chemical_name_common  '/home/zhangsd/repos/MofS-CGCNN/ML/data/TSD/clean_cifs/VUKSOL_clean'
_cell_length_a  9.34680
_cell_length_b 15.22670
_cell_length_c 17.65170
_cell_angle_alpha 90.00000
_cell_angle_beta  95.59900
_cell_angle_gamma 90.00000
_space_group_name_H-M_alt      'P 1'


loop_
_space_group_symop_operation_xyz
  'x, y, z' 

loop_
_atom_site_label
_atom_site_fract_x
_atom_site_fract_y
_atom_site_fract_z
_atom_site_type_symbol
Zn         0.0      0.0      0.0    Zn
Zn         0.0      0.5      0.5    Zn
O       0.0543   0.1435   0.9916     O
O       0.0543   0.3565   0.4916     O
O       0.0584   0.2192   0.1017     O
O       0.0584   0.2808   0.6017     O
C       0.0618   0.2118   0.0292     C
C       0.0618   0.2882   0.5292     C
Zn     0.07258  0.10963   0.1623    Zn
Zn     0.07258  0.39037   0.6623    Zn
O       0.0749   0.5236   0.3835     O
O       0.0749   0.9764   0.8835     O
O       0.0839   0.2012   0.4146     O
O       0.0839   0.2988   0.9146     O
C        0.084   0.2014   0.4921     C
C        0.084   0.2986   0.9921     C
O       0.0899   0.1566   0.2668     O
O       0.0899   0.3434   0.7668     O
C       0.1047   0.0926   0.3131     C
C       0.1047   0.4074   0.8131     C
C       0.1076     0.12     0.52     C
C       0.1076     0.38     0.02     C
C       0.1078    0.114   0.3956     C
C       0.1078    0.386   0.8956     C
H       0.1136   0.1035    0.571     H
H       0.1136   0.3965    0.071     H
O       0.1198   0.0157   0.2943     O
O       0.1198   0.4843   0.7943     O
C       0.1215   0.0645   0.4574     C
C       0.1215   0.4355   0.9574     C
H       0.1374   0.0042   0.4592     H
H       0.1374   0.4958   0.9592     H
C       0.1959   0.5543   0.3647     C
C       0.1959   0.9457   0.8647     C
O       0.1968   0.5378   0.5582     O
O       0.1968   0.9622   0.0582     O
O       0.2034   0.6203    0.327     O
O       0.2034   0.8797    0.827     O
O       0.2668   0.0694   0.1412     O
O       0.2668   0.4306   0.6412     O
H       0.2741   0.1163   0.9371     H
H       0.2741   0.3837   0.4371     H
C       0.2894   0.0049   0.0996     C
C       0.2894   0.4951   0.5996     C
C       0.3248   0.5005    0.389     C
C       0.3248   0.9995    0.889     C
C       0.3451   0.0786   0.9229     C
C       0.3451   0.4214   0.4229     C
C       0.4414   0.5203   0.5964     C
C       0.4414   0.9797   0.0964     C
O       0.4547   0.5377   0.3752     O
O       0.4547   0.9623   0.8752     O
H       0.4562   0.6422   0.5458     H
H       0.4562   0.8578   0.0458     H
C       0.4965   0.0931   0.9326     C
C       0.4965   0.4069   0.4326     C
C       0.5035   0.5931   0.5674     C
C       0.5035   0.9069   0.0674     C
H       0.5438   0.1422   0.9542     H
H       0.5438   0.3578   0.4542     H
O       0.5453   0.0377   0.1248     O
O       0.5453   0.4623   0.6248     O
C       0.5586   0.0203   0.9036     C
C       0.5586   0.4797   0.4036     C
C       0.6549   0.5786   0.5771     C
C       0.6549   0.9214   0.0771     C
C       0.6752   0.0005    0.111     C
C       0.6752   0.4995    0.611     C
C       0.7106   0.5049   0.4004     C
C       0.7106   0.9951   0.9004     C
H       0.7259   0.6163   0.5629     H
H       0.7259   0.8837   0.0629     H
O       0.7332   0.5694   0.3588     O
O       0.7332   0.9306   0.8588     O
O       0.7966   0.1203    0.173     O
O       0.7966   0.3797    0.673     O
O       0.8032   0.0378   0.9418     O
O       0.8032   0.4622   0.4418     O
C       0.8041   0.0543   0.1353     C
C       0.8041   0.4457   0.6353     C
H       0.8626   0.5042   0.0408     H
H       0.8626   0.9958   0.5408     H
C       0.8785   0.5645   0.0426     C
C       0.8785   0.9355   0.5426     C
O       0.8802   0.5157   0.2057     O
O       0.8802   0.9843   0.7057     O
H       0.8864   0.6035    0.929     H
H       0.8864   0.8965    0.429     H
C       0.8922    0.614   0.1044     C
C       0.8922    0.886   0.6044     C
C       0.8924     0.62     0.98     C
C       0.8924     0.88     0.48     C
C       0.8953   0.5926   0.1869     C
C       0.8953   0.9074   0.6869     C
O       0.9101   0.6566   0.2332     O
O       0.9101   0.8434   0.7332     O
C        0.916   0.7014   0.0079     C
C        0.916   0.7986   0.5079     C
O       0.9161   0.7012   0.0854     O
O       0.9161   0.7988   0.5854     O
O       0.9251   0.0236   0.1165     O
O       0.9251   0.4764   0.6165     O
Zn     0.92742  0.60963   0.3377    Zn
Zn     0.92742  0.89037   0.8377    Zn
C       0.9382   0.7118   0.4708     C
C       0.9382   0.7882   0.9708     C
O       0.9416   0.7192   0.3983     O
O       0.9416   0.7808   0.8983     O
O       0.9457   0.6435   0.5084     O
O       0.9457   0.8565   0.0084     O
