data_I
_chemical_name_common  '/home/zhangsd/repos/MofS-CGCNN/ML/data/TSD/clean_cifs/VUKTUS_clean'
_cell_length_a 15.18900
_cell_length_b 15.23200
_cell_length_c 23.85500
_cell_angle_alpha 85.89000
_cell_angle_beta  79.97100
_cell_angle_gamma 86.84200
_space_group_name_H-M_alt      'P 1'


loop_
_space_group_symop_operation_xyz
  'x, y, z' 

loop_
_atom_site_label
_atom_site_fract_x
_atom_site_fract_y
_atom_site_fract_z
_atom_site_type_symbol
C       0.0009   0.0325   0.2906     C
H       0.0012   0.9064   0.7152     H
C       0.0049   0.8563   0.3079     C
H       0.0072   0.7954   0.3146     H
C       0.0076   0.4446   0.1243     C
C       0.0141   0.5046   0.1649     C
C       0.0307   0.2047   0.1729     C
H       0.0314   0.2589   0.1885     H
C       0.0322   0.0439   0.1279     C
H       0.0327   0.9892   0.1128     H
H       0.0482   0.5756   0.8783     H
C       0.0492   0.9104   0.8522     C
C       0.0501    0.831   0.8288     C
O       0.0602   0.3966   0.7693     O
C       0.0647   0.4609   0.7963     C
C       0.0664   0.0149   0.7207     C
C       0.0672   0.1032   0.7135     C
C       0.0689   0.9916   0.3099     C
C       0.0721   0.9029   0.3194     C
H       0.0766   0.3753   0.0613     H
C       0.0819   0.4148   0.0883     C
C       0.0975   0.5317   0.1694     C
H        0.103   0.9345   0.8551     H
H       0.1031   0.5706   0.1968     H
C       0.1094   0.0816   0.1313     C
C       0.1099   0.1617   0.1522     C
H       0.1143   0.9847   0.7341     H
H         0.12   0.8744   0.3337     H
O       0.1321    0.716   0.7814     O
O       0.1353   0.0419   0.3237     O
C       0.1367   0.7872   0.8032     C
C       0.1379   0.1543   0.7302     C
O       0.1411    0.235   0.7138     O
O       0.1411   0.4953   0.7948     O
H       0.1533    0.119   0.0225     H
H       0.1639   0.1876   0.1524     H
C       0.1648    0.444   0.0926     C
H        0.168   0.6354   0.5704     H
H       0.1702   0.6596   0.9772     H
C       0.1714   0.5022   0.1343     C
H       0.1829   0.4791    0.972     H
H       0.1845   0.4122   0.8871     H
C       0.1871    0.067   0.0153     C
O       0.1899   0.6279   0.6755     O
O       0.1915   0.1129   0.7594     O
O       0.1918   0.0403   0.1145     O
H       0.1924    0.074   0.9291     H
H       0.1999   0.9589   0.2343     H
O       0.2013   0.2907   0.8201     O
H       0.2031   0.6194   0.4726     H
H       0.2033   0.6737    0.066     H
O       0.2058   0.8246   0.8088     O
O        0.209   0.6142   0.8717     O
C       0.2094   0.4231   0.9667     C
C       0.2107   0.3828    0.916     C
C       0.2121   0.0407   0.9592     C
C       0.2133   0.0153   0.0589     C
Dy     0.21394  0.36015  0.73125    Dy
C       0.2146   0.5963   0.5565     C
C       0.2211   0.0302   0.2983     C
H       0.2271   0.7785    0.581     H
H       0.2273   0.5209    0.138     H
C        0.229   0.6663   0.9817     C
C       0.2347   0.5874   0.4979     C
C       0.2351   0.5619   0.6578     C
H       0.2385   0.8412   0.6632     H
Dy      0.2401  0.60743     0.77    Dy
C       0.2443    0.982   0.2504     C
O       0.2476   0.4148    0.061     O
C        0.248   0.2565   0.8528     C
C       0.2481   0.3781   0.0086     C
C       0.2485   0.6758   0.0342     C
C       0.2501   0.3007   0.9079     C
C       0.2598   0.5505   0.5946     C
C       0.2649   0.8248     0.58     C
C       0.2651   0.9388   0.0489     C
O       0.2655    0.503   0.6917     O
C       0.2661   0.9652   0.9487     C
C       0.2709   0.8629   0.6287     C
H       0.2726   0.1044   0.3494     H
C       0.2749   0.6557   0.8776     C
O        0.278   0.9897    0.849     O
H       0.2823   0.9041   0.0791     H
C       0.2879   0.0701   0.3181     C
C       0.2908   0.2995   0.0006     C
C       0.2915    0.914    0.993     C
C       0.2925   0.2606   0.9498     C
O       0.2937   0.1852   0.8461     O
O       0.2945   0.9385   0.7292     O
C       0.2967   0.6666   0.9347     C
C       0.2993    0.939   0.8895     C
O       0.3038   0.8165   0.4808     O
C       0.3041   0.5284   0.4795     C
C       0.3144   0.8544   0.5295     C
H       0.3186   0.3465   0.4229     H
H        0.319   0.2714    0.029     H
O       0.3198   0.5216   0.4213     O
H       0.3229   0.2064    0.944     H
C        0.323   0.9316   0.6279     C
O       0.3235   0.3079   0.6598     O
O       0.3242   0.6915   0.8333     O
C       0.3259   0.9761   0.6809     C
H       0.3263   0.8625   0.9859     H
Dy     0.32704  0.08712  0.77615    Dy
C       0.3278   0.4923   0.5738     C
H       0.3332    0.862   0.3756     H
C       0.3341    0.968   0.2263     C
C       0.3344   0.6884   0.0407     C
O       0.3401   0.3886   0.7656     O
O       0.3435   0.8681   0.8813     O
O        0.346   0.7079   0.0945     O
H         0.35   0.9315   0.1961     H
O       0.3506   0.5174   0.7992     O
O       0.3507   0.6921    0.717     O
C       0.3514   0.4826   0.5166     C
Dy     0.35613  0.83129  0.78788    Dy
H       0.3583   0.4588    0.599     H
O       0.3585   0.0504   0.6787     O
C        0.366   0.9207   0.5257     C
C       0.3706   0.3689   0.4014     C
O       0.3716   0.2123   0.7245     O
C       0.3727    0.438    0.795     C
C       0.3735   0.9603   0.5755     C
C       0.3767    0.061   0.2933     C
C       0.3797   0.7995   0.4425     C
C       0.3812   0.2519   0.6749     C
C       0.3817   0.8309   0.3876     C
C       0.3822   0.4582   0.3985     C
C        0.385   0.6799    0.942     C
H       0.3973   0.9412   0.4906     H
H       0.3994    0.445    0.503     H
C       0.4002   0.0095   0.2481     C
C       0.4059   0.6892   0.9954     C
H       0.4123   0.0059   0.5739     H
C       0.4188   0.6688   0.1178     C
H       0.4201   0.0896   0.3072     H
H       0.4231   0.5485   0.6844     H
H       0.4236   0.2526   0.3763     H
C       0.4264   0.7177   0.6928     C
H       0.4266   0.5526   0.0836     H
H       0.4285   0.3028   0.5685     H
H       0.4302   0.6826   0.9102     H
H       0.4334   0.7802   0.1576     H
C       0.4335   0.3126   0.3736     C
O       0.4428   0.9563   0.7696     O
C       0.4474   0.4001   0.8253     C
O       0.4474   0.7933   0.6991     O
H       0.4479    0.725   0.4973     H
C       0.4496   0.5854   0.1087     C
C       0.4512   0.7478   0.4598     C
C       0.4543   0.7222   0.1529     C
H       0.4549   0.2791   0.7971     H
C       0.4582   0.4883   0.3672     C
C        0.462   0.8131   0.3502     C
H       0.4632   0.5083   0.8678     H
H       0.4644   0.6956   0.0008     H
H       0.4662   0.8359   0.3127     H
C       0.4665   0.2344   0.6355     C
H       0.4677   0.5483   0.3647     H
C       0.4751   0.5701   0.6625     C
C       0.4754   0.2678   0.5796     C
O       0.4763   0.0823   0.7985     O
C       0.4797    0.314   0.8202     C
C       0.4841   0.4503   0.8626     C
C       0.4896   0.6572    0.658     C
C       0.4994     0.99   0.2239     C
C       0.5006     0.01   0.7761     C
C       0.5104   0.3428    0.342     C
C       0.5159   0.5497   0.1374     C
C       0.5203    0.686   0.1798     C
O       0.5237   0.9177   0.2015     O
C       0.5246   0.7322   0.4204     C
C       0.5249   0.4299   0.3375     C
H       0.5323   0.4517   0.6353     H
C       0.5335   0.7656   0.3645     C
H       0.5338   0.1641   0.6873     H
H       0.5356   0.3044   0.9992     H
H       0.5368   0.4917   0.1322     H
C        0.538   0.1869   0.6498     C
C       0.5418   0.5117   0.6328     C
H       0.5451   0.7209   0.2029     H
C       0.5457   0.2778   0.8471     C
C       0.5488   0.2522   0.5402     C
C       0.5504   0.4146   0.8913     C
H       0.5521    0.275   0.5027     H
O       0.5526   0.2067   0.3009     O
C       0.5526   0.5999   0.1747     C
O       0.5572   0.0437   0.2304     O
C       0.5665   0.6874   0.6264     C
H       0.5666   0.2198   0.8424     H
H       0.5698   0.3174   0.0898     H
H       0.5715   0.6972   0.4315     H
H       0.5734   0.4474   0.9164     H
C       0.5736   0.2823   0.3072     C
H       0.5764   0.7474   0.6237     H
H       0.5769   0.4515   0.3156     H
H       0.5799   0.9104   0.6928     H
C       0.5812   0.3312   0.8822     C
H       0.5877   0.9941   0.4261     H
C       0.5941   0.3108   0.0046     C
C       0.5998   0.9905   0.7519     C
H       0.6006    0.555    0.497     H
H       0.6027   0.0588   0.5094     H
C        0.615   0.3201    0.058     C
C       0.6178   0.5418   0.6015     C
C       0.6183   0.1691   0.6124     C
C       0.6188   0.7481   0.3251     C
C       0.6203   0.2005   0.5575     C
C       0.6233    0.939   0.7067     C
C       0.6265   0.0397   0.4245     C
C       0.6273    0.562    0.205     C
O       0.6284   0.7877   0.2755     O
C       0.6294   0.6311   0.5986     C
C        0.634   0.0793   0.4743     C
O       0.6415   0.9496   0.3213     O
H       0.6417   0.5412    0.401     H
Dy     0.64387  0.16871  0.21212    Dy
C       0.6486   0.5174   0.4834     C
O       0.6493   0.3079    0.283     O
O       0.6494   0.4826   0.2008     O
H         0.65   0.0685   0.8039     H
O        0.654   0.2921   0.9055     O
O       0.6565   0.1319   0.1187     O
O       0.6599   0.6114   0.2344     O
C       0.6656   0.3116   0.9593     C
C       0.6659    0.032   0.7737     C
H       0.6668    0.138   0.6244     H
C       0.6722   0.5077   0.4262     C
Dy     0.67296  0.91288  0.22385    Dy
H       0.6737   0.1375   0.0141     H
C       0.6741   0.0239   0.3191     C
O       0.6758   0.3085   0.1667     O
O       0.6765   0.6921   0.3402     O
C        0.677   0.0684   0.3721     C
H       0.6771   0.7936    0.056     H
O       0.6802   0.4784   0.5787     O
H        0.681   0.7286    0.971     H
H       0.6814   0.6535   0.5771     H
C       0.6856   0.1456   0.4705     C
C       0.6959   0.4716   0.5205     C
O       0.6962   0.1835   0.5192     O
C       0.7007    0.061   0.1105     C
C       0.7033   0.3334   0.0653     C
O       0.7055   0.0615   0.2708     O
O       0.7063   0.8148   0.1539     O
C       0.7075   0.7394   0.0502     C
C       0.7085    0.086    0.007     C
C       0.7092   0.7005   0.9994     C
C       0.7121   0.9299   0.6819     C
H       0.7177   0.0959   0.9209     H
O        0.722   0.0103    0.151     O
C       0.7251   0.3443   0.1224     C
H       0.7274   0.8956   0.6506     H
C       0.7291   0.1371   0.3713     C
C       0.7339   0.0348   0.0513     C
O       0.7345    0.497   0.3083     O
C       0.7349   0.0612   0.9511     C
C       0.7351   0.1752     0.42     C
C       0.7402   0.4495   0.4054     C
C       0.7499   0.6993   0.0921     C
C       0.7515   0.3242   0.9658     C
C       0.7519   0.6219   0.9914     C
C        0.752   0.7435   0.1472     C
O       0.7524   0.5852    0.939     O
C       0.7557    0.018   0.7496     C
Dy      0.7599  0.39257     0.23    Dy
H       0.7615   0.1588   0.3368     H
C       0.7649   0.4381   0.3422     C
C       0.7653   0.4126   0.5021     C
C        0.771   0.3337   0.0183     C
H       0.7727   0.4791    0.862     H
H       0.7729   0.2215    0.419     H
C       0.7789   0.9698   0.7017     C
C       0.7854   0.4037   0.4435     C
Dy     0.78606  0.63985  0.26875    Dy
C       0.7867   0.9847   0.9411     C
C       0.7879   0.9593   0.0408     C
C       0.7893   0.6172    0.084     C
C       0.7906   0.5769   0.0333     C
O        0.791   0.3858   0.1283     O
O       0.7942   0.1754   0.1912     O
H       0.7967   0.3263    0.934     H
H       0.7969   0.3806   0.5274     H
O       0.7987   0.7093   0.1799     O
H       0.8001   0.0411   0.7657     H
H       0.8076    0.926   0.0709     H
O       0.8082   0.9597   0.8855     O
O       0.8085   0.8871   0.2406     O
O       0.8101   0.3721   0.3245     O
C       0.8129    0.933   0.9847     C
H       0.8155   0.5878   0.1129     H
H       0.8171   0.5209    0.028     H
C       0.8286   0.4978   0.8657     C
H       0.8298   0.3404   0.0228     H
H        0.832   0.3646   0.4296     H
C       0.8352    0.556   0.9074     C
H       0.8361   0.8124   0.8476     H
H       0.8467    0.881   0.9775     H
O       0.8589   0.5047   0.2052     O
O       0.8589    0.765   0.2862     O
C       0.8621   0.8457   0.2698     C
C       0.8633   0.2128   0.1968     C
O       0.8647   0.9581   0.6763     O
O       0.8679    0.284   0.2186     O
H         0.88   0.1256   0.6663     H
H       0.8857   0.0153   0.2659     H
C       0.8901   0.8383   0.8478     C
C       0.8906   0.9184   0.8687     C
H       0.8969   0.4294   0.8032     H
H        0.897   0.0655   0.1449     H
C       0.9025   0.4683   0.8306     C
C       0.9181   0.5852   0.9117     C
H       0.9234   0.6247   0.9387     H
C       0.9279   0.0971   0.6806     C
C       0.9311   0.0084   0.6901     C
C       0.9328   0.8968   0.2865     C
C       0.9336   0.9851   0.2793     C
C       0.9353   0.5391   0.2037     C
O       0.9398   0.6034   0.2307     O
C       0.9499    0.169   0.1712     C
C       0.9508   0.0896   0.1478     C
H       0.9518   0.4244   0.1217     H
H       0.9673   0.0108   0.8872     H
C       0.9678   0.9561   0.8721     C
H       0.9686   0.7411   0.8115     H
C       0.9693   0.7953   0.8271     C
C       0.9859   0.4954   0.8351     C
C       0.9924   0.5554   0.8757     C
H       0.9928   0.2046   0.6854     H
C       0.9951   0.1437   0.6921     C
H       0.9988   0.0936   0.2848     H
C       0.9991   0.9675   0.7094     C
