data_I
_chemical_name_common  '/home/zhangsd/repos/MofS-CGCNN/ML/data/TSD/clean_cifs/VUKTOM_clean'
_cell_length_a 15.08900
_cell_length_b 15.27500
_cell_length_c 23.65400
_cell_angle_alpha 85.90200
_cell_angle_beta  81.50600
_cell_angle_gamma 86.81300
_space_group_name_H-M_alt      'P 1'


loop_
_space_group_symop_operation_xyz
  'x, y, z' 

loop_
_atom_site_label
_atom_site_fract_x
_atom_site_fract_y
_atom_site_fract_z
_atom_site_type_symbol
C       0.0117   0.9872   0.7273     C
H       0.0191   0.1825   0.1963     H
C       0.0206    0.339   0.8439     C
H       0.0224   0.4501   0.1481     H
C       0.0245   0.1981   0.1572     C
C       0.0248   0.5512   0.6366     C
C       0.0269   0.6831    0.681     C
C       0.0301     0.51   0.1408     C
C       0.0336   0.4289   0.8334     C
O       0.0344   0.9166   0.7047     O
C       0.0355   0.7327   0.9236     C
H       0.0393   0.3052      0.5     H
C       0.0408    0.281    0.345     C
C       0.0452   0.2474   0.0422     C
C       0.0456    0.416   0.3917     C
C        0.046   0.7601   0.8655     C
H       0.0481   0.4948   0.6297     H
H       0.0517   0.2646   0.0034     H
H       0.0522   0.7169   0.7051     H
C        0.055   0.6896   0.1216     C
H       0.0574   0.9165   0.1884     H
C       0.0611   0.5967   0.6735     C
H       0.0638   0.2243   0.3384     H
H       0.0644   0.7494   0.1151     H
O       0.0661   0.1962   0.8116     O
O        0.069   0.0399    0.734     O
H       0.0714   0.4494   0.4158     H
C       0.0745   0.3308   0.3816     C
H       0.0804   0.3166   0.5929     H
H       0.0818   0.7016   0.9392     H
H       0.0842   0.4483   0.8094     H
C       0.0862   0.2749   0.8117     C
C       0.0869    0.995    0.248     C
H       0.0966   0.5498   0.9982     H
C       0.0989   0.3107   0.5045     C
C       0.1018   0.5386   0.1059     C
H       0.1028   0.9818   0.9306     H
C        0.104   0.9435   0.2011     C
C       0.1045    0.179   0.1216     C
H       0.1051   0.0527   0.0148     H
C       0.1141   0.2041   0.0635     C
C       0.1172   0.6279   0.0966     C
C       0.1236   0.3187   0.5605     C
C       0.1331    0.743   0.8285     C
C        0.136   0.5582   0.7049     C
C       0.1376   0.0301   0.9304     C
H       0.1378   0.5307   0.9015     H
C       0.1392   0.0728   0.9808     C
H       0.1394    0.069   0.2997     H
C       0.1455   0.5124   0.9863     C
O       0.1484   0.7801   0.7796     O
O       0.1492   0.2925    0.404     O
H       0.1519   0.1492   0.1369     H
C       0.1522   0.0349   0.2682     C
Tb     0.15819  0.16721  0.71893    Tb
O       0.1589   0.3017   0.7835     O
O       0.1607   0.4792   0.6989     O
O       0.1608    0.942    0.827     O
C       0.1663   0.3112   0.4572     C
O       0.1686    0.478   0.0843     O
H       0.1691   0.6464   0.0737     H
O       0.1697   0.6087    0.735     O
C       0.1704   0.5017   0.9282     C
O       0.1706   0.1305   0.6233     O
H       0.1778   0.1392   0.5178     H
H       0.1825   0.7273   0.4721     H
H       0.1837    0.793   0.5567     H
Tb     0.18799  0.90959  0.72785    Tb
O       0.1882   0.6859   0.8476     O
C       0.1886   0.0166   0.8258     C
O       0.1899   0.3053   0.6685     O
C         0.19    0.062   0.8794     C
C       0.1904     0.47   0.0255     C
C       0.1907   0.1437   0.9802     C
C       0.1915   0.9327   0.1733     C
O       0.1946   0.1855   0.0305     O
H       0.2049   0.8979   0.1421     H
C       0.2118   0.3296   0.5654     C
C       0.2121   0.6988   0.5005     C
C       0.2124   0.0883    0.509     C
C       0.2128   0.7382   0.5515     C
H       0.2138   0.1049    0.423     H
C       0.2149   0.0593   0.6145     C
O       0.2186   0.8118   0.6565     O
O       0.2203   0.0573   0.7782     O
C       0.2329   0.0679   0.4522     C
C       0.2372   0.3392   0.6237     C
O       0.2382   0.0086   0.6539     O
C       0.2392   0.0231   0.2404     C
C       0.2417   0.1323   0.8812     C
C        0.242   0.0346   0.5534     C
O       0.2425   0.4921   0.8118     O
C       0.2435   0.1746   0.9308     C
C       0.2441   0.4476   0.9105     C
O       0.2494   0.5818   0.4399     O
C       0.2536    0.322   0.4638     C
C       0.2542   0.6191   0.4917     C
C       0.2553   0.6982   0.5942     C
H       0.2578   0.4788   0.3615     H
C       0.2584   0.9757   0.1936     C
C        0.261    0.741   0.6505     C
C       0.2645    0.415   0.0097     C
C       0.2709   0.4343   0.8471     C
Tb     0.27207  0.38906  0.73259    Tb
H       0.2771   0.1525   0.8478     H
C       0.2777   0.3321   0.5181     C
H       0.2792   0.2223   0.9308     H
C       0.2828    0.991   0.4404     C
H       0.2856   0.0484   0.2544     H
C       0.2903   0.9603   0.5405     C
C       0.2905   0.4033   0.9515     C
C       0.2938   0.5758   0.5343     C
H       0.2962   0.3867   0.0371     H
C       0.2968   0.6144   0.5846     C
H       0.2976   0.3227   0.4319     H
Tb     0.29822  0.63673  0.77349    Tb
O       0.2995   0.9695   0.3846     O
O       0.3029   0.3813   0.6284     O
H       0.3095   0.9237   0.5699     H
O       0.3112   0.1841   0.7038     O
C       0.3119    0.937   0.4843     C
O       0.3139   0.7051   0.6829     O
C       0.3145   0.4976   0.3644     C
H       0.3159   0.8239   0.3423     H
O       0.3167   0.3677    0.832     O
H        0.319   0.5194   0.5294     H
H       0.3266   0.5851   0.6126     H
C       0.3276   0.5549    0.406     C
O       0.3286   0.8816   0.7474     O
H        0.337   0.3404   0.5221     H
H       0.3392   0.3655     0.94     H
O       0.3436   0.9645   0.1608     O
H       0.3458   0.8855   0.4762     H
O       0.3688   0.5046   0.7096     O
H       0.3717   0.1324   0.1367     H
C       0.3722   0.8443   0.3445     C
O       0.3729   0.7609    0.794     O
C       0.3793   0.9183   0.3662     C
H       0.3825   0.4328   0.2999     H
C       0.3849   0.8423   0.7812     C
C       0.3861   0.2184   0.7039     C
C       0.3892   0.4703    0.328     C
O       0.3946   0.2918   0.7218     O
H       0.4046   0.0107   0.7701     H
H        0.406   0.0691   0.6549     H
C       0.4117   0.5833   0.4096     C
C       0.4122   0.0146   0.1725     C
C       0.4139   0.1044   0.1576     C
H        0.419   0.6222   0.4369     H
C       0.4454   0.5389    0.707     C
H       0.4455   0.7394   0.3121     H
C       0.4495    0.894   0.7975     C
C       0.4496   0.7954   0.3242     C
C       0.4509   0.9815   0.7869     C
O       0.4561   0.6023   0.7354     O
C       0.4564   0.9572   0.3672     C
H       0.4577   0.0121   0.3817     H
H       0.4596   0.4267    0.624     H
C       0.4619   0.0915   0.6556     C
C       0.4684   0.1699   0.6779     C
C       0.4749   0.4975   0.3322     C
H       0.4786   0.9098   0.2087     H
H       0.4794   0.2109   0.1681     H
C       0.4798   0.9701   0.1997     C
C         0.48   0.1501   0.1746     C
C       0.4839   0.5543   0.3731     C
C       0.5161   0.4457   0.6269     C
C         0.52   0.8499   0.8254     C
C       0.5202   0.0299   0.8003     C
H       0.5206   0.7891   0.8319     H
H       0.5214   0.0902   0.7913     H
C       0.5251   0.5025   0.6678     C
C       0.5316   0.8301   0.3221     C
C       0.5381   0.9085   0.3444     C
H       0.5404   0.5733    0.376     H
H       0.5423   0.9879   0.6183     H
C       0.5436   0.0428   0.6328     C
O       0.5439   0.3977   0.2646     O
C       0.5491   0.0185   0.2131     C
C       0.5504   0.2046   0.6758     C
C       0.5505    0.106   0.2025     C
H       0.5545   0.2606   0.6879     H
C       0.5546   0.4611    0.293     C
H        0.581   0.3778   0.5631     H
C       0.5861   0.8956   0.8424     C
C       0.5878   0.9854   0.8275     C
C       0.5883   0.4167   0.5904     C
H        0.594   0.9309   0.3451     H
H       0.5954   0.9893   0.2299     H
O       0.6054   0.7082   0.2782     O
C       0.6108   0.5297    0.672     C
C       0.6139   0.7816   0.2961     C
C       0.6151   0.1577   0.2188     C
H       0.6175   0.5672   0.7001     H
C       0.6207   0.0817   0.6338     C
O       0.6271   0.2391    0.206     O
C       0.6278   0.1557   0.6555     C
H       0.6283   0.8676   0.8633     H
O       0.6312   0.4954   0.2904     O
H       0.6542   0.1145   0.5238     H
O       0.6564   0.0355   0.8392     O
H       0.6608   0.6345     0.06     H
H        0.663   0.6596   0.4779     H
O       0.6714   0.1184   0.2526     O
C       0.6724   0.4451    0.594     C
H       0.6734   0.4149   0.3874     H
H        0.681   0.4806   0.4706     H
O       0.6833   0.6323    0.168     O
H       0.6841   0.1761   0.6577     H
C       0.6855   0.5024   0.6356     C
O       0.6861   0.2949   0.3171     O
C       0.6881    0.063   0.5157     C
O       0.6888   0.8159   0.2962     O
H       0.6905   0.0763   0.4301     H
O       0.6971   0.6187   0.3716     O
O       0.7005   0.0305   0.6154     O
Tb     0.70178  0.36327  0.22651    Tb
H       0.7024   0.6773   0.5681     H
C       0.7032   0.3856   0.4154     C
H       0.7038   0.6133   0.9629     H
C       0.7062   0.4242   0.4657     C
C       0.7095   0.5967   0.0485     C
C       0.7097   0.0397   0.4595     C
H       0.7144   0.9516   0.7456     H
C       0.7172    0.009   0.5596     C
H       0.7208   0.7777   0.0692     H
C       0.7223   0.6679   0.4819     C
H       0.7229   0.8475   0.1522     H
Tb     0.72793  0.61094  0.26741    Tb
C       0.7291   0.5657   0.1529     C
C       0.7355    0.585   0.9903     C
C        0.739    0.259   0.3495     C
C       0.7416   0.0243   0.8064     C
H       0.7422   0.5212   0.6385     H
C       0.7447   0.3018   0.4058     C
C       0.7458   0.3809   0.5083     C
C       0.7464    0.678   0.5362     C
O       0.7506   0.4182   0.5601     O
C       0.7559   0.5524   0.0895     C
C       0.7565   0.8254   0.0692     C
O       0.7575   0.5079   0.1882     O
C        0.758   0.9654   0.4466     C
C       0.7583   0.8677   0.1188     C
C       0.7608   0.9769   0.7596     C
O       0.7618   0.9914   0.3461     O
C       0.7628   0.6608   0.3763     C
C       0.7671   0.9321   0.5478     C
O       0.7797   0.9427   0.2218     O
O       0.7814   0.1882   0.3435     O
C       0.7851   0.9407   0.3855     C
H       0.7862   0.8951    0.577     H
C       0.7872   0.2618   0.4485     C
C       0.7876   0.9117    0.491     C
C       0.7879   0.3012   0.4995     C
C       0.7882   0.6704   0.4346     C
H       0.7951   0.1021   0.8579     H
O       0.8054   0.8145   0.9695     O
C       0.8085   0.0673   0.8267     C
C       0.8093   0.8563   0.0198     C
C       0.8096     0.53   0.9745     C
C         0.81    0.938   0.1206     C
O       0.8101   0.6947   0.3315     O
C       0.8114   0.9834   0.1742     C
O       0.8118   0.3141   0.1524     O
Tb     0.81201  0.09041  0.27215    Tb
H       0.8163    0.207   0.4433     H
H       0.8175   0.2727   0.5279     H
H       0.8222   0.8608   0.4822     H
O       0.8294   0.8695   0.3767     O
C       0.8296   0.4983   0.0718     C
O       0.8303   0.3913    0.265     O
H       0.8309   0.3536   0.9263     H
O       0.8314    0.522   0.9157     O
C       0.8337   0.6888   0.5428     C
O       0.8392    0.058    0.173     O
O       0.8393   0.5208   0.3011     O
O       0.8411   0.6983   0.2165     O
Tb     0.84181  0.83279  0.28107    Tb
C       0.8478   0.9651   0.7318     C
H       0.8481   0.8508   0.8631     H
O       0.8508   0.7075    0.596     O
O       0.8516   0.2199   0.2204     O
C       0.8545   0.4876   0.0137     C
H       0.8606    0.931   0.7003     H
C       0.8608   0.9272   0.0192     C
H       0.8622   0.4693   0.0985     H
C       0.8624   0.9699   0.0696     C
C        0.864   0.4418   0.2951     C
C       0.8669    0.257   0.1715     C
C       0.8764   0.6813   0.4395     C
C       0.8828   0.3721   0.9034     C
C       0.8859   0.7959   0.9365     C
H       0.8949   0.9473   0.9852     H
C       0.8955    0.821   0.8784     C
C        0.896   0.0565   0.7989     C
H       0.8972   0.0182   0.0694     H
C       0.8982   0.4614   0.8941     C
C       0.9011   0.6893   0.4955     C
H       0.9034   0.4502   0.0018     H
C       0.9131    0.005    0.752     C
C       0.9138   0.7251   0.1883     C
H       0.9158   0.5517   0.1906     H
H       0.9182   0.2984   0.0608     H
H       0.9196   0.6834   0.4071     H
C       0.9255   0.6692   0.6184     C
H       0.9286   0.5506   0.5842     H
O        0.931   0.9601    0.266     O
O       0.9339   0.8038   0.1884     O
H       0.9356   0.2506   0.8849     H
H       0.9362   0.7757   0.6616     H
C       0.9389   0.4033   0.3265     C
H       0.9426   0.0835   0.8116     H
C        0.945   0.3104   0.8784     C
H       0.9478   0.2831   0.2949     H
H       0.9483   0.7354   0.9966     H
H       0.9519   0.5052   0.3703     H
C        0.954   0.2399   0.1345     C
C       0.9544    0.584   0.6083     C
C       0.9548   0.7526   0.9578     C
C       0.9592    0.719    0.655     C
H       0.9607   0.6948      0.5     H
C       0.9645   0.2673   0.0764     C
O       0.9656   0.0834   0.2953     O
C       0.9664   0.5711   0.1666     C
C       0.9699     0.49   0.8592     C
C       0.9731   0.3169    0.319     C
C       0.9752   0.4488   0.3634     C
C       0.9755   0.8019   0.8428     C
H       0.9776   0.5499   0.8519     H
C       0.9794    0.661   0.1561     C
H       0.9809   0.8175   0.8037     H
C       0.9883   0.0128   0.2727     C
