data_I
_chemical_name_common  '/home/zhangsd/repos/MofS-CGCNN/ML/data/TSD/clean_cifs/VUKTIG_clean'
_cell_length_a 14.62600
_cell_length_b 15.29700
_cell_length_c 23.00900
_cell_angle_alpha 84.81700
_cell_angle_beta  83.60500
_cell_angle_gamma 86.48800
_space_group_name_H-M_alt      'P 1'


loop_
_space_group_symop_operation_xyz
  'x, y, z' 

loop_
_atom_site_label
_atom_site_fract_x
_atom_site_fract_y
_atom_site_fract_z
_atom_site_type_symbol
H       0.0145   0.4751   0.1372     H
C       0.0174   0.3389   0.8068     C
O       0.0221   0.9026   0.7582     O
C       0.0287    0.941   0.1323     C
C       0.0293    0.528     0.15     C
H       0.0299    0.079   0.8686     H
C       0.0312   0.5278   0.6892     C
C       0.0314   0.6193   0.6792     C
C       0.0327   0.9671   0.7861     C
H       0.0335   0.2763    0.362     H
C       0.0356   0.3366   0.3526     C
C        0.038   0.5171   0.3293     C
H       0.0386    0.578   0.3229     H
C       0.0406   0.4168    0.824     C
C        0.042   0.9984   0.1728     C
O       0.0654   0.2032   0.7671     O
C       0.0721   0.6854    0.185     C
H       0.0776   0.4971   0.7082     H
H       0.0872   0.7391   0.1963     H
C       0.0892   0.2761   0.7798     C
H       0.0897   0.8736   0.0651     H
C       0.0975   0.6682   0.7048     C
C       0.1007   0.9118   0.0925     C
H       0.1014    0.433   0.8187     H
C        0.104    0.381   0.3699     C
C       0.1061     0.47   0.3574     C
O       0.1061   0.7494   0.6918     O
O       0.1137   0.0004  0.78135     O
C       0.1182   0.5508   0.1433     C
C       0.1303   0.0263    0.174     C
H       0.1322    0.594   0.0317     H
H       0.1404   0.0647   0.2014     H
C       0.1405    0.629   0.1596     C
H       0.1437   0.1422   0.5431     H
H       0.1469   0.1619   0.9759     H
O       0.1484   0.6254   0.7418     O
H       0.1493   0.3509   0.3903     H
H       0.1591   0.9167   0.8854     H
H       0.1652   0.5742   0.9332     H
C       0.1683   0.5452   0.0202     C
O       0.1689    0.801   0.8123     O
O        0.169   0.1447  0.65634     O
O       0.1727   0.2937   0.7715     O
O       0.1759   0.1303  0.86589     O
H       0.1774   0.9797   0.9699     H
O       0.1792   0.5169   0.3713     O
Gd     0.18242  0.87077  0.71779    Gd
O       0.1866   0.4925   0.1215     O
H       0.1873   0.1744   0.0689     H
C       0.1876   0.5332   0.9612     C
C       0.1879   0.9396    0.094     C
H       0.1912   0.1219   0.4463     H
C       0.1933   0.8864   0.9133     C
C       0.1957   0.1061   0.5336     C
H       0.2013    0.645   0.1537     H
C       0.2018   0.4859   0.0616     C
C        0.203   0.9237    0.964     C
H       0.2035   0.3551   0.6414     H
C       0.2039   0.9983   0.1353     C
C       0.2081   0.1688   0.9813     C
Gd     0.20964  0.11946  0.75979    Gd
H       0.2106   0.2808   0.5591     H
C       0.2132   0.0776   0.6407     C
H       0.2177   0.4485   0.2683     H
C       0.2222   0.7632   0.8466     C
C        0.224   0.0942   0.4757     C
C       0.2321   0.1756   0.0368     C
C       0.2339    0.804   0.9029     C
O       0.2386   0.5041   0.8429     O
C       0.2399   0.4607   0.9441     C
O       0.2407   0.0202  0.67999     O
C       0.2435   0.0649   0.5779     C
C       0.2437   0.3726   0.6088     C
C        0.248   0.3277   0.5599     C
C       0.2483   0.1663   0.8735     C
C       0.2509   0.8774   0.0061     C
C       0.2549   0.4134   0.0449     C
O       0.2603   0.4508  0.71409     O
C       0.2605    0.511    0.334     C
C       0.2619   0.4452   0.8805     C
H       0.2626   0.0179   0.1366     H
O       0.2638   0.9135   0.0583     O
C       0.2689   0.4701   0.2817     C
O       0.2701   0.6928  0.83759     O
C       0.2735   0.4013   0.9856     C
C       0.2755   0.1724   0.9325     C
H       0.2781    0.373   0.0729     H
C       0.2831   0.7592   0.9449     C
O       0.2878   0.8283   0.6368     O
C       0.2916   0.7962   0.9964     C
C       0.2927   0.4902   0.6652     C
Gd     0.29343  0.59771   0.7645    Gd
C       0.2972   0.4435   0.6114     C
O       0.3014   0.1958   0.8281     O
O       0.3014   0.3736   0.8677     O
C        0.302   0.0406   0.4616     C
C       0.3077   0.3522   0.5119     C
H       0.3092   0.3522    0.974     H
O       0.3098   0.3059   0.4626     O
H       0.3107    0.704   0.9386     H
O       0.3175   0.8961   0.7575     O
O       0.3186   0.0206   0.7995     O
C       0.3206   0.0113   0.5631     C
O       0.3209   0.7336  0.71031     O
C       0.3222    0.184   0.0445     C
H       0.3231   0.8622   0.4198     H
H        0.325   0.7659   0.0247     H
O       0.3255   0.5653   0.6636     O
O       0.3272   0.0326   0.4023     O
H        0.328   0.5785    0.386     H
Gd     0.32985  0.33278  0.77277    Gd
O       0.3336   0.1992  0.71036     O
C       0.3348   0.5492    0.352     C
O       0.3412   0.1968   0.1011     O
C       0.3422   0.7706   0.6595     C
C       0.3498   0.9439    0.792     C
C       0.3516   0.0002    0.505     C
H       0.3521   0.9822   0.5927     H
C        0.354   0.4625   0.2506     C
C       0.3549   0.4694   0.5618     C
H       0.3603   0.3272   0.3538     H
C       0.3609   0.4235   0.5121     C
H        0.361    0.432   0.2171     H
C       0.3651   0.1808   0.9416     C
C        0.377   0.8796   0.3976     C
H         0.39   0.5181   0.5618     H
C       0.3914   0.1866   0.9977     C
C       0.3929   0.9675    0.385     C
C       0.3968   0.2865   0.4336     C
H       0.4006   0.4407   0.4792     H
H        0.403   0.7997   0.5466     H
H       0.4051   0.9661   0.4954     H
C       0.4087   0.2237   0.6819     C
H       0.4091   0.0515   0.6891     H
C       0.4092   0.3036   0.3738     C
H         0.41   0.1827   0.9096     H
O        0.415   0.4634   0.7618     O
C       0.4189   0.5431   0.3187     C
C       0.4205   0.1609   0.1224     C
C       0.4288   0.9074    0.822     C
C       0.4291   0.4987   0.2678     C
O       0.4292    0.303   0.6811     O
H       0.4296    0.265   0.1681     H
H       0.4335   0.7573   0.3839     H
C       0.4345   0.7518   0.6276     C
H       0.4353   0.0476   0.0832     H
H       0.4365   0.0069   0.8728     H
H       0.4434   0.7917   0.7855     H
C       0.4436   0.8168   0.3763     C
C       0.4502   0.7724   0.5668     C
H       0.4527    0.192   0.0035     H
H       0.4555   0.2339   0.5038     H
O       0.4556   0.5898   0.7852     O
C       0.4559   0.2097   0.1607     C
C       0.4597   0.0798   0.1097     C
C        0.463   0.0693   0.6671     C
C       0.4645   0.9531   0.8633     C
C       0.4653   0.2473   0.4635     C
C       0.4681   0.8247   0.8115     C
H       0.4693   0.5687   0.3302     H
C       0.4719    0.994   0.3535     C
C        0.476   0.5174   0.7624     C
C       0.4765   0.1569   0.6556     C
H       0.4823   0.0534   0.3457     H
C        0.493   0.2863   0.3436     C
H       0.4985   0.6999   0.6968     H
H       0.5015   0.3001   0.3032     H
C        0.507   0.7137   0.6564     C
H       0.5177   0.9466   0.6543     H
C       0.5235   0.8431   0.3444     C
C        0.524   0.4826   0.2376     C
C       0.5281    0.006   0.6465     C
H       0.5307   0.4313   0.6698     H
C       0.5319   0.1753   0.1885     C
C       0.5347   0.7527   0.5365     C
C       0.5355   0.0469   0.1367     C
C        0.537   0.9307   0.3329     C
C       0.5403   0.9202   0.8903     C
C       0.5441   0.7903   0.8393     C
O       0.5444   0.4102   0.2148     O
H       0.5445   0.7661   0.4962     H
H       0.5473    0.808   0.9965     H
C       0.5498   0.2276   0.4332     C
C       0.5564   0.1832   0.6237     C
H       0.5566   0.2083   0.2145     H
H       0.5635   0.9931   0.1272     H
H       0.5647   0.9524   0.9168     H
C       0.5655   0.2482   0.3724     C
H       0.5665   0.2427   0.6161     H
H       0.5704    0.735   0.8319     H
O       0.5708    0.697   0.3189     O
C       0.5709   0.5013   0.7322     C
C       0.5712   0.0926    0.178     C
C       0.5795   0.8391   0.8776     C
C       0.5811   0.4569   0.6813     C
O        0.585   0.5366   0.2382     O
H         0.59   0.8173   0.0904     H
C       0.5908   0.6964   0.6262     C
H       0.5909   0.9485   0.3109     H
C       0.5913   0.7763   0.3181     C
H       0.5949   0.0339   0.5046     H
H        0.597   0.2003   0.4534     H
H       0.5994   0.5593   0.5208     H
C       0.6032   0.7135   0.5664     C
C       0.6071   0.0325    0.615     C
C       0.6086   0.8134   0.0023     C
H         0.61   0.4819   0.4382     H
C        0.623   0.1204   0.6024     C
C       0.6349   0.8192   0.0584     C
H        0.639    0.568   0.7829     H
C       0.6391   0.5765   0.4879     C
H       0.6397   0.6728   0.6462     H
C       0.6451   0.5306   0.4382     C
C        0.646   0.5375   0.7494     C
H       0.6479   0.0178   0.4073     H
C       0.6484   0.9998    0.495     C
C       0.6502   0.0561    0.208     C
C       0.6578   0.2294   0.3405     C
O       0.6588   0.8032   0.8989     O
C       0.6652   0.4508    0.648     C
O       0.6664   0.8008  0.28964     O
Gd     0.67015  0.66722  0.22723    Gd
H        0.672   0.4215    0.614     H
O       0.6728   0.9674   0.5977     O
O       0.6745   0.4347   0.3364     O
H        0.675   0.2341   0.9753     H
H       0.6769   0.1378   0.5802     H
C       0.6778    0.816   0.9555     C
O       0.6791   0.2664  0.28969     O
C       0.6794   0.9887   0.4369     C
O       0.6814   0.9794   0.2005     O
O       0.6825   0.1039   0.2425     O
H       0.6893    0.296   0.0614     H
O       0.6902   0.6941   0.5374     O
H       0.6908   0.6478    0.026     H
C       0.6923   0.6478   0.4881     C
C        0.698   0.9594   0.5384     C
O       0.6986   0.6264   0.1323     O
O       0.6986   0.8042   0.1719     O
C       0.7028   0.5565   0.3886     C
Gd     0.70657  0.40229   0.2355    Gd
C       0.7073   0.5098   0.3348     C
C       0.7084   0.2038   0.0036     C
O       0.7122   0.1717   0.3632     O
C       0.7169   0.2408   0.0551     C
H       0.7219    0.627   0.9271     H
C       0.7245   0.8276   0.0675     C
C       0.7265   0.5987   0.0144     C
O       0.7299   0.3072  0.16241     O
C       0.7311   0.5299   0.7183     C
O       0.7362   0.0865   0.9417     O
H       0.7374   0.9821   0.8634     H
C       0.7381   0.5548   0.1195     C
C       0.7395    0.489    0.666     C
O       0.7397   0.5492  0.28591     O
C       0.7451   0.5866   0.9551     C
C       0.7491   0.1226   0.9939     C
C       0.7517   0.8337   0.1265     C
C        0.752   0.6723   0.4401     C
C       0.7563   0.6274   0.3912     C
C       0.7565   0.9351   0.4221     C
O       0.7593   0.9798  0.32001     O
C       0.7601   0.5393   0.0559     C
O       0.7614   0.4959   0.1571     O
C       0.7661    0.196   0.0971     C
C       0.7679   0.8244   0.9632     C
C        0.776   0.9058   0.5243     C
C       0.7778   0.2368   0.1534     C
H       0.7823   0.5515   0.7317     H
C       0.7868   0.9224   0.3593     C
H       0.7894   0.7192   0.4409     H
Gd     0.79036  0.88054  0.24021    Gd
C       0.7919   0.8312   0.0187     C
C       0.7961   0.0017   0.8647     C
H       0.7965   0.6449   0.3586     H
C        0.797   0.0763    0.036     C
C       0.7982   0.5141   0.9384     C
H       0.7987    0.355   0.8463     H
C       0.8043   0.8939   0.4664     C
C       0.8067   0.1136   0.0867     C
H       0.8088   0.8781   0.5537     H
C       0.8121   0.0604    0.906     C
C       0.8124   0.4668   0.0388     C
H       0.8127   0.8256   0.9311     H
O       0.8134   0.5075   0.8785     O
Gd     0.81758  0.12923  0.28221    Gd
O       0.8208   0.4831   0.6287     O
H       0.8226   0.0203   0.0301     H
O       0.8241   0.8697  0.13411     O
O       0.8273   0.7063   0.2285     O
O        0.831   0.8553  0.34366     O
O       0.8311    0.199   0.1877     O
C       0.8317   0.4548   0.9798     C
H       0.8348   0.4258   0.0668     H
H       0.8409   0.0833   0.1146     H
H       0.8507   0.6491   0.6097     H
O       0.8516   0.3746   0.2582     O
H       0.8531   0.8381   0.0241     H
H       0.8563   0.8578   0.4569     H
C       0.8595    0.371   0.8404     C
H       0.8596   0.9353   0.7986     H
H       0.8678    0.406   0.9683     H
C       0.8697   0.9737    0.826     C
C       0.8818   0.4492   0.8567     C
O       0.8863   0.9996  0.21865     O
O       0.8939   0.2506   0.3082     O
C       0.8939     0.53   0.6426     C
C        0.896    0.619   0.6301     C
H       0.8986    0.567   0.1813     H
C       0.8993   0.0882   0.9075     C
C       0.9025   0.3318   0.2952     C
H       0.9103   0.1264   0.9349     H
C       0.9108   0.7239   0.2202     C
H       0.9128   0.2609   0.8037     H
H       0.9224   0.5029   0.2918     H
C       0.9279   0.3146    0.815     C
O       0.9346   0.7968   0.2329     O
C        0.958   0.0016   0.8272     C
C       0.9594   0.5832    0.176     C
H       0.9614    0.422   0.6771     H
C        0.962   0.4829   0.6707     C
C       0.9644   0.6634   0.6474     C
H       0.9665   0.7237    0.638     H
C       0.9673   0.0329   0.2139     C
C       0.9686   0.3807   0.3208     C
C       0.9688   0.4722   0.3108     C
H       0.9701    0.921   0.1314     H
C       0.9707    0.472     0.85     C
C       0.9713    0.059   0.8677     C
O       0.9779   0.0974   0.2418     O
C       0.9826   0.6611   0.1932     C
H       0.9855   0.5249   0.8628     H
