data_I
_chemical_name_common  '/home/zhangsd/repos/MofS-CGCNN/ML/data/TSD/clean_cifs/VULKOD_clean'
_cell_length_a  7.65480
_cell_length_b 20.14910
_cell_length_c 25.64130
_cell_angle_alpha 90.00000
_cell_angle_beta  90.00000
_cell_angle_gamma 90.00000
_space_group_name_H-M_alt      'P 1'


loop_
_space_group_symop_operation_xyz
  'x, y, z' 

loop_
_atom_site_label
_atom_site_fract_x
_atom_site_fract_y
_atom_site_fract_z
_atom_site_type_symbol
O       0.0056  0.16984  0.12251     O
O       0.0056  0.66984  0.37749     O
C       0.0093  0.38475  0.07789     C
C       0.0093  0.88475  0.42211     C
O       0.0156  0.32373  0.19613     O
O       0.0156  0.82373  0.30387     O
C       0.0213  0.13781  0.86081     C
C       0.0213  0.63781  0.63919     C
C       0.0221  0.13605  0.95729     C
C       0.0221  0.63605  0.54271     C
C       0.0258   0.1385  0.80595     C
C       0.0258   0.6385  0.69405     C
C       0.0262  0.02074  0.52274     C
C       0.0262  0.52074  0.97726     C
C       0.0291  0.13472  0.01219     C
C       0.0291  0.63472  0.48781     C
C       0.0592  0.31338  0.53374     C
C       0.0592  0.81338  0.96626     C
C       0.0629  0.42207  0.03571     C
C       0.0629  0.92207  0.46429     C
C       0.0634   0.3089  0.28618     C
C       0.0634   0.8089  0.21382     C
C       0.0724  0.31011  0.38228     C
C       0.0724  0.81011  0.11772     C
C       0.0725  0.31098   0.4376     C
C       0.0725  0.81098   0.0624     C
H       0.0749   0.3476   0.0868     H
H       0.0749   0.8476   0.4132     H
C       0.0782  0.29627  0.59026     C
C       0.0782  0.79627  0.90974     C
H       0.0828   0.1069   0.7857     H
H       0.0828   0.6069   0.7143     H
H        0.087   0.1023   0.0314     H
H        0.087   0.6023   0.4686     H
C       0.0877  0.28953  0.23063     C
C       0.0877  0.78953  0.26937     C
S      0.11137  0.08611  0.90853     S
S      0.11137  0.58611  0.59147     S
N       0.1295   0.1013  0.60622     N
N       0.1295   0.6013  0.89378     N
S      0.15533  0.26248   0.4871     S
S      0.15533  0.76248   0.0129     S
S      0.15625  0.25946  0.33432     S
S      0.15625  0.75946  0.16568     S
H       0.1588   0.4087   0.0161     H
H       0.1588   0.9087   0.4839     H
C       0.1676  0.00484  0.55333     C
C       0.1676  0.50484  0.94667     C
O       0.1797  0.24933  0.59971     O
O       0.1797  0.74933  0.90029     O
O       0.1823  0.23943  0.22369     O
O       0.1823  0.73943  0.27631     O
H       0.1887   0.0347   0.1137     H
H       0.1887   0.5347   0.3863     H
C       0.2143   0.0462  0.59386     C
C       0.2143   0.5462  0.90614     C
H       0.2313   0.4665   0.9533     H
H       0.2313   0.9665   0.5467     H
Mn     0.24115  0.18056  0.65988    Mn
Mn     0.24115  0.68056  0.84012    Mn
Mn     0.25885  0.18056  0.15988    Mn
Mn     0.25885  0.68056  0.34012    Mn
H       0.2687   0.4665   0.4533     H
H       0.2687   0.9665   0.0467     H
C       0.2857   0.0462  0.09386     C
C       0.2857   0.5462  0.40614     C
H       0.3113   0.0347   0.6137     H
H       0.3113   0.5347   0.8863     H
O       0.3177  0.23943  0.72369     O
O       0.3177  0.73943  0.77631     O
O       0.3203  0.24933  0.09971     O
O       0.3203  0.74933  0.40029     O
C       0.3324  0.00484  0.05333     C
C       0.3324  0.50484  0.44667     C
H       0.3412   0.4087   0.5161     H
H       0.3412   0.9087   0.9839     H
S      0.34375  0.25946  0.83432     S
S      0.34375  0.75946  0.66568     S
S      0.34467  0.26248   0.9871     S
S      0.34467  0.76248   0.5129     S
N       0.3705   0.1013  0.10622     N
N       0.3705   0.6013  0.39378     N
S      0.38863  0.08611  0.40853     S
S      0.38863  0.58611  0.09147     S
C       0.4123  0.28953  0.73063     C
C       0.4123  0.78953  0.76937     C
H        0.413   0.1023   0.5314     H
H        0.413   0.6023   0.9686     H
H       0.4172   0.1069   0.2857     H
H       0.4172   0.6069   0.2143     H
C       0.4218  0.29627  0.09026     C
C       0.4218  0.79627  0.40974     C
H       0.4251   0.3476   0.5868     H
H       0.4251   0.8476   0.9132     H
C       0.4275  0.31098   0.9376     C
C       0.4275  0.81098   0.5624     C
C       0.4276  0.31011  0.88228     C
C       0.4276  0.81011  0.61772     C
C       0.4366   0.3089  0.78618     C
C       0.4366   0.8089  0.71382     C
C       0.4371  0.42207  0.53571     C
C       0.4371  0.92207  0.96429     C
C       0.4408  0.31338  0.03374     C
C       0.4408  0.81338  0.46626     C
C       0.4709  0.13472  0.51219     C
C       0.4709  0.63472  0.98781     C
C       0.4738  0.02074  0.02274     C
C       0.4738  0.52074  0.47726     C
C       0.4742   0.1385  0.30595     C
C       0.4742   0.6385  0.19405     C
C       0.4779  0.13605  0.45729     C
C       0.4779  0.63605  0.04271     C
C       0.4787  0.13781  0.36081     C
C       0.4787  0.63781  0.13919     C
O       0.4844  0.32373  0.69613     O
O       0.4844  0.82373  0.80387     O
C       0.4907  0.38475  0.57789     C
C       0.4907  0.88475  0.92211     C
O       0.4944  0.16984  0.62251     O
O       0.4944  0.66984  0.87749     O
O       0.5056  0.33016  0.12251     O
O       0.5056  0.83016  0.37749     O
C       0.5093  0.11525  0.07789     C
C       0.5093  0.61525  0.42211     C
O       0.5156  0.17627  0.19613     O
O       0.5156  0.67627  0.30387     O
C       0.5213  0.36219  0.86081     C
C       0.5213  0.86219  0.63919     C
C       0.5221  0.36395  0.95729     C
C       0.5221  0.86395  0.54271     C
C       0.5258   0.3615  0.80595     C
C       0.5258   0.8615  0.69405     C
C       0.5262  0.47926  0.52274     C
C       0.5262  0.97926  0.97726     C
C       0.5291  0.36528  0.01219     C
C       0.5291  0.86528  0.48781     C
C       0.5592  0.18662  0.53374     C
C       0.5592  0.68662  0.96626     C
C       0.5629  0.07793  0.03571     C
C       0.5629  0.57793  0.46429     C
C       0.5634   0.1911  0.28618     C
C       0.5634   0.6911  0.21382     C
C       0.5724  0.18989  0.38228     C
C       0.5724  0.68989  0.11772     C
C       0.5725  0.18902   0.4376     C
C       0.5725  0.68902   0.0624     C
H       0.5749   0.1524   0.0868     H
H       0.5749   0.6524   0.4132     H
C       0.5782  0.20373  0.59026     C
C       0.5782  0.70373  0.90974     C
H       0.5828   0.3931   0.7857     H
H       0.5828   0.8931   0.7143     H
H        0.587   0.3977   0.0314     H
H        0.587   0.8977   0.4686     H
C       0.5877  0.21047  0.23063     C
C       0.5877  0.71047  0.26937     C
S      0.61137  0.41389  0.90853     S
S      0.61137  0.91389  0.59147     S
N       0.6295   0.3987  0.60622     N
N       0.6295   0.8987  0.89378     N
S      0.65533  0.23752   0.4871     S
S      0.65533  0.73752   0.0129     S
S      0.65625  0.24054  0.33432     S
S      0.65625  0.74054  0.16568     S
H       0.6588   0.0913   0.0161     H
H       0.6588   0.5913   0.4839     H
C       0.6676  0.49516  0.55333     C
C       0.6676  0.99516  0.94667     C
O       0.6797  0.25067  0.59971     O
O       0.6797  0.75067  0.90029     O
O       0.6823  0.26057  0.22369     O
O       0.6823  0.76057  0.27631     O
H       0.6887   0.4653   0.1137     H
H       0.6887   0.9653   0.3863     H
C       0.7143   0.4538  0.59386     C
C       0.7143   0.9538  0.90614     C
H       0.7313   0.0335   0.9533     H
H       0.7313   0.5335   0.5467     H
Mn     0.74115  0.31944  0.65988    Mn
Mn     0.74115  0.81944  0.84012    Mn
Mn     0.75885  0.31944  0.15988    Mn
Mn     0.75885  0.81944  0.34012    Mn
H       0.7687   0.0335   0.4533     H
H       0.7687   0.5335   0.0467     H
C       0.7857   0.4538  0.09386     C
C       0.7857   0.9538  0.40614     C
H       0.8113   0.4653   0.6137     H
H       0.8113   0.9653   0.8863     H
O       0.8177  0.26057  0.72369     O
O       0.8177  0.76057  0.77631     O
O       0.8203  0.25067  0.09971     O
O       0.8203  0.75067  0.40029     O
C       0.8324  0.49516  0.05333     C
C       0.8324  0.99516  0.44667     C
H       0.8412   0.0913   0.5161     H
H       0.8412   0.5913   0.9839     H
S      0.84375  0.24054  0.83432     S
S      0.84375  0.74054  0.66568     S
S      0.84467  0.23752   0.9871     S
S      0.84467  0.73752   0.5129     S
N       0.8705   0.3987  0.10622     N
N       0.8705   0.8987  0.39378     N
S      0.88863  0.41389  0.40853     S
S      0.88863  0.91389  0.09147     S
C       0.9123  0.21047  0.73063     C
C       0.9123  0.71047  0.76937     C
H        0.913   0.3977   0.5314     H
H        0.913   0.8977   0.9686     H
H       0.9172   0.3931   0.2857     H
H       0.9172   0.8931   0.2143     H
C       0.9218  0.20373  0.09026     C
C       0.9218  0.70373  0.40974     C
H       0.9251   0.1524   0.5868     H
H       0.9251   0.6524   0.9132     H
C       0.9275  0.18902   0.9376     C
C       0.9275  0.68902   0.5624     C
C       0.9276  0.18989  0.88228     C
C       0.9276  0.68989  0.61772     C
C       0.9366   0.1911  0.78618     C
C       0.9366   0.6911  0.71382     C
C       0.9371  0.07793  0.53571     C
C       0.9371  0.57793  0.96429     C
C       0.9408  0.18662  0.03374     C
C       0.9408  0.68662  0.46626     C
C       0.9709  0.36528  0.51219     C
C       0.9709  0.86528  0.98781     C
C       0.9738  0.47926  0.02274     C
C       0.9738  0.97926  0.47726     C
C       0.9742   0.3615  0.30595     C
C       0.9742   0.8615  0.19405     C
C       0.9779  0.36395  0.45729     C
C       0.9779  0.86395  0.04271     C
C       0.9787  0.36219  0.36081     C
C       0.9787  0.86219  0.13919     C
O       0.9844  0.17627  0.69613     O
O       0.9844  0.67627  0.80387     O
C       0.9907  0.11525  0.57789     C
C       0.9907  0.61525  0.92211     C
O       0.9944  0.33016  0.62251     O
O       0.9944  0.83016  0.87749     O
