data_I
_chemical_name_common  '/home/zhangsd/repos/MofS-CGCNN/ML/data/TSD/clean_cifs/VUNCAJ_clean'
_cell_length_a  8.62960
_cell_length_b  9.60800
_cell_length_c 14.49700
_cell_angle_alpha 90.00000
_cell_angle_beta  93.09700
_cell_angle_gamma 90.00000
_space_group_name_H-M_alt      'P 1'


loop_
_space_group_symop_operation_xyz
  'x, y, z' 

loop_
_atom_site_label
_atom_site_fract_x
_atom_site_fract_y
_atom_site_fract_z
_atom_site_type_symbol
O        0.007   0.2752   0.7954     O
C       0.0262   0.6109   0.0611     C
C       0.0305   0.3662   0.0285     C
C       0.0424   0.7324   0.1266     C
H        0.044   0.0404   0.5914     H
N       0.0448   0.7214   0.4889     N
H       0.0497   0.2734   0.0487     H
C         0.06   0.4747   0.0897     C
C       0.0641   0.0376   0.5248     C
H       0.0656   0.7332   0.3516     H
C       0.0862   0.1862   0.4907     C
O        0.091   0.3507   0.2333     O
H       0.0977   0.1845   0.4231     H
C       0.0999   0.6921   0.4087     C
O       0.1058   0.8392   0.0929     O
N       0.1194   0.6444   0.5571     N
C       0.1383    0.444   0.1831     C
Zn     0.15674  0.99706  0.17169    Zn
H       0.1617   0.9852   0.5182     H
H       0.1831   0.2247   0.5201     H
N       0.2106   0.5963    0.419     N
H       0.2158   0.0042   0.9597     H
C       0.2158   0.5706   0.5115     C
O       0.2419   0.0176   0.2968     O
O       0.2581   0.5176   0.2032     O
C       0.2842   0.0706   0.9885     C
H       0.2842   0.5042   0.5403     H
N       0.2894   0.0963    0.081     N
H       0.3169   0.7247   0.9799     H
H       0.3383   0.4852   0.9818     H
Zn     0.34326  0.49706  0.32831    Zn
C       0.3617    0.944   0.3169     C
N       0.3806   0.1444   0.9429     N
O       0.3942   0.3392   0.4071     O
C       0.4001   0.1921   0.0913     C
H       0.4023   0.6845   0.0769     H
O        0.409   0.8507   0.2667     O
C       0.4138   0.6862   0.0093     C
H       0.4344   0.2332   0.1484     H
C       0.4359   0.5376   0.9752     C
C         0.44   0.9747   0.4103     C
H       0.4503   0.7734   0.4513     H
N       0.4552   0.2214   0.0111     N
H        0.456   0.5404   0.9086     H
C       0.4576   0.2324   0.3734     C
C       0.4695   0.8662   0.4715     C
C       0.4738   0.1109   0.4389     C
O        0.493   0.7752   0.7046     O
O        0.507   0.2248   0.2954     O
C       0.5262   0.8891   0.5611     C
C       0.5305   0.1338   0.5285     C
C       0.5424   0.7676   0.6266     C
H        0.544   0.4596   0.0914     H
N       0.5448   0.7786   0.9889     N
H       0.5497   0.2266   0.5487     H
C         0.56   0.0253   0.5897     C
C       0.5641   0.4624   0.0248     C
H       0.5656   0.7668   0.8516     H
C       0.5862   0.3138   0.9907     C
O        0.591   0.1493   0.7333     O
H       0.5977   0.3155   0.9231     H
C       0.5999   0.8079   0.9087     C
O       0.6058   0.6608   0.5929     O
N       0.6194   0.8556   0.0571     N
C       0.6383    0.056   0.6831     C
Zn     0.65674  0.50294  0.67169    Zn
H       0.6617   0.5148   0.0182     H
H       0.6831   0.2753   0.0201     H
N       0.7106   0.9037    0.919     N
H       0.7158   0.4958   0.4597     H
C       0.7158   0.9294   0.0115     C
O       0.7419   0.4824   0.7968     O
O       0.7581   0.9824   0.7032     O
C       0.7842   0.4294   0.4885     C
H       0.7842   0.9958   0.0403     H
N       0.7894   0.4037    0.581     N
H       0.8169   0.7753   0.4799     H
H       0.8383   0.0148   0.4818     H
Zn     0.84326  0.00294  0.82831    Zn
C       0.8617    0.556   0.8169     C
N       0.8806   0.3556   0.4429     N
O       0.8942   0.1608   0.9071     O
C       0.9001   0.3079   0.5913     C
H       0.9023   0.8155   0.5769     H
O        0.909   0.6493   0.7667     O
C       0.9138   0.8138   0.5093     C
H       0.9344   0.2668   0.6484     H
C       0.9359   0.9624   0.4752     C
C         0.94   0.5253   0.9103     C
H       0.9503   0.7266   0.9513     H
N       0.9552   0.2786   0.5111     N
H        0.956   0.9596   0.4086     H
C       0.9576   0.2676   0.8734     C
C       0.9695   0.6338   0.9715     C
C       0.9738   0.3891   0.9389     C
O        0.993   0.7248   0.2046     O
