data_I
_chemical_name_common  '/home/zhangsd/repos/MofS-CGCNN/ML/data/TSD/clean_cifs/VURLIF_clean'
_cell_length_a 27.76800
_cell_length_b  7.90000
_cell_length_c 18.29800
_cell_angle_alpha 90.00000
_cell_angle_beta  108.32900
_cell_angle_gamma 90.00000
_space_group_name_H-M_alt      'P 1'


loop_
_space_group_symop_operation_xyz
  'x, y, z' 

loop_
_atom_site_label
_atom_site_fract_x
_atom_site_fract_y
_atom_site_fract_z
_atom_site_type_symbol
O          0.0   0.3337     0.75     O
N          0.0   0.4749     0.25     N
N          0.0   0.5251     0.75     N
O          0.0   0.6663     0.25     O
O      0.02387   0.0561   0.3483     O
O      0.02387   0.9439   0.8483     O
O       0.0283   0.4052  0.21866     O
O       0.0283   0.5948  0.71866     O
Zn     0.04098  0.17319  0.19715    Zn
Zn     0.04098  0.82681  0.69715    Zn
H       0.0565   0.0601   0.9778     H
H       0.0565   0.9399   0.4778     H
O      0.06231   0.1476  0.10822     O
O      0.06231   0.8524  0.60822     O
C      0.06728   0.0233  0.34495     C
C      0.06728   0.9767  0.84495     C
O      0.08269   0.0554   0.2887     O
O      0.08269   0.9446   0.7887     O
C      0.08892     0.09  0.97785     C
C      0.08892     0.91  0.47785     C
C      0.10345   0.0592  0.91342     C
C      0.10345   0.9408  0.41342     C
C      0.10667    0.197  0.11288     C
C      0.10667    0.803  0.61288     C
C      0.12245   0.1655  0.04284     C
C      0.12245   0.8345  0.54284     C
O      0.13526   0.2655  0.16989     O
O      0.13526   0.7345  0.66989     O
C      0.15197   0.1034  0.91352     C
C      0.15197   0.8966  0.41352     C
H       0.1623   0.0826   0.8706     H
H       0.1623   0.9174   0.3706     H
C      0.17062   0.2111  0.04299     C
C      0.17062   0.7889  0.54299     C
C      0.18484   0.1792  0.97884     C
C      0.18484   0.8208  0.47884     C
H       0.1931   0.2627    0.086     H
H       0.1931   0.7373    0.586     H
N      0.23368   0.2226  0.97251     N
N      0.23368   0.7774  0.47251     N
N      0.26632   0.2774  0.02749     N
N      0.26632   0.7226  0.52749     N
H       0.3069   0.2373    0.914     H
H       0.3069   0.7627    0.414     H
C      0.31516   0.3208  0.02116     C
C      0.31516   0.6792  0.52116     C
C      0.32938   0.2889  0.95701     C
C      0.32938   0.7111  0.45701     C
H       0.3377   0.4174   0.1294     H
H       0.3377   0.5826   0.6294     H
C      0.34803   0.3966  0.08648     C
C      0.34803   0.6034  0.58648     C
O      0.36474   0.2345  0.83011     O
O      0.36474   0.7655  0.33011     O
C      0.37755   0.3345  0.95716     C
C      0.37755   0.6655  0.45716     C
C      0.39333    0.303  0.88712     C
C      0.39333    0.697  0.38712     C
C      0.39655   0.4408  0.08658     C
C      0.39655   0.5592  0.58658     C
C      0.41108     0.41  0.02215     C
C      0.41108     0.59  0.52215     C
O      0.41731   0.4446   0.7113     O
O      0.41731   0.5554   0.2113     O
C      0.43272   0.4767  0.65505     C
C      0.43272   0.5233  0.15505     C
O      0.43769   0.3524  0.89178     O
O      0.43769   0.6476  0.39178     O
H       0.4435   0.4399   0.0222     H
H       0.4435   0.5601   0.5222     H
Zn     0.45902  0.32681  0.80285    Zn
Zn     0.45902  0.67319  0.30285    Zn
O       0.4717   0.0948  0.78134     O
O       0.4717   0.9052  0.28134     O
O      0.47613   0.4439   0.6517     O
O      0.47613   0.5561   0.1517     O
N          0.5   0.0251     0.75     N
O          0.5   0.1663     0.25     O
O          0.5   0.8337     0.75     O
N          0.5   0.9749     0.25     N
O      0.52387   0.4439   0.8483     O
O      0.52387   0.5561   0.3483     O
O       0.5283   0.0948  0.71866     O
O       0.5283   0.9052  0.21866     O
Zn     0.54098  0.32681  0.69715    Zn
Zn     0.54098  0.67319  0.19715    Zn
H       0.5565   0.4399   0.4778     H
H       0.5565   0.5601   0.9778     H
O      0.56231   0.3524  0.60822     O
O      0.56231   0.6476  0.10822     O
C      0.56728   0.4767  0.84495     C
C      0.56728   0.5233  0.34495     C
O      0.58269   0.4446   0.7887     O
O      0.58269   0.5554   0.2887     O
C      0.58892     0.41  0.47785     C
C      0.58892     0.59  0.97785     C
C      0.60345   0.4408  0.41342     C
C      0.60345   0.5592  0.91342     C
C      0.60667    0.303  0.61288     C
C      0.60667    0.697  0.11288     C
C      0.62245   0.3345  0.54284     C
C      0.62245   0.6655  0.04284     C
O      0.63526   0.2345  0.66989     O
O      0.63526   0.7655  0.16989     O
C      0.65197   0.3966  0.41352     C
C      0.65197   0.6034  0.91352     C
H       0.6623   0.4174   0.3706     H
H       0.6623   0.5826   0.8706     H
C      0.67062   0.2889  0.54299     C
C      0.67062   0.7111  0.04299     C
C      0.68484   0.3208  0.47884     C
C      0.68484   0.6792  0.97884     C
H       0.6931   0.2373    0.586     H
H       0.6931   0.7627    0.086     H
N      0.73368   0.2774  0.47251     N
N      0.73368   0.7226  0.97251     N
N      0.76632   0.2226  0.52749     N
N      0.76632   0.7774  0.02749     N
H       0.8069   0.2627    0.414     H
H       0.8069   0.7373    0.914     H
C      0.81516   0.1792  0.52116     C
C      0.81516   0.8208  0.02116     C
C      0.82938   0.2111  0.45701     C
C      0.82938   0.7889  0.95701     C
H       0.8377   0.0826   0.6294     H
H       0.8377   0.9174   0.1294     H
C      0.84803   0.1034  0.58648     C
C      0.84803   0.8966  0.08648     C
O      0.86474   0.2655  0.33011     O
O      0.86474   0.7345  0.83011     O
C      0.87755   0.1655  0.45716     C
C      0.87755   0.8345  0.95716     C
C      0.89333    0.197  0.38712     C
C      0.89333    0.803  0.88712     C
C      0.89655   0.0592  0.58658     C
C      0.89655   0.9408  0.08658     C
C      0.91108     0.09  0.52215     C
C      0.91108     0.91  0.02215     C
O      0.91731   0.0554   0.2113     O
O      0.91731   0.9446   0.7113     O
C      0.93272   0.0233  0.15505     C
C      0.93272   0.9767  0.65505     C
O      0.93769   0.1476  0.39178     O
O      0.93769   0.8524  0.89178     O
H       0.9435   0.0601   0.5222     H
H       0.9435   0.9399   0.0222     H
Zn     0.95902  0.17319  0.30285    Zn
Zn     0.95902  0.82681  0.80285    Zn
O       0.9717   0.4052  0.28134     O
O       0.9717   0.5948  0.78134     O
O      0.97613   0.0561   0.1517     O
O      0.97613   0.9439   0.6517     O
