data_I
_chemical_name_common  '/home/zhangsd/repos/MofS-CGCNN/ML/data/TSD/clean_cifs/WAHNEB_clean'
_cell_length_a 21.23790
_cell_length_b 21.23790
_cell_length_c 21.23790
_cell_angle_alpha 90.00000
_cell_angle_beta  90.00000
_cell_angle_gamma 90.00000
_space_group_name_H-M_alt      'P 1'


loop_
_space_group_symop_operation_xyz
  'x, y, z' 

loop_
_atom_site_label
_atom_site_fract_x
_atom_site_fract_y
_atom_site_fract_z
_atom_site_type_symbol
Cu         0.0      0.5    0.301    Cu
Cu         0.0      0.5    0.699    Cu
N        0.068    0.434    0.296     N
N        0.068    0.434    0.704     N
N        0.068    0.566    0.296     N
N        0.068    0.566    0.704     N
H       0.0685   0.4337      0.2     H
H       0.0685   0.4337      0.8     H
H       0.0685   0.5663      0.2     H
H       0.0685   0.5663      0.8     H
H       0.0823   0.4201   0.3898     H
H       0.0823   0.4201   0.6102     H
H       0.0823   0.5799   0.3898     H
H       0.0823   0.5799   0.6102     H
C       0.0873   0.4155   0.2362     C
C       0.0873   0.4155   0.7638     C
C       0.0873   0.5845   0.2362     C
C       0.0873   0.5845   0.7638     C
C       0.0955   0.4074    0.349     C
C       0.0955   0.4074    0.651     C
C       0.0955   0.5926    0.349     C
C       0.0955   0.5926    0.651     C
C       0.1341   0.3702   0.2296     C
C       0.1341   0.3702   0.7704     C
C       0.1341   0.6298   0.2296     C
C       0.1341   0.6298   0.7704     C
C       0.1423   0.3621   0.3424     C
C       0.1423   0.3621   0.6576     C
C       0.1423   0.6379   0.3424     C
C       0.1423   0.6379   0.6576     C
H       0.1473   0.3575   0.1888     H
H       0.1473   0.3575   0.8112     H
H       0.1473   0.6425   0.1888     H
H       0.1473   0.6425   0.8112     H
H       0.1611   0.3439   0.3786     H
H       0.1611   0.3439   0.6214     H
H       0.1611   0.6561   0.3786     H
H       0.1611   0.6561   0.6214     H
C       0.1616   0.3435   0.2826     C
C       0.1616   0.3435   0.7174     C
C       0.1616   0.6565   0.2826     C
C       0.1616   0.6565   0.7174     C
H       0.1888   0.1473   0.3575     H
H       0.1888   0.1473   0.6425     H
H       0.1888   0.8527   0.3575     H
H       0.1888   0.8527   0.6425     H
H          0.2   0.0685   0.4337     H
H          0.2   0.0685   0.5663     H
H          0.2   0.9315   0.4337     H
H          0.2   0.9315   0.5663     H
H       0.2034   0.2577   0.3547     H
H       0.2034   0.2577   0.6453     H
H       0.2034   0.7423   0.3547     H
H       0.2034   0.7423   0.6453     H
C       0.2203   0.3079   0.2741     C
C       0.2203   0.3079   0.7259     C
C       0.2203   0.6921   0.2741     C
C       0.2203   0.6921   0.7259     C
C       0.2292   0.2606   0.3182     C
C       0.2292   0.2606   0.6818     C
C       0.2292   0.7394   0.3182     C
C       0.2292   0.7394   0.6818     C
C       0.2296   0.1341   0.3702     C
C       0.2296   0.1341   0.6298     C
C       0.2296   0.8659   0.3702     C
C       0.2296   0.8659   0.6298     C
C       0.2362   0.0873   0.4155     C
C       0.2362   0.0873   0.5845     C
C       0.2362   0.9127   0.4155     C
C       0.2362   0.9127   0.5845     C
H       0.2577   0.3547   0.2034     H
H       0.2577   0.3547   0.7966     H
H       0.2577   0.6453   0.2034     H
H       0.2577   0.6453   0.7966     H
C       0.2606   0.3182   0.2292     C
C       0.2606   0.3182   0.7708     C
C       0.2606   0.6818   0.2292     C
C       0.2606   0.6818   0.7708     C
C       0.2741   0.2203   0.3079     C
C       0.2741   0.2203   0.6921     C
C       0.2741   0.7797   0.3079     C
C       0.2741   0.7797   0.6921     C
C       0.2826   0.1616   0.3435     C
C       0.2826   0.1616   0.6565     C
C       0.2826   0.8384   0.3435     C
C       0.2826   0.8384   0.6565     C
N        0.296    0.068    0.434     N
N        0.296    0.068    0.566     N
N        0.296    0.932    0.434     N
N        0.296    0.932    0.566     N
Cu       0.301      0.0      0.5    Cu
C       0.3079   0.2741   0.2203     C
C       0.3079   0.2741   0.7797     C
C       0.3079   0.7259   0.2203     C
C       0.3079   0.7259   0.7797     C
C       0.3182   0.2292   0.2606     C
C       0.3182   0.2292   0.7394     C
C       0.3182   0.7708   0.2606     C
C       0.3182   0.7708   0.7394     C
C       0.3424   0.1423   0.3621     C
C       0.3424   0.1423   0.6379     C
C       0.3424   0.8577   0.3621     C
C       0.3424   0.8577   0.6379     C
C       0.3435   0.2826   0.1616     C
C       0.3435   0.2826   0.8384     C
C       0.3435   0.7174   0.1616     C
C       0.3435   0.7174   0.8384     C
H       0.3439   0.3786   0.1611     H
H       0.3439   0.3786   0.8389     H
H       0.3439   0.6214   0.1611     H
H       0.3439   0.6214   0.8389     H
C        0.349   0.0955   0.4074     C
C        0.349   0.0955   0.5926     C
C        0.349   0.9045   0.4074     C
C        0.349   0.9045   0.5926     C
H       0.3547   0.2034   0.2577     H
H       0.3547   0.2034   0.7423     H
H       0.3547   0.7966   0.2577     H
H       0.3547   0.7966   0.7423     H
H       0.3575   0.1888   0.1473     H
H       0.3575   0.1888   0.8527     H
H       0.3575   0.8112   0.1473     H
H       0.3575   0.8112   0.8527     H
C       0.3621   0.3424   0.1423     C
C       0.3621   0.3424   0.8577     C
C       0.3621   0.6576   0.1423     C
C       0.3621   0.6576   0.8577     C
C       0.3702   0.2296   0.1341     C
C       0.3702   0.2296   0.8659     C
C       0.3702   0.7704   0.1341     C
C       0.3702   0.7704   0.8659     C
H       0.3786   0.1611   0.3439     H
H       0.3786   0.1611   0.6561     H
H       0.3786   0.8389   0.3439     H
H       0.3786   0.8389   0.6561     H
H       0.3898   0.0823   0.4201     H
H       0.3898   0.0823   0.5799     H
H       0.3898   0.9177   0.4201     H
H       0.3898   0.9177   0.5799     H
C       0.4074    0.349   0.0955     C
C       0.4074    0.349   0.9045     C
C       0.4074    0.651   0.0955     C
C       0.4074    0.651   0.9045     C
C       0.4155   0.2362   0.0873     C
C       0.4155   0.2362   0.9127     C
C       0.4155   0.7638   0.0873     C
C       0.4155   0.7638   0.9127     C
H       0.4201   0.3898   0.0823     H
H       0.4201   0.3898   0.9177     H
H       0.4201   0.6102   0.0823     H
H       0.4201   0.6102   0.9177     H
H       0.4337      0.2   0.0685     H
H       0.4337      0.2   0.9315     H
H       0.4337      0.8   0.0685     H
H       0.4337      0.8   0.9315     H
N        0.434    0.296    0.068     N
N        0.434    0.296    0.932     N
N        0.434    0.704    0.068     N
N        0.434    0.704    0.932     N
Cu         0.5    0.301      0.0    Cu
Cu         0.5    0.699      0.0    Cu
N        0.566    0.296    0.068     N
N        0.566    0.296    0.932     N
N        0.566    0.704    0.068     N
N        0.566    0.704    0.932     N
H       0.5663      0.2   0.0685     H
H       0.5663      0.2   0.9315     H
H       0.5663      0.8   0.0685     H
H       0.5663      0.8   0.9315     H
H       0.5799   0.3898   0.0823     H
H       0.5799   0.3898   0.9177     H
H       0.5799   0.6102   0.0823     H
H       0.5799   0.6102   0.9177     H
C       0.5845   0.2362   0.0873     C
C       0.5845   0.2362   0.9127     C
C       0.5845   0.7638   0.0873     C
C       0.5845   0.7638   0.9127     C
C       0.5926    0.349   0.0955     C
C       0.5926    0.349   0.9045     C
C       0.5926    0.651   0.0955     C
C       0.5926    0.651   0.9045     C
H       0.6102   0.0823   0.4201     H
H       0.6102   0.0823   0.5799     H
H       0.6102   0.9177   0.4201     H
H       0.6102   0.9177   0.5799     H
H       0.6214   0.1611   0.3439     H
H       0.6214   0.1611   0.6561     H
H       0.6214   0.8389   0.3439     H
H       0.6214   0.8389   0.6561     H
C       0.6298   0.2296   0.1341     C
C       0.6298   0.2296   0.8659     C
C       0.6298   0.7704   0.1341     C
C       0.6298   0.7704   0.8659     C
C       0.6379   0.3424   0.1423     C
C       0.6379   0.3424   0.8577     C
C       0.6379   0.6576   0.1423     C
C       0.6379   0.6576   0.8577     C
H       0.6425   0.1888   0.1473     H
H       0.6425   0.1888   0.8527     H
H       0.6425   0.8112   0.1473     H
H       0.6425   0.8112   0.8527     H
H       0.6453   0.2034   0.2577     H
H       0.6453   0.2034   0.7423     H
H       0.6453   0.7966   0.2577     H
H       0.6453   0.7966   0.7423     H
C        0.651   0.0955   0.4074     C
C        0.651   0.0955   0.5926     C
C        0.651   0.9045   0.4074     C
C        0.651   0.9045   0.5926     C
H       0.6561   0.3786   0.1611     H
H       0.6561   0.3786   0.8389     H
H       0.6561   0.6214   0.1611     H
H       0.6561   0.6214   0.8389     H
C       0.6565   0.2826   0.1616     C
C       0.6565   0.2826   0.8384     C
C       0.6565   0.7174   0.1616     C
C       0.6565   0.7174   0.8384     C
C       0.6576   0.1423   0.3621     C
C       0.6576   0.1423   0.6379     C
C       0.6576   0.8577   0.3621     C
C       0.6576   0.8577   0.6379     C
C       0.6818   0.2292   0.2606     C
C       0.6818   0.2292   0.7394     C
C       0.6818   0.7708   0.2606     C
C       0.6818   0.7708   0.7394     C
C       0.6921   0.2741   0.2203     C
C       0.6921   0.2741   0.7797     C
C       0.6921   0.7259   0.2203     C
C       0.6921   0.7259   0.7797     C
Cu       0.699      0.0      0.5    Cu
N        0.704    0.068    0.434     N
N        0.704    0.068    0.566     N
N        0.704    0.932    0.434     N
N        0.704    0.932    0.566     N
C       0.7174   0.1616   0.3435     C
C       0.7174   0.1616   0.6565     C
C       0.7174   0.8384   0.3435     C
C       0.7174   0.8384   0.6565     C
C       0.7259   0.2203   0.3079     C
C       0.7259   0.2203   0.6921     C
C       0.7259   0.7797   0.3079     C
C       0.7259   0.7797   0.6921     C
C       0.7394   0.3182   0.2292     C
C       0.7394   0.3182   0.7708     C
C       0.7394   0.6818   0.2292     C
C       0.7394   0.6818   0.7708     C
H       0.7423   0.3547   0.2034     H
H       0.7423   0.3547   0.7966     H
H       0.7423   0.6453   0.2034     H
H       0.7423   0.6453   0.7966     H
C       0.7638   0.0873   0.4155     C
C       0.7638   0.0873   0.5845     C
C       0.7638   0.9127   0.4155     C
C       0.7638   0.9127   0.5845     C
C       0.7704   0.1341   0.3702     C
C       0.7704   0.1341   0.6298     C
C       0.7704   0.8659   0.3702     C
C       0.7704   0.8659   0.6298     C
C       0.7708   0.2606   0.3182     C
C       0.7708   0.2606   0.6818     C
C       0.7708   0.7394   0.3182     C
C       0.7708   0.7394   0.6818     C
C       0.7797   0.3079   0.2741     C
C       0.7797   0.3079   0.7259     C
C       0.7797   0.6921   0.2741     C
C       0.7797   0.6921   0.7259     C
H       0.7966   0.2577   0.3547     H
H       0.7966   0.2577   0.6453     H
H       0.7966   0.7423   0.3547     H
H       0.7966   0.7423   0.6453     H
H          0.8   0.0685   0.4337     H
H          0.8   0.0685   0.5663     H
H          0.8   0.9315   0.4337     H
H          0.8   0.9315   0.5663     H
H       0.8112   0.1473   0.3575     H
H       0.8112   0.1473   0.6425     H
H       0.8112   0.8527   0.3575     H
H       0.8112   0.8527   0.6425     H
C       0.8384   0.3435   0.2826     C
C       0.8384   0.3435   0.7174     C
C       0.8384   0.6565   0.2826     C
C       0.8384   0.6565   0.7174     C
H       0.8389   0.3439   0.3786     H
H       0.8389   0.3439   0.6214     H
H       0.8389   0.6561   0.3786     H
H       0.8389   0.6561   0.6214     H
H       0.8527   0.3575   0.1888     H
H       0.8527   0.3575   0.8112     H
H       0.8527   0.6425   0.1888     H
H       0.8527   0.6425   0.8112     H
C       0.8577   0.3621   0.3424     C
C       0.8577   0.3621   0.6576     C
C       0.8577   0.6379   0.3424     C
C       0.8577   0.6379   0.6576     C
C       0.8659   0.3702   0.2296     C
C       0.8659   0.3702   0.7704     C
C       0.8659   0.6298   0.2296     C
C       0.8659   0.6298   0.7704     C
C       0.9045   0.4074    0.349     C
C       0.9045   0.4074    0.651     C
C       0.9045   0.5926    0.349     C
C       0.9045   0.5926    0.651     C
C       0.9127   0.4155   0.2362     C
C       0.9127   0.4155   0.7638     C
C       0.9127   0.5845   0.2362     C
C       0.9127   0.5845   0.7638     C
H       0.9177   0.4201   0.3898     H
H       0.9177   0.4201   0.6102     H
H       0.9177   0.5799   0.3898     H
H       0.9177   0.5799   0.6102     H
H       0.9315   0.4337      0.2     H
H       0.9315   0.4337      0.8     H
H       0.9315   0.5663      0.2     H
H       0.9315   0.5663      0.8     H
N        0.932    0.434    0.296     N
N        0.932    0.434    0.704     N
N        0.932    0.566    0.296     N
N        0.932    0.566    0.704     N
