data_I
_chemical_name_common  '/home/zhangsd/repos/MofS-CGCNN/ML/data/TSD/clean_cifs/WAHNOL_clean'
_cell_length_a 21.18820
_cell_length_b 21.18820
_cell_length_c 21.18820
_cell_angle_alpha 90.00000
_cell_angle_beta  90.00000
_cell_angle_gamma 90.00000
_space_group_name_H-M_alt      'P 1'


loop_
_space_group_symop_operation_xyz
  'x, y, z' 

loop_
_atom_site_label
_atom_site_fract_x
_atom_site_fract_y
_atom_site_fract_z
_atom_site_type_symbol
Cu         0.0      0.5  0.31303    Cu
Cu         0.0      0.5  0.68697    Cu
H       0.0649   0.4349   0.2109     H
H       0.0649   0.4349   0.7891     H
H       0.0649   0.5651   0.2109     H
H       0.0649   0.5651   0.7891     H
N       0.0666    0.434   0.3064     N
N       0.0666    0.434   0.6936     N
N       0.0666    0.566   0.3064     N
N       0.0666    0.566   0.6936     N
H       0.0842   0.4186   0.3989     H
H       0.0842   0.4186   0.6011     H
H       0.0842   0.5814   0.3989     H
H       0.0842   0.5814   0.6011     H
C       0.0849    0.417   0.2457     C
C       0.0849    0.417   0.7543     C
C       0.0849    0.583   0.2457     C
C       0.0849    0.583   0.7543     C
C       0.0964   0.4073   0.3583     C
C       0.0964   0.4073   0.6417     C
C       0.0964   0.5927   0.3583     C
C       0.0964   0.5927   0.6417     C
C        0.133   0.3733    0.237     C
C        0.133   0.3733    0.763     C
C        0.133   0.6267    0.237     C
C        0.133   0.6267    0.763     C
C       0.1446   0.3636   0.3496     C
C       0.1446   0.3636   0.6504     C
C       0.1446   0.6364   0.3496     C
C       0.1446   0.6364   0.6504     C
H       0.1453    0.362   0.1964     H
H       0.1453    0.362   0.8036     H
H       0.1453    0.638   0.1964     H
H       0.1453    0.638   0.8036     H
C       0.1629   0.3467   0.2889     C
C       0.1629   0.3467   0.7111     C
C       0.1629   0.6533   0.2889     C
C       0.1629   0.6533   0.7111     C
H       0.1646   0.3458   0.3844     H
H       0.1646   0.3458   0.6156     H
H       0.1646   0.6542   0.3844     H
H       0.1646   0.6542   0.6156     H
H       0.1964   0.1453    0.362     H
H       0.1964   0.1453    0.638     H
H       0.1964   0.8547    0.362     H
H       0.1964   0.8547    0.638     H
H       0.2046   0.2563   0.3549     H
H       0.2046   0.2563   0.6451     H
H       0.2046   0.7437   0.3549     H
H       0.2046   0.7437   0.6451     H
H       0.2109   0.0649   0.4349     H
H       0.2109   0.0649   0.5651     H
H       0.2109   0.9351   0.4349     H
H       0.2109   0.9351   0.5651     H
C       0.2138   0.3102   0.2789     C
C       0.2138   0.3102   0.7211     C
C       0.2138   0.6898   0.2789     C
C       0.2138   0.6898   0.7211     C
C       0.2291   0.2604   0.3187     C
C       0.2291   0.2604   0.6813     C
C       0.2291   0.7396   0.3187     C
C       0.2291   0.7396   0.6813     C
C        0.237    0.133   0.3733     C
C        0.237    0.133   0.6267     C
C        0.237    0.867   0.3733     C
C        0.237    0.867   0.6267     C
C       0.2457   0.0849    0.417     C
C       0.2457   0.0849    0.583     C
C       0.2457   0.9151    0.417     C
C       0.2457   0.9151    0.583     C
H       0.2563   0.3549   0.2046     H
H       0.2563   0.3549   0.7954     H
H       0.2563   0.6451   0.2046     H
H       0.2563   0.6451   0.7954     H
C       0.2604   0.3187   0.2291     C
C       0.2604   0.3187   0.7709     C
C       0.2604   0.6813   0.2291     C
C       0.2604   0.6813   0.7709     C
C       0.2789   0.2138   0.3102     C
C       0.2789   0.2138   0.6898     C
C       0.2789   0.7862   0.3102     C
C       0.2789   0.7862   0.6898     C
C       0.2889   0.1629   0.3467     C
C       0.2889   0.1629   0.6533     C
C       0.2889   0.8371   0.3467     C
C       0.2889   0.8371   0.6533     C
N       0.3064   0.0666    0.434     N
N       0.3064   0.0666    0.566     N
N       0.3064   0.9334    0.434     N
N       0.3064   0.9334    0.566     N
C       0.3102   0.2789   0.2138     C
C       0.3102   0.2789   0.7862     C
C       0.3102   0.7211   0.2138     C
C       0.3102   0.7211   0.7862     C
Cu     0.31303      0.0      0.5    Cu
C       0.3187   0.2291   0.2604     C
C       0.3187   0.2291   0.7396     C
C       0.3187   0.7709   0.2604     C
C       0.3187   0.7709   0.7396     C
H       0.3458   0.3844   0.1646     H
H       0.3458   0.3844   0.8354     H
H       0.3458   0.6156   0.1646     H
H       0.3458   0.6156   0.8354     H
C       0.3467   0.2889   0.1629     C
C       0.3467   0.2889   0.8371     C
C       0.3467   0.7111   0.1629     C
C       0.3467   0.7111   0.8371     C
C       0.3496   0.1446   0.3636     C
C       0.3496   0.1446   0.6364     C
C       0.3496   0.8554   0.3636     C
C       0.3496   0.8554   0.6364     C
H       0.3549   0.2046   0.2563     H
H       0.3549   0.2046   0.7437     H
H       0.3549   0.7954   0.2563     H
H       0.3549   0.7954   0.7437     H
C       0.3583   0.0964   0.4073     C
C       0.3583   0.0964   0.5927     C
C       0.3583   0.9036   0.4073     C
C       0.3583   0.9036   0.5927     C
H        0.362   0.1964   0.1453     H
H        0.362   0.1964   0.8547     H
H        0.362   0.8036   0.1453     H
H        0.362   0.8036   0.8547     H
C       0.3636   0.3496   0.1446     C
C       0.3636   0.3496   0.8554     C
C       0.3636   0.6504   0.1446     C
C       0.3636   0.6504   0.8554     C
C       0.3733    0.237    0.133     C
C       0.3733    0.237    0.867     C
C       0.3733    0.763    0.133     C
C       0.3733    0.763    0.867     C
H       0.3844   0.1646   0.3458     H
H       0.3844   0.1646   0.6542     H
H       0.3844   0.8354   0.3458     H
H       0.3844   0.8354   0.6542     H
H       0.3989   0.0842   0.4186     H
H       0.3989   0.0842   0.5814     H
H       0.3989   0.9158   0.4186     H
H       0.3989   0.9158   0.5814     H
C       0.4073   0.3583   0.0964     C
C       0.4073   0.3583   0.9036     C
C       0.4073   0.6417   0.0964     C
C       0.4073   0.6417   0.9036     C
C        0.417   0.2457   0.0849     C
C        0.417   0.2457   0.9151     C
C        0.417   0.7543   0.0849     C
C        0.417   0.7543   0.9151     C
H       0.4186   0.3989   0.0842     H
H       0.4186   0.3989   0.9158     H
H       0.4186   0.6011   0.0842     H
H       0.4186   0.6011   0.9158     H
N        0.434   0.3064   0.0666     N
N        0.434   0.3064   0.9334     N
N        0.434   0.6936   0.0666     N
N        0.434   0.6936   0.9334     N
H       0.4349   0.2109   0.0649     H
H       0.4349   0.2109   0.9351     H
H       0.4349   0.7891   0.0649     H
H       0.4349   0.7891   0.9351     H
Cu         0.5  0.31303      0.0    Cu
Cu         0.5  0.68697      0.0    Cu
H       0.5651   0.2109   0.0649     H
H       0.5651   0.2109   0.9351     H
H       0.5651   0.7891   0.0649     H
H       0.5651   0.7891   0.9351     H
N        0.566   0.3064   0.0666     N
N        0.566   0.3064   0.9334     N
N        0.566   0.6936   0.0666     N
N        0.566   0.6936   0.9334     N
H       0.5814   0.3989   0.0842     H
H       0.5814   0.3989   0.9158     H
H       0.5814   0.6011   0.0842     H
H       0.5814   0.6011   0.9158     H
C        0.583   0.2457   0.0849     C
C        0.583   0.2457   0.9151     C
C        0.583   0.7543   0.0849     C
C        0.583   0.7543   0.9151     C
C       0.5927   0.3583   0.0964     C
C       0.5927   0.3583   0.9036     C
C       0.5927   0.6417   0.0964     C
C       0.5927   0.6417   0.9036     C
H       0.6011   0.0842   0.4186     H
H       0.6011   0.0842   0.5814     H
H       0.6011   0.9158   0.4186     H
H       0.6011   0.9158   0.5814     H
H       0.6156   0.1646   0.3458     H
H       0.6156   0.1646   0.6542     H
H       0.6156   0.8354   0.3458     H
H       0.6156   0.8354   0.6542     H
C       0.6267    0.237    0.133     C
C       0.6267    0.237    0.867     C
C       0.6267    0.763    0.133     C
C       0.6267    0.763    0.867     C
C       0.6364   0.3496   0.1446     C
C       0.6364   0.3496   0.8554     C
C       0.6364   0.6504   0.1446     C
C       0.6364   0.6504   0.8554     C
H        0.638   0.1964   0.1453     H
H        0.638   0.1964   0.8547     H
H        0.638   0.8036   0.1453     H
H        0.638   0.8036   0.8547     H
C       0.6417   0.0964   0.4073     C
C       0.6417   0.0964   0.5927     C
C       0.6417   0.9036   0.4073     C
C       0.6417   0.9036   0.5927     C
H       0.6451   0.2046   0.2563     H
H       0.6451   0.2046   0.7437     H
H       0.6451   0.7954   0.2563     H
H       0.6451   0.7954   0.7437     H
C       0.6504   0.1446   0.3636     C
C       0.6504   0.1446   0.6364     C
C       0.6504   0.8554   0.3636     C
C       0.6504   0.8554   0.6364     C
C       0.6533   0.2889   0.1629     C
C       0.6533   0.2889   0.8371     C
C       0.6533   0.7111   0.1629     C
C       0.6533   0.7111   0.8371     C
H       0.6542   0.3844   0.1646     H
H       0.6542   0.3844   0.8354     H
H       0.6542   0.6156   0.1646     H
H       0.6542   0.6156   0.8354     H
C       0.6813   0.2291   0.2604     C
C       0.6813   0.2291   0.7396     C
C       0.6813   0.7709   0.2604     C
C       0.6813   0.7709   0.7396     C
Cu     0.68697      0.0      0.5    Cu
C       0.6898   0.2789   0.2138     C
C       0.6898   0.2789   0.7862     C
C       0.6898   0.7211   0.2138     C
C       0.6898   0.7211   0.7862     C
N       0.6936   0.0666    0.434     N
N       0.6936   0.0666    0.566     N
N       0.6936   0.9334    0.434     N
N       0.6936   0.9334    0.566     N
C       0.7111   0.1629   0.3467     C
C       0.7111   0.1629   0.6533     C
C       0.7111   0.8371   0.3467     C
C       0.7111   0.8371   0.6533     C
C       0.7211   0.2138   0.3102     C
C       0.7211   0.2138   0.6898     C
C       0.7211   0.7862   0.3102     C
C       0.7211   0.7862   0.6898     C
C       0.7396   0.3187   0.2291     C
C       0.7396   0.3187   0.7709     C
C       0.7396   0.6813   0.2291     C
C       0.7396   0.6813   0.7709     C
H       0.7437   0.3549   0.2046     H
H       0.7437   0.3549   0.7954     H
H       0.7437   0.6451   0.2046     H
H       0.7437   0.6451   0.7954     H
C       0.7543   0.0849    0.417     C
C       0.7543   0.0849    0.583     C
C       0.7543   0.9151    0.417     C
C       0.7543   0.9151    0.583     C
C        0.763    0.133   0.3733     C
C        0.763    0.133   0.6267     C
C        0.763    0.867   0.3733     C
C        0.763    0.867   0.6267     C
C       0.7709   0.2604   0.3187     C
C       0.7709   0.2604   0.6813     C
C       0.7709   0.7396   0.3187     C
C       0.7709   0.7396   0.6813     C
C       0.7862   0.3102   0.2789     C
C       0.7862   0.3102   0.7211     C
C       0.7862   0.6898   0.2789     C
C       0.7862   0.6898   0.7211     C
H       0.7891   0.0649   0.4349     H
H       0.7891   0.0649   0.5651     H
H       0.7891   0.9351   0.4349     H
H       0.7891   0.9351   0.5651     H
H       0.7954   0.2563   0.3549     H
H       0.7954   0.2563   0.6451     H
H       0.7954   0.7437   0.3549     H
H       0.7954   0.7437   0.6451     H
H       0.8036   0.1453    0.362     H
H       0.8036   0.1453    0.638     H
H       0.8036   0.8547    0.362     H
H       0.8036   0.8547    0.638     H
H       0.8354   0.3458   0.3844     H
H       0.8354   0.3458   0.6156     H
H       0.8354   0.6542   0.3844     H
H       0.8354   0.6542   0.6156     H
C       0.8371   0.3467   0.2889     C
C       0.8371   0.3467   0.7111     C
C       0.8371   0.6533   0.2889     C
C       0.8371   0.6533   0.7111     C
H       0.8547    0.362   0.1964     H
H       0.8547    0.362   0.8036     H
H       0.8547    0.638   0.1964     H
H       0.8547    0.638   0.8036     H
C       0.8554   0.3636   0.3496     C
C       0.8554   0.3636   0.6504     C
C       0.8554   0.6364   0.3496     C
C       0.8554   0.6364   0.6504     C
C        0.867   0.3733    0.237     C
C        0.867   0.3733    0.763     C
C        0.867   0.6267    0.237     C
C        0.867   0.6267    0.763     C
C       0.9036   0.4073   0.3583     C
C       0.9036   0.4073   0.6417     C
C       0.9036   0.5927   0.3583     C
C       0.9036   0.5927   0.6417     C
C       0.9151    0.417   0.2457     C
C       0.9151    0.417   0.7543     C
C       0.9151    0.583   0.2457     C
C       0.9151    0.583   0.7543     C
H       0.9158   0.4186   0.3989     H
H       0.9158   0.4186   0.6011     H
H       0.9158   0.5814   0.3989     H
H       0.9158   0.5814   0.6011     H
N       0.9334    0.434   0.3064     N
N       0.9334    0.434   0.6936     N
N       0.9334    0.566   0.3064     N
N       0.9334    0.566   0.6936     N
H       0.9351   0.4349   0.2109     H
H       0.9351   0.4349   0.7891     H
H       0.9351   0.5651   0.2109     H
H       0.9351   0.5651   0.7891     H
