data_I
_chemical_name_common  '/home/zhangsd/repos/MofS-CGCNN/ML/data/TSD/clean_cifs/WALKAY_clean'
_cell_length_a  7.36100
_cell_length_b 15.64500
_cell_length_c 26.95700
_cell_angle_alpha 90.00000
_cell_angle_beta  90.00000
_cell_angle_gamma 90.00000
_space_group_name_H-M_alt      'P 1'


loop_
_space_group_symop_operation_xyz
  'x, y, z' 

loop_
_atom_site_label
_atom_site_fract_x
_atom_site_fract_y
_atom_site_fract_z
_atom_site_type_symbol
C       0.0032   0.4183   0.1078     C
C       0.0066   0.9608  0.44316     C
Ni      0.0105  0.34413  0.18717    Ni
C       0.0122   0.1548  0.66256     C
C       0.0161   0.0153   0.7916     C
C       0.0259   0.0342  0.53746     C
C       0.0278   0.4554  0.74336     C
H       0.0364   0.8857   0.6673     H
C       0.0421   0.6233   0.8838     C
H       0.0541    0.491   0.2578     H
H       0.0633   0.6917   0.8199     H
C       0.0639   0.0682   0.5891     C
H       0.0793   0.2354   0.2792     H
O       0.0869   0.5571   0.4582     O
H       0.0895   0.6142   0.6706     H
H       0.1013    0.938   0.1681     H
O       0.1014   0.9438  0.35791     O
C       0.1072   0.8906   0.7399     C
O       0.1113    0.357  0.11404     O
C       0.1136    0.862   0.6909     C
C       0.1161    0.482   0.9765     C
C       0.1195   0.5726   0.6939     C
O        0.121   0.8643  0.24808     O
C       0.1269   0.4455   0.0229     C
H       0.1321   0.0178   0.8052     H
C       0.1412   0.0172  0.45368     C
O       0.1437   0.2228     0.75     O
C       0.1531    0.052   0.5011     C
N        0.156   0.2391  0.20996     N
C        0.158   0.2104   0.2564     C
C       0.1713   0.4885    0.245     C
O       0.1749   0.3187   0.3722     O
C       0.1767   0.1312  0.68199     C
H       0.1982   0.9953   0.0918     H
C       0.2005    0.452    0.762     C
N       0.2093   0.4284  0.21141     N
C       0.2145   0.9229   0.1555     C
N       0.2155    0.656   0.9034     N
O       0.2194   0.4532  0.89648     O
H       0.2247   0.4106    0.031     H
H       0.2249   0.0326   0.4294     H
C       0.2285   0.0433   0.6088     C
C       0.2316   0.8533   0.7723     C
H       0.2323   0.4111   0.7854     H
C       0.2326   0.7998   0.6777     C
O       0.2343   0.3569   0.4438     O
C       0.2356   0.1678  0.73064     C
H        0.237   0.7832   0.6446     H
H       0.2389   0.8722    0.805     H
N       0.2413   0.5401   0.4404     N
H       0.2495   0.0882   0.5086     H
H       0.2505   0.9118   0.0086     H
N       0.2587   0.4599   0.9404     N
H       0.2611   0.1278    0.305     H
H        0.263   0.2168   0.1446     H
C       0.2644   0.8322  0.23064     C
O       0.2657   0.6431   0.9438     O
C       0.2674   0.2002   0.1777     C
H       0.2677   0.5889   0.2854     H
C       0.2684   0.1467   0.2723     C
C       0.2715   0.9567   0.1088     C
H       0.2751   0.9674   0.9294     H
H       0.2753   0.5894    0.531     H
O       0.2806   0.5468  0.39648     O
N       0.2845    0.344   0.4034     N
C       0.2855   0.0771   0.6555     C
N       0.2907   0.5716  0.71141     N
C       0.2995    0.548    0.262     C
H       0.3018   0.0047   0.5918     H
C       0.3233   0.8688  0.18199     C
O       0.3251   0.6813   0.8722     O
C       0.3287   0.5115    0.745     C
C        0.342   0.7896   0.7564     C
N        0.344   0.7609  0.70996     N
C       0.3469    0.948   0.0011     C
O       0.3563   0.7772     0.25     O
C       0.3588   0.9828  0.95368     C
H       0.3679   0.9822   0.3052     H
C       0.3731   0.5545   0.5229     C
O        0.379   0.1357  0.74808     O
C       0.3805   0.4274   0.1939     C
C       0.3839    0.518   0.4765     C
C       0.3864    0.138   0.1909     C
O       0.3887    0.643  0.61404     O
C       0.3928   0.1094   0.2399     C
O       0.3986   0.0562  0.85791     O
H       0.3987    0.062   0.6681     H
H       0.4105   0.3858   0.1706     H
O       0.4131   0.4429   0.9582     O
H       0.4207   0.7646   0.7792     H
C       0.4361   0.9318   0.0891     C
H       0.4367   0.3083   0.3199     H
H       0.4459    0.509   0.7578     H
C       0.4579   0.3767   0.3838     C
H       0.4636   0.1143   0.1673     H
C       0.4722   0.5446  0.24336     C
C       0.4741   0.9658  0.03746     C
C       0.4839   0.9847   0.2916     C
C       0.4878   0.8452  0.16256     C
Ni      0.4895  0.65587  0.68717    Ni
C       0.4934   0.0392  0.94316     C
C       0.4968   0.5817   0.6078     C
C       0.5032   0.0817   0.8922     C
C       0.5066   0.5392  0.55684     C
Ni      0.5105  0.15587  0.81283    Ni
C       0.5122   0.3452  0.33744     C
C       0.5161   0.4847   0.2084     C
C       0.5259   0.4658  0.46254     C
C       0.5278   0.0446  0.25664     C
H       0.5364   0.6143   0.3327     H
C       0.5421   0.8767   0.1162     C
H       0.5541    0.009   0.7422     H
H       0.5633   0.8083   0.1801     H
C       0.5639   0.4318   0.4109     C
H       0.5793   0.2646   0.7208     H
O       0.5869   0.9429   0.5418     O
H       0.5895   0.8858   0.3294     H
H       0.6013    0.562   0.8319     H
O       0.6014   0.5562  0.64209     O
C       0.6072   0.6094   0.2601     C
O       0.6113    0.143  0.88596     O
C       0.6136    0.638   0.3091     C
C       0.6161    0.018   0.0235     C
C       0.6195   0.9274   0.3061     C
O        0.621   0.6357  0.75192     O
C       0.6269   0.0545   0.9771     C
H       0.6321   0.4822   0.1948     H
C       0.6412   0.4828  0.54632     C
O       0.6437   0.2772     0.25     O
C       0.6531    0.448   0.4989     C
N        0.656   0.2609  0.79004     N
C        0.658   0.2896   0.7436     C
C       0.6713   0.0115    0.755     C
O       0.6749   0.1813   0.6278     O
C       0.6767   0.3688  0.31801     C
H       0.6982   0.5047   0.9082     H
C       0.7005    0.048    0.238     C
N       0.7093   0.0716  0.78859     N
C       0.7145   0.5771   0.8445     C
N       0.7155    0.844   0.0966     N
O       0.7194   0.0468  0.10352     O
H       0.7247   0.0894    0.969     H
H       0.7249   0.4674   0.5706     H
C       0.7285   0.4567   0.3912     C
C       0.7316   0.6467   0.2277     C
H       0.7323   0.0889   0.2146     H
C       0.7326   0.7002   0.3223     C
O       0.7343   0.1431   0.5562     O
C       0.7356   0.3322  0.26936     C
H        0.737   0.7168   0.3554     H
H       0.7389   0.6278    0.195     H
N       0.7413   0.9599   0.5596     N
H       0.7495   0.4118   0.4914     H
H       0.7505   0.5882   0.9914     H
N       0.7587   0.0401   0.0596     N
H       0.7611   0.3722    0.695     H
H        0.763   0.2832   0.8554     H
C       0.7644   0.6678  0.76936     C
O       0.7657   0.8569   0.0562     O
C       0.7674   0.2998   0.8223     C
H       0.7677   0.9111   0.7146     H
C       0.7684   0.3533   0.7277     C
C       0.7715   0.5433   0.8912     C
H       0.7751   0.5326   0.0706     H
H       0.7753   0.9106    0.469     H
O       0.7806   0.9532  0.60352     O
N       0.7845    0.156   0.5966     N
C       0.7855   0.4229   0.3445     C
N       0.7907   0.9284  0.28859     N
C       0.7995    0.952    0.738     C
H       0.8018   0.4953   0.4082     H
C       0.8233   0.6312  0.81801     C
O       0.8251   0.8187   0.1278     O
C       0.8287   0.9885    0.255     C
C        0.842   0.7104   0.2436     C
N        0.844   0.7391  0.29004     N
C       0.8469    0.552   0.9989     C
O       0.8563   0.7228     0.75     O
C       0.8588   0.5172  0.04632     C
H       0.8679   0.5178   0.6948     H
C       0.8731   0.9455   0.4771     C
O        0.879   0.3643  0.25192     O
C       0.8805   0.0726   0.8061     C
C       0.8839    0.982   0.5235     C
C       0.8864    0.362   0.8091     C
O       0.8887    0.857  0.38596     O
C       0.8928   0.3906   0.7601     C
O       0.8986   0.4438  0.14209     O
H       0.8987    0.438   0.3319     H
H       0.9105   0.1142   0.8294     H
O       0.9131   0.0571   0.0418     O
H       0.9207   0.7354   0.2208     H
C       0.9361   0.5682   0.9109     C
H       0.9367   0.1917   0.6801     H
H       0.9459    0.991   0.2422     H
C       0.9579   0.1233   0.6162     C
H       0.9636   0.3857   0.8327     H
C       0.9722   0.9554  0.75664     C
C       0.9741   0.5342  0.96254     C
C       0.9839   0.5153   0.7084     C
C       0.9878   0.6548  0.83744     C
Ni      0.9895  0.84413  0.31283    Ni
C       0.9934   0.4608  0.05684     C
C       0.9968   0.9183   0.3922     C
