data_I
_chemical_name_common  '/home/zhangsd/repos/MofS-CGCNN/ML/data/TSD/clean_cifs/WAPSUE_clean'
_cell_length_a 15.11500
_cell_length_b 16.25600
_cell_length_c 27.42100
_cell_angle_alpha 90.00000
_cell_angle_beta  105.52100
_cell_angle_gamma 90.00000
_space_group_name_H-M_alt      'P 1'


loop_
_space_group_symop_operation_xyz
  'x, y, z' 

loop_
_atom_site_label
_atom_site_fract_x
_atom_site_fract_y
_atom_site_fract_z
_atom_site_type_symbol
O       0.0008   0.7436   0.3715     O
O       0.0008   0.7564   0.8715     O
O       0.0211   0.6507   0.4538     O
O       0.0211   0.8493   0.9538     O
O       0.0268   0.7462   0.0291     O
O       0.0268   0.7538   0.5291     O
O       0.0312    0.094   0.9615     O
O       0.0312    0.406   0.4615     O
W      0.04269    0.623  0.38959     W
W      0.04269    0.877  0.88959     W
O       0.0664   0.6603   0.9521     O
O       0.0664   0.8397   0.4521     O
W      0.06775  0.63218   0.5245     W
W      0.06775  0.86782   0.0245     W
W      0.08223  0.67073  0.88586     W
W      0.08223  0.82927  0.38586     W
O       0.0891   0.6361   0.3291     O
O       0.0891   0.8639   0.8291     O
W      0.10451  0.66144  0.02401     W
W      0.10451  0.83856  0.52401     W
O       0.1152   0.5393   0.4146     O
O       0.1152   0.9607   0.9146     O
O       0.1296   0.5458   0.5183     O
O       0.1296   0.9542   0.0183     O
O        0.136   0.7055   0.8332     O
O        0.136   0.7945   0.3332     O
O       0.1404   0.6558    0.594     O
O       0.1404   0.8442    0.094     O
O       0.1657   0.7061   0.4149     O
O       0.1657   0.7939   0.9149     O
O       0.1823   0.7137   0.5172     O
O       0.1823   0.7863   0.0172     O
O       0.1833    0.684   0.0911     O
O       0.1833    0.816   0.5911     O
Ce     0.19743  0.06681  0.97487    Ce
Ce     0.19743  0.43319  0.47487    Ce
W      0.19989  0.69527  0.33415     W
W      0.19989  0.80473  0.83415     W
O       0.2027   0.6172   0.9166     O
O       0.2027   0.8828   0.4166     O
O       0.2199   0.6116   0.0139     O
O       0.2199   0.8884   0.5139     O
As     0.24344  0.67596  0.47375    As
As     0.24344  0.82404  0.97375    As
W      0.24887  0.71737  0.60883     W
W      0.24887  0.78263  0.10883     W
O       0.2661   0.5973   0.3567     O
O       0.2661   0.9027   0.8567     O
W       0.2956  0.59674  0.97323     W
W       0.2956  0.90326  0.47323     W
O       0.3098   0.7499   0.3711     O
O       0.3098   0.7501   0.8711     O
O       0.3151   0.6159   0.6071     O
O       0.3151   0.8841   0.1071     O
O       0.3156    0.736   0.9784     O
O       0.3156    0.764   0.4784     O
O       0.3163   0.0034   0.9358     O
O       0.3163   0.4966   0.4358     O
O       0.3252   0.5075    0.536     O
O       0.3252   0.9925    0.036     O
H       0.3304   0.5486     0.26     H
H       0.3304   0.9514     0.76     H
H       0.3415   0.0153   0.7193     H
H       0.3415   0.4847   0.2193     H
O       0.3459   0.7346   0.0876     O
O       0.3459   0.7654   0.5876     O
Ce     0.34918   0.2214  0.23463    Ce
Ce     0.34918   0.2786  0.73463    Ce
O       0.3501   0.0413   0.8438     O
O       0.3501   0.4587   0.3438     O
O       0.3592   0.1531   0.7817     O
O       0.3592   0.3469   0.2817     O
C       0.3723   0.5261   0.2427     C
C       0.3723   0.9739   0.7427     C
W      0.37359  0.54607  0.39828     W
W      0.37359  0.95393  0.89828     W
O       0.3869   0.6262   0.9341     O
O       0.3869   0.8738   0.4341     O
H       0.3935    0.569   0.2246     H
H       0.3935    0.931   0.7246     H
O       0.4034   0.6437   0.4335     O
O       0.4034   0.8563   0.9335     O
W      0.40462  0.55972  0.58379     W
W      0.40462  0.94028  0.08379     W
O       0.4048   0.6214   0.0327     O
O       0.4048   0.8786   0.5327     O
O       0.4053   0.0235   0.1375     O
O       0.4053   0.4765   0.6375     O
P       0.4121   0.0875  0.81638     P
P       0.4121   0.4125  0.31638     P
W      0.41507  0.73634  0.92685     W
W      0.41507  0.76366  0.42685     W
O       0.4256   0.6513   0.5488     O
O       0.4256   0.8487   0.0488     O
W       0.4376  0.72729  0.05113     W
W       0.4376  0.77271  0.55113     W
O        0.442   0.6039   0.3483     O
O        0.442   0.8961   0.8483     O
O       0.4466    0.131   0.2064     O
O       0.4466    0.369   0.7064     O
C       0.4495   0.0101    0.779     C
C       0.4495   0.4899    0.279     C
O       0.4838   0.5457   0.7441     O
O       0.4838   0.9543   0.2441     O
P       0.4859   0.0689   0.1774     P
P       0.4859   0.4311   0.6774     P
O        0.487   0.0063   0.9245     O
O        0.487   0.4937   0.4245     O
O       0.4902     0.74   0.9957     O
O       0.4902     0.76   0.4957     O
H       0.4926   0.0839   0.7375     H
H       0.4926   0.4161   0.2375     H
O       0.4998   0.6194   0.6457     O
O       0.4998   0.8806   0.1457     O
O       0.5002   0.1194   0.8543     O
O       0.5002   0.3806   0.3543     O
H       0.5074   0.5839   0.7625     H
H       0.5074   0.9161   0.2625     H
O       0.5098     0.24   0.5043     O
O       0.5098     0.26   0.0043     O
O        0.513   0.5063   0.5755     O
O        0.513   0.9937   0.0755     O
P       0.5141   0.5689   0.3226     P
P       0.5141   0.9311   0.8226     P
O       0.5162   0.0457   0.7559     O
O       0.5162   0.4543   0.2559     O
C       0.5505   0.5101    0.721     C
C       0.5505   0.9899    0.221     C
O       0.5534    0.631   0.2936     O
O       0.5534    0.869   0.7936     O
O        0.558   0.1039   0.1517     O
O        0.558   0.3961   0.6517     O
W       0.5624  0.22729  0.44887     W
W       0.5624  0.27271  0.94887     W
O       0.5744   0.1513   0.9512     O
O       0.5744   0.3487   0.4512     O
W      0.58493  0.23634  0.57315     W
W      0.58493  0.26366  0.07315     W
P       0.5879   0.5875  0.68362     P
P       0.5879   0.9125  0.18362     P
O       0.5947   0.5235   0.3625     O
O       0.5947   0.9765   0.8625     O
O       0.5952   0.1214   0.4673     O
O       0.5952   0.3786   0.9673     O
W      0.59538  0.05972  0.91621     W
W      0.59538  0.44028  0.41621     W
O       0.5966   0.1437   0.0665     O
O       0.5966   0.3563   0.5665     O
H       0.6065    0.069   0.2754     H
H       0.6065    0.431   0.7754     H
O       0.6131   0.1262   0.5659     O
O       0.6131   0.3738   0.0659     O
W      0.62641  0.04607  0.10172     W
W      0.62641  0.45393  0.60172     W
C       0.6277   0.0261   0.2573     C
C       0.6277   0.4739   0.7573     C
O       0.6408   0.6531   0.7183     O
O       0.6408   0.8469   0.2183     O
O       0.6499   0.5413   0.6562     O
O       0.6499   0.9587   0.1562     O
Ce     0.65082   0.7214  0.26537    Ce
Ce     0.65082   0.7786  0.76537    Ce
O       0.6541   0.2346   0.4124     O
O       0.6541   0.2654   0.9124     O
H       0.6585   0.5153   0.7807     H
H       0.6585   0.9847   0.2807     H
H       0.6696   0.0486     0.24     H
H       0.6696   0.4514     0.74     H
O       0.6748   0.0075    0.964     O
O       0.6748   0.4925    0.464     O
O       0.6837   0.5034   0.5642     O
O       0.6837   0.9966   0.0642     O
O       0.6844    0.236   0.5216     O
O       0.6844    0.264   0.0216     O
O       0.6849   0.1159   0.8929     O
O       0.6849   0.3841   0.3929     O
O       0.6902   0.2499   0.1289     O
O       0.6902   0.2501   0.6289     O
W       0.7044  0.09674  0.52677     W
W       0.7044  0.40326  0.02677     W
O       0.7339   0.0973   0.1433     O
O       0.7339   0.4027   0.6433     O
W      0.75113  0.21737  0.89117     W
W      0.75113  0.28263  0.39117     W
As     0.75656  0.17596  0.02625    As
As     0.75656  0.32404  0.52625    As
O       0.7801   0.1116   0.4861     O
O       0.7801   0.3884   0.9861     O
O       0.7973   0.1172   0.5834     O
O       0.7973   0.3828   0.0834     O
W      0.80011  0.19527  0.16585     W
W      0.80011  0.30473  0.66585     W
Ce     0.80257  0.56681  0.52513    Ce
Ce     0.80257  0.93319  0.02513    Ce
O       0.8167    0.184   0.4089     O
O       0.8167    0.316   0.9089     O
O       0.8177   0.2137   0.9828     O
O       0.8177   0.2863   0.4828     O
O       0.8343   0.2061   0.0851     O
O       0.8343   0.2939   0.5851     O
O       0.8596   0.1558    0.906     O
O       0.8596   0.3442    0.406     O
O        0.864   0.2055   0.6668     O
O        0.864   0.2945   0.1668     O
O       0.8704   0.0458   0.9817     O
O       0.8704   0.4542   0.4817     O
O       0.8848   0.0393   0.0854     O
O       0.8848   0.4607   0.5854     O
W      0.89549  0.16144  0.47599     W
W      0.89549  0.33856  0.97599     W
O       0.9109   0.1361   0.1709     O
O       0.9109   0.3639   0.6709     O
W      0.91777  0.17073  0.61414     W
W      0.91777  0.32927  0.11414     W
W      0.93225  0.13218   0.9755     W
W      0.93225  0.36782   0.4755     W
O       0.9336   0.1603   0.5479     O
O       0.9336   0.3397   0.0479     O
W      0.95731    0.123  0.11041     W
W      0.95731    0.377  0.61041     W
O       0.9688    0.594   0.5385     O
O       0.9688    0.906   0.0385     O
O       0.9732   0.2462   0.4709     O
O       0.9732   0.2538   0.9709     O
O       0.9789   0.1507   0.0462     O
O       0.9789   0.3493   0.5462     O
O       0.9992   0.2436   0.1285     O
O       0.9992   0.2564   0.6285     O
