data_I
_chemical_name_common  '/home/zhangsd/repos/MofS-CGCNN/ML/data/TSD/clean_cifs/WAXJAJ01_clean'
_cell_length_a  7.87700
_cell_length_b 15.69300
_cell_length_c 11.20000
_cell_angle_alpha 90.00000
_cell_angle_beta  91.77000
_cell_angle_gamma 90.00000
_space_group_name_H-M_alt      'P 1'


loop_
_space_group_symop_operation_xyz
  'x, y, z' 

loop_
_atom_site_label
_atom_site_fract_x
_atom_site_fract_y
_atom_site_fract_z
_atom_site_type_symbol
N       0.0083   0.2025   0.7042     N
N       0.0087  0.00539   0.8029     N
C        0.052   0.4243   0.7055     C
N       0.0574  0.26242   0.1972     N
C       0.0596   0.7808   0.8022     C
N       0.0712  0.53646   0.2883     N
C       0.1017  0.25825   0.6993     C
C        0.103  0.94965   0.7991     C
N       0.2379  0.84328   0.5286     N
C        0.242  0.35946   0.5304     C
C       0.2421  0.84868   0.6306     C
N        0.244  0.36355   0.4285     N
Co     0.24849  0.35421  0.69996    Co
Sr     0.24904  0.40452  0.19587    Sr
Sr     0.25096  0.90452  0.30413    Sr
Co     0.25151  0.85421  0.80004    Co
N        0.256  0.86355   0.0715     N
C       0.2579  0.34868   0.8694     C
C        0.258  0.85946   0.9696     C
N       0.2621  0.34328   0.9714     N
C        0.397  0.44965   0.7009     C
C       0.3983  0.75825   0.8007     C
N       0.4288  0.03646   0.2117     N
C       0.4404   0.2808   0.6978     C
N       0.4426  0.76242   0.3028     N
C        0.448   0.9243   0.7945     C
N       0.4913  0.50539   0.6971     N
N       0.4917   0.7025   0.7958     N
N       0.5083   0.2975   0.2042     N
N       0.5087  0.49461   0.3029     N
C        0.552   0.0757   0.2055     C
N       0.5574  0.23758   0.6972     N
C       0.5596   0.7192   0.3022     C
N       0.5712  0.96354   0.7883     N
C       0.6017  0.24175   0.1993     C
C        0.603  0.55035   0.2991     C
N       0.7379  0.65672   0.0286     N
C        0.742  0.14054   0.0304     C
C       0.7421  0.65132   0.1306     C
N        0.744  0.13645   0.9285     N
Co     0.74849  0.14579  0.19996    Co
Sr     0.74904  0.09548  0.69587    Sr
Sr     0.75096  0.59548  0.80413    Sr
Co     0.75151  0.64579  0.30004    Co
N        0.756  0.63645   0.5715     N
C       0.7579  0.15132   0.3694     C
C        0.758  0.64054   0.4696     C
N       0.7621  0.15672   0.4714     N
C        0.897  0.05035   0.2009     C
C       0.8983  0.74175   0.3007     C
N       0.9288  0.46354   0.7117     N
C       0.9404   0.2192   0.1978     C
N       0.9426  0.73758   0.8028     N
C        0.948   0.5757   0.2945     C
N       0.9913  0.99461   0.1971     N
N       0.9917   0.7975   0.2958     N
