data_I
_chemical_name_common  '/home/zhangsd/repos/MofS-CGCNN/ML/data/TSD/clean_cifs/WEFCAN_clean'
_cell_length_a  8.98460
_cell_length_b 12.32590
_cell_length_c 24.02290
_cell_angle_alpha 90.00000
_cell_angle_beta  90.00000
_cell_angle_gamma 111.37400
_space_group_name_H-M_alt      'P 1'


loop_
_space_group_symop_operation_xyz
  'x, y, z' 

loop_
_atom_site_label
_atom_site_fract_x
_atom_site_fract_y
_atom_site_fract_z
_atom_site_type_symbol
C          0.0      0.0     0.25     C
C          0.0      0.0     0.75     C
Fe         0.0      0.5      0.0    Fe
H       0.0003   0.7304   0.3866     H
H       0.0003   0.7304   0.6134     H
N      0.02516  0.38372  0.06677     N
N      0.02516  0.38372  0.93323     N
C      0.04638  0.22316  0.14485     C
C      0.04638  0.22316  0.85515     C
C       0.0632    0.924  0.21395     C
C       0.0632    0.924  0.78605     C
O      0.06891  0.14562  0.18039     O
O      0.06891  0.14562  0.81961     O
O      0.07671  0.14562  0.31961     O
O      0.07671  0.14562  0.68039     O
C      0.09219  0.75418  0.13975     C
C      0.09219  0.75418  0.86025     C
C      0.09559  0.67358  0.10086     C
C      0.09559  0.67358  0.89914     C
H       0.1011    0.875   0.2371     H
H       0.1011    0.875   0.7629     H
C      0.10828  0.28276  0.38916     C
C      0.10828  0.28276  0.61084     C
C       0.1392    0.076  0.28605     C
C       0.1392    0.076  0.71395     C
H       0.1505    0.972   0.1907     H
H       0.1505    0.972   0.8093     H
H       0.1565   0.4018   0.4488     H
H       0.1565   0.4018   0.5512     H
C      0.15792  0.36144   0.0734     C
C      0.15792  0.36144   0.9266     C
C      0.17448  0.28276  0.11084     C
C      0.17448  0.28276  0.88916     C
C      0.17678  0.22316  0.35515     C
C      0.17678  0.22316  0.64485     C
H       0.1785    0.028   0.3093     H
H       0.1785    0.028   0.6907     H
H       0.1807   0.7924    0.162     H
H       0.1807   0.7924    0.838     H
H       0.1888   0.6576    0.098     H
H       0.1888   0.6576    0.902     H
S      0.19847   0.7569      0.5     S
C      0.20352  0.36144   0.4266     C
C      0.20352  0.36144   0.5734     C
H       0.2261    0.125   0.2629     H
H       0.2261    0.125   0.7371     H
H       0.2453   0.4018   0.0512     H
H       0.2453   0.4018   0.9488     H
N      0.25074  0.59008      0.0     N
H       0.2699   0.2696   0.1134     H
H       0.2699   0.2696   0.8866     H
C      0.28053  0.65846      0.5     C
C      0.33801  0.24582  0.36025     C
C      0.33801  0.24582  0.63975     C
N      0.33934  0.59008      0.5     N
N      0.35856  0.38372  0.43323     N
N      0.35856  0.38372  0.56677     N
C      0.37793  0.65846      0.0     C
H       0.3883   0.2076    0.338     H
H       0.3883   0.2076    0.662     H
C      0.42201  0.32642  0.39914     C
C      0.42201  0.32642  0.60086     C
S      0.44157   0.2431      0.0     S
H       0.4688   0.6576    0.402     H
H       0.4688   0.6576    0.598     H
Fe         0.5      0.5      0.5    Fe
H       0.5312   0.3424    0.402     H
H       0.5312   0.3424    0.598     H
S      0.55843   0.7569      0.0     S
C      0.57799  0.67358  0.39914     C
C      0.57799  0.67358  0.60086     C
H       0.6117   0.7924    0.338     H
H       0.6117   0.7924    0.662     H
C      0.62207  0.34154      0.0     C
N      0.64144  0.61628  0.43323     N
N      0.64144  0.61628  0.56677     N
N      0.66066  0.40992      0.5     N
C      0.66199  0.75418  0.36025     C
C      0.66199  0.75418  0.63975     C
C      0.71947  0.34154      0.5     C
H       0.7301   0.7304   0.1134     H
H       0.7301   0.7304   0.8866     H
N      0.74926  0.40992      0.0     N
H       0.7547   0.5982   0.0512     H
H       0.7547   0.5982   0.9488     H
H       0.7739    0.875   0.2629     H
H       0.7739    0.875   0.7371     H
C      0.79648  0.63856   0.4266     C
C      0.79648  0.63856   0.5734     C
S      0.80153   0.2431      0.5     S
H       0.8112   0.3424    0.098     H
H       0.8112   0.3424    0.902     H
H       0.8193   0.2076    0.162     H
H       0.8193   0.2076    0.838     H
H       0.8215    0.972   0.3093     H
H       0.8215    0.972   0.6907     H
C      0.82322  0.77684  0.35515     C
C      0.82322  0.77684  0.64485     C
C      0.82552  0.71724  0.11084     C
C      0.82552  0.71724  0.88916     C
C      0.84208  0.63856   0.0734     C
C      0.84208  0.63856   0.9266     C
H       0.8435   0.5982   0.4488     H
H       0.8435   0.5982   0.5512     H
H       0.8495    0.028   0.1907     H
H       0.8495    0.028   0.8093     H
C       0.8608    0.924  0.28605     C
C       0.8608    0.924  0.71395     C
C      0.89172  0.71724  0.38916     C
C      0.89172  0.71724  0.61084     C
H       0.8989    0.125   0.2371     H
H       0.8989    0.125   0.7629     H
C      0.90441  0.32642  0.10086     C
C      0.90441  0.32642  0.89914     C
C      0.90781  0.24582  0.13975     C
C      0.90781  0.24582  0.86025     C
O      0.92329  0.85438  0.31961     O
O      0.92329  0.85438  0.68039     O
O      0.93109  0.85438  0.18039     O
O      0.93109  0.85438  0.81961     O
C       0.9368    0.076  0.21395     C
C       0.9368    0.076  0.78605     C
C      0.95362  0.77684  0.14485     C
C      0.95362  0.77684  0.85515     C
N      0.97484  0.61628  0.06677     N
N      0.97484  0.61628  0.93323     N
H       0.9997   0.2696   0.3866     H
H       0.9997   0.2696   0.6134     H
