data_I
_chemical_name_common  '/home/zhangsd/repos/MofS-CGCNN/ML/data/TSD/clean_cifs/WEFDIW_clean'
_cell_length_a 21.57650
_cell_length_b 21.57650
_cell_length_c 11.34690
_cell_angle_alpha 90.00000
_cell_angle_beta  90.00000
_cell_angle_gamma 90.00000
_space_group_name_H-M_alt      'P 1'


loop_
_space_group_symop_operation_xyz
  'x, y, z' 

loop_
_atom_site_label
_atom_site_fract_x
_atom_site_fract_y
_atom_site_fract_z
_atom_site_type_symbol
H       0.0001   0.3961   0.8799     H
H       0.0001   0.8961   0.1201     H
C      0.00162  0.42003   0.8055     C
C      0.00162  0.92003   0.1945     C
O      0.00522  0.00742  0.38353     O
O      0.00522  0.50742  0.61647     O
C      0.00672  0.44401   0.3223     C
C      0.00672  0.94401   0.6777     C
O      0.00873  0.37496  0.61268     O
O      0.00873  0.87496  0.38732     O
O      0.01452  0.10749  0.35364     O
O      0.01452  0.60749  0.64636     O
H       0.0262    0.458   0.8202     H
H       0.0262    0.958   0.1798     H
C      0.03396   0.3814   0.7118     C
C      0.03396   0.8814   0.2882     C
H       0.0383   0.3559    0.182     H
H       0.0383   0.8559    0.818     H
C      0.04825  0.44776   0.2166     C
C      0.04825  0.94776   0.7834     C
C      0.06074  0.39189   0.1596     C
C      0.06074  0.89189   0.8404     C
N      0.06255  0.06195   0.7717     N
N      0.06255  0.56195   0.2283     N
Sm     0.07224  0.06382  0.53058    Sm
Sm     0.07224  0.56382  0.46942    Sm
C      0.07922  0.00225   0.8211     C
C      0.07922  0.50225   0.1789     C
O      0.08463  0.35915   0.7412     O
O      0.08463  0.85915   0.2588     O
H        0.087   0.1523   0.7756     H
H        0.087   0.6523   0.2244     H
H       0.0977    0.337   0.4744     H
H       0.0977    0.837   0.5256     H
H       0.0994   0.1389   0.2186     H
H       0.0994   0.6389   0.7814     H
C      0.10457  0.38739   0.0719     C
C      0.10457  0.88739   0.9281     C
C      0.10539  0.11245   0.8009     C
C      0.10539  0.61245   0.1991     C
H       0.1059   0.2117    0.068     H
H       0.1059   0.7117    0.932     H
O      0.10915  0.16537   0.5088     O
O      0.10915  0.66537   0.4912     O
H       0.1111    0.114   0.8874     H
H       0.1111   0.3494   0.0314     H
H       0.1111    0.614   0.1126     H
H       0.1111   0.8494   0.9686     H
O      0.11938  0.46276  0.46076     O
O      0.11938  0.96276  0.53924     O
O      0.12496  0.24127  0.63732     O
O      0.12496  0.74127  0.36268     O
C      0.12637  0.49662   0.0969     C
C      0.12637  0.99662   0.9031     C
C       0.1314  0.21604   0.5382     C
C       0.1314  0.71604   0.4618     C
H        0.136   0.3611   0.3626     H
H        0.136   0.8611   0.6374     H
C      0.13739  0.14543   0.1781     C
C      0.13739  0.64543   0.8219     C
C      0.13755  0.35539   0.4491     C
C      0.13755  0.85539   0.5509     C
C      0.13888  0.43939   0.0441     C
C      0.13888  0.93939   0.9559     C
O      0.13948  0.05853  0.36188     O
O      0.13948  0.55853  0.63812     O
C      0.14189  0.18926   0.0904     C
C      0.14189  0.68926   0.9096     C
O      0.14251  0.26452  0.89636     O
O      0.14251  0.76452  0.10364     O
C      0.14552  0.41782   0.5076     C
C      0.14552  0.91782   0.4924     C
H       0.1461   0.2499   0.3701     H
H       0.1461   0.7499   0.6299     H
H       0.1504   0.0319   0.9237     H
H       0.1504   0.5319   0.0763     H
C      0.16782  0.10448   0.7424     C
C      0.16782  0.60448   0.2576     C
O      0.16895  0.07194  0.64817     O
O      0.16895  0.57194  0.35183     O
C      0.17003  0.24838   0.4445     C
C      0.17003  0.74838   0.5555     C
O      0.17806  0.41895  0.60183     O
O      0.17806  0.91895  0.39817     O
C      0.18207  0.05951   0.2925     C
C      0.18207  0.55951   0.7075     C
Sm     0.18618  0.32224  0.71942    Sm
Sm     0.18618  0.82224  0.28058    Sm
N      0.18805  0.31255   0.4783     N
N      0.18805  0.81255   0.5217     N
C      0.18939  0.11112   0.2059     C
C      0.18939  0.61112   0.7941     C
C      0.19049  0.43207   0.9575     C
C      0.19049  0.93207   0.0425     C
O      0.19147  0.38948  0.88812     O
O      0.19147  0.88948  0.11188     O
C      0.19401  0.24328   0.9277     C
C      0.19401  0.74328   0.0723     C
C      0.19776  0.20175   0.0334     C
C      0.19776  0.70175   0.9666     C
H        0.208   0.2238   0.4298     H
H        0.208   0.7238   0.5702     H
H       0.2105   0.4878   0.6644     H
H       0.2105   0.9878   0.3356     H
O      0.21276  0.13062  0.78924     O
O      0.21276  0.63062  0.21076     O
H       0.2181   0.4004   0.3263     H
H       0.2181   0.9004   0.6737     H
O      0.22337  0.01566  0.28818     O
O      0.22337  0.51566  0.71182     O
O      0.23434  0.47337  0.96182     O
O      0.23434  0.97337  0.03818     O
H       0.2378   0.0395   0.5856     H
H       0.2378   0.5395   0.4144     H
O      0.24258  0.25522  0.86647     O
O      0.24258  0.75522  0.13353     O
C      0.24662  0.12363   0.1531     C
C      0.24662  0.62363   0.8469     C
C      0.24775  0.32922   0.4289     C
C      0.24775  0.82922   0.5711     C
C      0.25225  0.17078   0.0711     C
C      0.25225  0.67078   0.9289     C
C      0.25338  0.37637   0.3469     C
C      0.25338  0.87637   0.6531     C
O      0.25742  0.24478  0.63353     O
O      0.25742  0.74478  0.36647     O
H       0.2622   0.4605   0.9144     H
H       0.2622   0.9605   0.0856     H
O      0.26566  0.02663  0.53818     O
O      0.26566  0.52663  0.46182     O
O      0.27663  0.48434  0.21182     O
O      0.27663  0.98434  0.78818     O
H       0.2819   0.0996   0.1737     H
H       0.2819   0.5996   0.8263     H
O      0.28724  0.36938  0.71076     O
O      0.28724  0.86938  0.28924     O
H       0.2895   0.0122   0.8356     H
H       0.2895   0.5122   0.1644     H
H        0.292   0.2762   0.0702     H
H        0.292   0.7762   0.9298     H
C      0.30224  0.29825   0.4666     C
C      0.30224  0.79825   0.5334     C
C      0.30599  0.25672   0.5723     C
C      0.30599  0.75672   0.4277     C
O      0.30853  0.11052  0.61188     O
O      0.30853  0.61052  0.38812     O
C      0.30951  0.06793   0.5425     C
C      0.30951  0.56793   0.4575     C
C      0.31061  0.38888   0.2941     C
C      0.31061  0.88888   0.7059     C
N      0.31195  0.18745   0.0217     N
N      0.31195  0.68745   0.9783     N
Sm     0.31382  0.17776  0.78058    Sm
Sm     0.31382  0.67776  0.21942    Sm
C      0.31793  0.44049   0.2075     C
C      0.31793  0.94049   0.7925     C
O      0.32194  0.08105  0.89817     O
O      0.32194  0.58105  0.10183     O
C      0.32997  0.25162   0.0555     C
C      0.32997  0.75162   0.9445     C
O      0.33105  0.42806  0.85183     O
O      0.33105  0.92806  0.14817     O
C      0.33218  0.39552   0.7576     C
C      0.33218  0.89552   0.2424     C
H       0.3496   0.4681   0.5763     H
H       0.3496   0.9681   0.4237     H
H       0.3539   0.2501   0.1299     H
H       0.3539   0.7501   0.8701     H
C      0.35448  0.08218   0.9924     C
C      0.35448  0.58218   0.0076     C
O      0.35749  0.23548  0.60364     O
O      0.35749  0.73548  0.39636     O
C      0.35811  0.31074   0.4096     C
C      0.35811  0.81074   0.5904     C
O      0.36052  0.44147  0.13812     O
O      0.36052  0.94147  0.86188     O
C      0.36112  0.06061   0.4559     C
C      0.36112  0.56061   0.5441     C
C      0.36245  0.14461   0.0509     C
C      0.36245  0.64461   0.9491     C
C      0.36261  0.35457   0.3219     C
C      0.36261  0.85457   0.6781     C
H        0.364   0.1389   0.1374     H
H        0.364   0.6389   0.8626     H
C       0.3686  0.28396   0.9618     C
C       0.3686  0.78396   0.0382     C
C      0.37363  0.00338   0.4031     C
C      0.37363  0.50338   0.5969     C
O      0.37504  0.25873  0.86268     O
O      0.37504  0.75873  0.13732     O
O      0.38062  0.03724  0.03924     O
O      0.38062  0.53724  0.96076     O
H       0.3889   0.1506   0.4686     H
H       0.3889    0.386   0.6126     H
H       0.3889   0.6506   0.5314     H
H       0.3889    0.886   0.3874     H
O      0.39085  0.33463   0.9912     O
O      0.39085  0.83463   0.0088     O
H       0.3941   0.2883    0.432     H
H       0.3941   0.7883    0.568     H
C      0.39461  0.38755   0.6991     C
C      0.39461  0.88755   0.3009     C
C      0.39543  0.11261   0.4281     C
C      0.39543  0.61261   0.5719     C
H       0.4006   0.3611   0.2814     H
H       0.4006   0.8611   0.7186     H
H       0.4023    0.163   0.0256     H
H       0.4023    0.663   0.9744     H
H        0.413   0.3477   0.7244     H
H        0.413   0.8477   0.2756     H
O      0.41537  0.14085   0.7588     O
O      0.41537  0.64085   0.2412     O
C      0.42078  0.49775   0.6789     C
C      0.42078  0.99775   0.3211     C
Sm     0.42776  0.43618  0.96942    Sm
Sm     0.42776  0.93618  0.03058    Sm
N      0.43745  0.43805   0.7283     N
N      0.43745  0.93805   0.2717     N
C      0.43926  0.10811   0.3404     C
C      0.43926  0.60811   0.6596     C
C      0.45175  0.05224   0.2834     C
C      0.45175  0.55224   0.7166     C
H       0.4617   0.1441    0.318     H
H       0.4617   0.6441    0.682     H
C      0.46604   0.1186   0.7882     C
C      0.46604   0.6186   0.2118     C
H       0.4738    0.042   0.6798     H
H       0.4738    0.542   0.3202     H
O      0.48548  0.39251  0.14636     O
O      0.48548  0.89251  0.85364     O
O      0.49127  0.12504  0.88732     O
O      0.49127  0.62504  0.11268     O
C      0.49328  0.05599   0.1777     C
C      0.49328  0.55599   0.8223     C
O      0.49478  0.49258  0.11647     O
O      0.49478  0.99258  0.88353     O
C      0.49838  0.07997   0.6945     C
C      0.49838  0.57997   0.3055     C
H       0.4999   0.1039   0.6201     H
H       0.4999   0.6039   0.3799     H
H       0.5001   0.3961   0.6201     H
H       0.5001   0.8961   0.3799     H
C      0.50162  0.42003   0.6945     C
C      0.50162  0.92003   0.3055     C
O      0.50522  0.00742  0.11647     O
O      0.50522  0.50742  0.88353     O
C      0.50672  0.44401   0.1777     C
C      0.50672  0.94401   0.8223     C
O      0.50873  0.37496  0.88732     O
O      0.50873  0.87496  0.11268     O
O      0.51452  0.10749  0.14636     O
O      0.51452  0.60749  0.85364     O
H       0.5262    0.458   0.6798     H
H       0.5262    0.958   0.3202     H
C      0.53396   0.3814   0.7882     C
C      0.53396   0.8814   0.2118     C
H       0.5383   0.3559    0.318     H
H       0.5383   0.8559    0.682     H
C      0.54825  0.44776   0.2834     C
C      0.54825  0.94776   0.7166     C
C      0.56074  0.39189   0.3404     C
C      0.56074  0.89189   0.6596     C
N      0.56255  0.06195   0.7283     N
N      0.56255  0.56195   0.2717     N
Sm     0.57224  0.06382  0.96942    Sm
Sm     0.57224  0.56382  0.03058    Sm
C      0.57922  0.00225   0.6789     C
C      0.57922  0.50225   0.3211     C
O      0.58463  0.35915   0.7588     O
O      0.58463  0.85915   0.2412     O
H        0.587   0.1523   0.7244     H
H        0.587   0.6523   0.2756     H
H       0.5977    0.337   0.0256     H
H       0.5977    0.837   0.9744     H
H       0.5994   0.1389   0.2814     H
H       0.5994   0.6389   0.7186     H
C      0.60457  0.38739   0.4281     C
C      0.60457  0.88739   0.5719     C
C      0.60539  0.11245   0.6991     C
C      0.60539  0.61245   0.3009     C
H       0.6059   0.2117    0.432     H
H       0.6059   0.7117    0.568     H
O      0.60915  0.16537   0.9912     O
O      0.60915  0.66537   0.0088     O
H       0.6111    0.114   0.6126     H
H       0.6111   0.3494   0.4686     H
H       0.6111    0.614   0.3874     H
H       0.6111   0.8494   0.5314     H
O      0.61938  0.46276  0.03924     O
O      0.61938  0.96276  0.96076     O
O      0.62496  0.24127  0.86268     O
O      0.62496  0.74127  0.13732     O
C      0.62637  0.49662   0.4031     C
C      0.62637  0.99662   0.5969     C
C       0.6314  0.21604   0.9618     C
C       0.6314  0.71604   0.0382     C
H        0.636   0.3611   0.1374     H
H        0.636   0.8611   0.8626     H
C      0.63739  0.14543   0.3219     C
C      0.63739  0.64543   0.6781     C
C      0.63755  0.35539   0.0509     C
C      0.63755  0.85539   0.9491     C
C      0.63888  0.43939   0.4559     C
C      0.63888  0.93939   0.5441     C
O      0.63948  0.05853  0.13812     O
O      0.63948  0.55853  0.86188     O
C      0.64189  0.18926   0.4096     C
C      0.64189  0.68926   0.5904     C
O      0.64251  0.26452  0.60364     O
O      0.64251  0.76452  0.39636     O
C      0.64552  0.41782   0.9924     C
C      0.64552  0.91782   0.0076     C
H       0.6461   0.2499   0.1299     H
H       0.6461   0.7499   0.8701     H
H       0.6504   0.0319   0.5763     H
H       0.6504   0.5319   0.4237     H
C      0.66782  0.10448   0.7576     C
C      0.66782  0.60448   0.2424     C
O      0.66895  0.07194  0.85183     O
O      0.66895  0.57194  0.14817     O
C      0.67003  0.24838   0.0555     C
C      0.67003  0.74838   0.9445     C
O      0.67806  0.41895  0.89817     O
O      0.67806  0.91895  0.10183     O
C      0.68207  0.05951   0.2075     C
C      0.68207  0.55951   0.7925     C
Sm     0.68618  0.32224  0.78058    Sm
Sm     0.68618  0.82224  0.21942    Sm
N      0.68805  0.31255   0.0217     N
N      0.68805  0.81255   0.9783     N
C      0.68939  0.11112   0.2941     C
C      0.68939  0.61112   0.7059     C
C      0.69049  0.43207   0.5425     C
C      0.69049  0.93207   0.4575     C
O      0.69147  0.38948  0.61188     O
O      0.69147  0.88948  0.38812     O
C      0.69401  0.24328   0.5723     C
C      0.69401  0.74328   0.4277     C
C      0.69776  0.20175   0.4666     C
C      0.69776  0.70175   0.5334     C
H        0.708   0.2238   0.0702     H
H        0.708   0.7238   0.9298     H
H       0.7105   0.4878   0.8356     H
H       0.7105   0.9878   0.1644     H
O      0.71276  0.13062  0.71076     O
O      0.71276  0.63062  0.28924     O
H       0.7181   0.4004   0.1737     H
H       0.7181   0.9004   0.8263     H
O      0.72337  0.01566  0.21182     O
O      0.72337  0.51566  0.78818     O
O      0.73434  0.47337  0.53818     O
O      0.73434  0.97337  0.46182     O
H       0.7378   0.0395   0.9144     H
H       0.7378   0.5395   0.0856     H
O      0.74258  0.25522  0.63353     O
O      0.74258  0.75522  0.36647     O
C      0.74662  0.12363   0.3469     C
C      0.74662  0.62363   0.6531     C
C      0.74775  0.32922   0.0711     C
C      0.74775  0.82922   0.9289     C
C      0.75225  0.17078   0.4289     C
C      0.75225  0.67078   0.5711     C
C      0.75338  0.37637   0.1531     C
C      0.75338  0.87637   0.8469     C
O      0.75742  0.24478  0.86647     O
O      0.75742  0.74478  0.13353     O
H       0.7622   0.4605   0.5856     H
H       0.7622   0.9605   0.4144     H
O      0.76566  0.02663  0.96182     O
O      0.76566  0.52663  0.03818     O
O      0.77663  0.48434  0.28818     O
O      0.77663  0.98434  0.71182     O
H       0.7819   0.0996   0.3263     H
H       0.7819   0.5996   0.6737     H
O      0.78724  0.36938  0.78924     O
O      0.78724  0.86938  0.21076     O
H       0.7895   0.0122   0.6644     H
H       0.7895   0.5122   0.3356     H
H        0.792   0.2762   0.4298     H
H        0.792   0.7762   0.5702     H
C      0.80224  0.29825   0.0334     C
C      0.80224  0.79825   0.9666     C
C      0.80599  0.25672   0.9277     C
C      0.80599  0.75672   0.0723     C
O      0.80853  0.11052  0.88812     O
O      0.80853  0.61052  0.11188     O
C      0.80951  0.06793   0.9575     C
C      0.80951  0.56793   0.0425     C
C      0.81061  0.38888   0.2059     C
C      0.81061  0.88888   0.7941     C
N      0.81195  0.18745   0.4783     N
N      0.81195  0.68745   0.5217     N
Sm     0.81382  0.17776  0.71942    Sm
Sm     0.81382  0.67776  0.28058    Sm
C      0.81793  0.44049   0.2925     C
C      0.81793  0.94049   0.7075     C
O      0.82194  0.08105  0.60183     O
O      0.82194  0.58105  0.39817     O
C      0.82997  0.25162   0.4445     C
C      0.82997  0.75162   0.5555     C
O      0.83105  0.42806  0.64817     O
O      0.83105  0.92806  0.35183     O
C      0.83218  0.39552   0.7424     C
C      0.83218  0.89552   0.2576     C
H       0.8496   0.4681   0.9237     H
H       0.8496   0.9681   0.0763     H
H       0.8539   0.2501   0.3701     H
H       0.8539   0.7501   0.6299     H
C      0.85448  0.08218   0.5076     C
C      0.85448  0.58218   0.4924     C
O      0.85749  0.23548  0.89636     O
O      0.85749  0.73548  0.10364     O
C      0.85811  0.31074   0.0904     C
C      0.85811  0.81074   0.9096     C
O      0.86052  0.44147  0.36188     O
O      0.86052  0.94147  0.63812     O
C      0.86112  0.06061   0.0441     C
C      0.86112  0.56061   0.9559     C
C      0.86245  0.14461   0.4491     C
C      0.86245  0.64461   0.5509     C
C      0.86261  0.35457   0.1781     C
C      0.86261  0.85457   0.8219     C
H        0.864   0.1389   0.3626     H
H        0.864   0.6389   0.6374     H
C       0.8686  0.28396   0.5382     C
C       0.8686  0.78396   0.4618     C
C      0.87363  0.00338   0.0969     C
C      0.87363  0.50338   0.9031     C
O      0.87504  0.25873  0.63732     O
O      0.87504  0.75873  0.36268     O
O      0.88062  0.03724  0.46076     O
O      0.88062  0.53724  0.53924     O
H       0.8889   0.1506   0.0314     H
H       0.8889    0.386   0.8874     H
H       0.8889   0.6506   0.9686     H
H       0.8889    0.886   0.1126     H
O      0.89085  0.33463   0.5088     O
O      0.89085  0.83463   0.4912     O
H       0.8941   0.2883    0.068     H
H       0.8941   0.7883    0.932     H
C      0.89461  0.38755   0.8009     C
C      0.89461  0.88755   0.1991     C
C      0.89543  0.11261   0.0719     C
C      0.89543  0.61261   0.9281     C
H       0.9006   0.3611   0.2186     H
H       0.9006   0.8611   0.7814     H
H       0.9023    0.163   0.4744     H
H       0.9023    0.663   0.5256     H
H        0.913   0.3477   0.7756     H
H        0.913   0.8477   0.2244     H
O      0.91537  0.14085   0.7412     O
O      0.91537  0.64085   0.2588     O
C      0.92078  0.49775   0.8211     C
C      0.92078  0.99775   0.1789     C
Sm     0.92776  0.43618  0.53058    Sm
Sm     0.92776  0.93618  0.46942    Sm
N      0.93745  0.43805   0.7717     N
N      0.93745  0.93805   0.2283     N
C      0.93926  0.10811   0.1596     C
C      0.93926  0.60811   0.8404     C
C      0.95175  0.05224   0.2166     C
C      0.95175  0.55224   0.7834     C
H       0.9617   0.1441    0.182     H
H       0.9617   0.6441    0.818     H
C      0.96604   0.1186   0.7118     C
C      0.96604   0.6186   0.2882     C
H       0.9738    0.042   0.8202     H
H       0.9738    0.542   0.1798     H
O      0.98548  0.39251  0.35364     O
O      0.98548  0.89251  0.64636     O
O      0.99127  0.12504  0.61268     O
O      0.99127  0.62504  0.38732     O
C      0.99328  0.05599   0.3223     C
C      0.99328  0.55599   0.6777     C
O      0.99478  0.49258  0.38353     O
O      0.99478  0.99258  0.61647     O
C      0.99838  0.07997   0.8055     C
C      0.99838  0.57997   0.1945     C
H       0.9999   0.1039   0.8799     H
H       0.9999   0.6039   0.1201     H
