data_I
_chemical_name_common  '/home/zhangsd/repos/MofS-CGCNN/ML/data/TSD/clean_cifs/WEHHIC_clean'
_cell_length_a 12.38300
_cell_length_b 26.27100
_cell_length_c 26.27800
_cell_angle_alpha 90.00000
_cell_angle_beta  90.00000
_cell_angle_gamma 90.00000
_space_group_name_H-M_alt      'P 1'


loop_
_space_group_symop_operation_xyz
  'x, y, z' 

loop_
_atom_site_label
_atom_site_fract_x
_atom_site_fract_y
_atom_site_fract_z
_atom_site_type_symbol
O       0.0031   0.0528   0.5706     O
O       0.0031   0.0528   0.9294     O
O       0.0031   0.4472   0.0706     O
O       0.0031   0.4472   0.4294     O
H       0.0116   0.1255   0.6302     H
H       0.0116   0.1255   0.8698     H
H       0.0116   0.3745   0.1302     H
H       0.0116   0.3745   0.3698     H
Zn     0.02119  0.19919     0.25    Zn
Zn     0.02119  0.30081     0.75    Zn
O       0.0389  0.55358  0.06172     O
O       0.0389  0.55358  0.43828     O
O       0.0389  0.94642  0.56172     O
O       0.0389  0.94642  0.93828     O
O       0.0418  0.69187  0.69578     O
O       0.0418  0.69187  0.80422     O
O       0.0418  0.80813  0.19578     O
O       0.0418  0.80813  0.30422     O
C       0.0438   0.2134  0.68019     C
C       0.0438   0.2134  0.81981     C
C       0.0438   0.2866  0.18019     C
C       0.0438   0.2866  0.31981     C
C       0.0705  0.14273  0.61657     C
C       0.0705  0.14273  0.88343     C
C       0.0705  0.35727  0.11657     C
C       0.0705  0.35727  0.38343     C
C        0.082  0.07468  0.54967     C
C        0.082  0.07468  0.95033     C
C        0.082  0.42532  0.04967     C
C        0.082  0.42532  0.45033     C
Zn     0.08257  0.00568  0.04084    Zn
Zn     0.08257  0.00568  0.45916    Zn
Zn     0.08257  0.49432  0.54084    Zn
Zn     0.08257  0.49432  0.95916    Zn
O       0.0828  0.24639  0.19786     O
O       0.0828  0.24639  0.30214     O
O       0.0828  0.25361  0.69786     O
O       0.0828  0.25361  0.80214     O
O       0.0829  0.67499  0.19697     O
O       0.0829  0.67499  0.30303     O
O       0.0829  0.82501  0.69697     O
O       0.0829  0.82501  0.80303     O
H       0.0958   0.6156   0.1268     H
H       0.0958   0.6156   0.3732     H
H       0.0958   0.8844   0.6268     H
H       0.0958   0.8844   0.8732     H
C       0.1036  0.18801  0.63775     C
C       0.1036  0.18801  0.86225     C
C       0.1036  0.31199  0.13775     C
C       0.1036  0.31199  0.36225     C
C       0.1243  0.56656  0.04023     C
C       0.1243  0.56656  0.45977     C
C       0.1243  0.93344  0.54023     C
C       0.1243  0.93344  0.95977     C
C       0.1246  0.12278  0.57519     C
C       0.1246  0.12278  0.92481     C
C       0.1246  0.37722  0.07519     C
C       0.1246  0.37722  0.42481     C
O       0.1284  0.06121   0.5097     O
O       0.1284  0.06121   0.9903     O
O       0.1284  0.43879   0.0097     O
O       0.1284  0.43879   0.4903     O
Zn     0.14665  0.71893     0.75    Zn
Zn     0.14665  0.78107     0.25    Zn
C       0.1541  0.62984  0.10964     C
C       0.1541  0.62984  0.39036     C
C       0.1541  0.87016  0.60964     C
C       0.1541  0.87016  0.89036     C
O       0.1622   0.5463  0.00079     O
O       0.1622   0.5463  0.49921     O
O       0.1622   0.9537  0.50079     O
O       0.1622   0.9537  0.99921     O
C       0.1627  0.69594  0.17734     C
C       0.1627  0.69594  0.32266     C
C       0.1627  0.80406  0.67734     C
C       0.1627  0.80406  0.82266     C
C       0.1867  0.60911  0.06461     C
C       0.1867  0.60911  0.43539     C
C       0.1867  0.89089  0.56461     C
C       0.1867  0.89089  0.93539     C
C       0.1917  0.21254   0.6181     C
C       0.1917  0.21254   0.8819     C
C       0.1917  0.28746   0.1181     C
C       0.1917  0.28746   0.3819     C
C       0.2057  0.67125  0.12998     C
C       0.2057  0.67125  0.37002     C
C       0.2057  0.82875  0.62998     C
C       0.2057  0.82875  0.87002     C
O       0.2105  0.73554  0.19398     O
O       0.2105  0.73554  0.30602     O
O       0.2105  0.76446  0.69398     O
O       0.2105  0.76446  0.80602     O
C       0.2138  0.14668  0.55498     C
C       0.2138  0.14668  0.94502     C
C       0.2138  0.35332  0.05498     C
C       0.2138  0.35332  0.44502     C
H        0.215   0.2429   0.6326     H
H        0.215   0.2429   0.8674     H
H        0.215   0.2571   0.1326     H
H        0.215   0.2571   0.3674     H
C       0.2471  0.19209  0.57622     C
C       0.2471  0.19209  0.92378     C
C       0.2471  0.30791  0.07622     C
C       0.2471  0.30791  0.42378     C
H       0.2507   0.1325   0.5276     H
H       0.2507   0.1325   0.9724     H
H       0.2507   0.3675   0.0276     H
H       0.2507   0.3675   0.4724     H
C       0.2744  0.62944  0.03855     C
C       0.2744  0.62944  0.46145     C
C       0.2744  0.87056  0.53855     C
C       0.2744  0.87056  0.96145     C
C       0.2947  0.69271  0.10466     C
C       0.2947  0.69271  0.39534     C
C       0.2947  0.80729  0.60466     C
C       0.2947  0.80729  0.89534     C
H       0.2972   0.6151    0.008     H
H       0.2972   0.6151    0.492     H
H       0.2972   0.8849    0.508     H
H       0.2972   0.8849    0.992     H
C       0.3275   0.6714  0.05853     C
C       0.3275   0.6714  0.44147     C
C       0.3275   0.8286  0.55853     C
C       0.3275   0.8286  0.94147     C
O       0.3309  0.22161   0.5593     O
O       0.3309  0.22161   0.9407     O
O       0.3309  0.27839   0.0593     O
O       0.3309  0.27839   0.4407     O
H       0.3309   0.7205   0.1183     H
H       0.3309   0.7205   0.3817     H
H       0.3309   0.7795   0.6183     H
H       0.3309   0.7795   0.8817     H
H       0.3421   0.1969   0.0113     H
H       0.3421   0.1969   0.4887     H
H       0.3421   0.3031   0.5113     H
H       0.3421   0.3031   0.9887     H
C       0.3907  0.20602  0.51611     C
C       0.3907  0.20602  0.98389     C
C       0.3907  0.29398  0.01611     C
C       0.3907  0.29398  0.48389     C
O       0.4097  0.68958  0.02875     O
O       0.4097  0.68958  0.47125     O
O       0.4097  0.81042  0.52875     O
O       0.4097  0.81042  0.97125     O
H       0.4166   0.7393    0.554     H
H       0.4166   0.7393    0.946     H
H       0.4166   0.7607    0.054     H
H       0.4166   0.7607    0.446     H
H       0.4345   0.1766   0.5244     H
H       0.4345   0.1766   0.9756     H
H       0.4345   0.3234   0.0244     H
H       0.4345   0.3234   0.4756     H
C       0.4622     0.25      0.0     C
C       0.4622     0.25      0.5     C
C       0.4667  0.73372  0.04504     C
C       0.4667  0.73372  0.45496     C
C       0.4667  0.76628  0.54504     C
C       0.4667  0.76628  0.95496     C
H       0.4891    0.226   0.0745     H
H       0.4891    0.226   0.4255     H
H       0.4891    0.274   0.5745     H
H       0.4891    0.274   0.9255     H
H       0.5109    0.726   0.0745     H
H       0.5109    0.726   0.4255     H
H       0.5109    0.774   0.5745     H
H       0.5109    0.774   0.9255     H
C       0.5333  0.23372  0.04504     C
C       0.5333  0.23372  0.45496     C
C       0.5333  0.26628  0.54504     C
C       0.5333  0.26628  0.95496     C
C       0.5378     0.75      0.0     C
C       0.5378     0.75      0.5     C
H       0.5655   0.6766   0.5244     H
H       0.5655   0.6766   0.9756     H
H       0.5655   0.8234   0.0244     H
H       0.5655   0.8234   0.4756     H
H       0.5834   0.2393    0.554     H
H       0.5834   0.2393    0.946     H
H       0.5834   0.2607    0.054     H
H       0.5834   0.2607    0.446     H
O       0.5903  0.18958  0.02875     O
O       0.5903  0.18958  0.47125     O
O       0.5903  0.31042  0.52875     O
O       0.5903  0.31042  0.97125     O
C       0.6093  0.70602  0.51611     C
C       0.6093  0.70602  0.98389     C
C       0.6093  0.79398  0.01611     C
C       0.6093  0.79398  0.48389     C
H       0.6579   0.6969   0.0113     H
H       0.6579   0.6969   0.4887     H
H       0.6579   0.8031   0.5113     H
H       0.6579   0.8031   0.9887     H
H       0.6691   0.2205   0.1183     H
H       0.6691   0.2205   0.3817     H
H       0.6691   0.2795   0.6183     H
H       0.6691   0.2795   0.8817     H
O       0.6691  0.72161   0.5593     O
O       0.6691  0.72161   0.9407     O
O       0.6691  0.77839   0.0593     O
O       0.6691  0.77839   0.4407     O
C       0.6725   0.1714  0.05853     C
C       0.6725   0.1714  0.44147     C
C       0.6725   0.3286  0.55853     C
C       0.6725   0.3286  0.94147     C
H       0.7028   0.1151    0.008     H
H       0.7028   0.1151    0.492     H
H       0.7028   0.3849    0.508     H
H       0.7028   0.3849    0.992     H
C       0.7053  0.19271  0.10466     C
C       0.7053  0.19271  0.39534     C
C       0.7053  0.30729  0.60466     C
C       0.7053  0.30729  0.89534     C
C       0.7256  0.12944  0.03855     C
C       0.7256  0.12944  0.46145     C
C       0.7256  0.37056  0.53855     C
C       0.7256  0.37056  0.96145     C
H       0.7493   0.6325   0.5276     H
H       0.7493   0.6325   0.9724     H
H       0.7493   0.8675   0.0276     H
H       0.7493   0.8675   0.4724     H
C       0.7529  0.69209  0.57622     C
C       0.7529  0.69209  0.92378     C
C       0.7529  0.80791  0.07622     C
C       0.7529  0.80791  0.42378     C
H        0.785   0.7429   0.6326     H
H        0.785   0.7429   0.8674     H
H        0.785   0.7571   0.1326     H
H        0.785   0.7571   0.3674     H
C       0.7862  0.64668  0.55498     C
C       0.7862  0.64668  0.94502     C
C       0.7862  0.85332  0.05498     C
C       0.7862  0.85332  0.44502     C
O       0.7895  0.23554  0.19398     O
O       0.7895  0.23554  0.30602     O
O       0.7895  0.26446  0.69398     O
O       0.7895  0.26446  0.80602     O
C       0.7943  0.17125  0.12998     C
C       0.7943  0.17125  0.37002     C
C       0.7943  0.32875  0.62998     C
C       0.7943  0.32875  0.87002     C
C       0.8083  0.71254   0.6181     C
C       0.8083  0.71254   0.8819     C
C       0.8083  0.78746   0.1181     C
C       0.8083  0.78746   0.3819     C
C       0.8133  0.10911  0.06461     C
C       0.8133  0.10911  0.43539     C
C       0.8133  0.39089  0.56461     C
C       0.8133  0.39089  0.93539     C
C       0.8373  0.19594  0.17734     C
C       0.8373  0.19594  0.32266     C
C       0.8373  0.30406  0.67734     C
C       0.8373  0.30406  0.82266     C
O       0.8378   0.0463  0.00079     O
O       0.8378   0.0463  0.49921     O
O       0.8378   0.4537  0.50079     O
O       0.8378   0.4537  0.99921     O
C       0.8459  0.12984  0.10964     C
C       0.8459  0.12984  0.39036     C
C       0.8459  0.37016  0.60964     C
C       0.8459  0.37016  0.89036     C
Zn     0.85335  0.21893     0.75    Zn
Zn     0.85335  0.28107     0.25    Zn
O       0.8716  0.56121   0.5097     O
O       0.8716  0.56121   0.9903     O
O       0.8716  0.93879   0.0097     O
O       0.8716  0.93879   0.4903     O
C       0.8754  0.62278  0.57519     C
C       0.8754  0.62278  0.92481     C
C       0.8754  0.87722  0.07519     C
C       0.8754  0.87722  0.42481     C
C       0.8757  0.06656  0.04023     C
C       0.8757  0.06656  0.45977     C
C       0.8757  0.43344  0.54023     C
C       0.8757  0.43344  0.95977     C
C       0.8964  0.68801  0.63775     C
C       0.8964  0.68801  0.86225     C
C       0.8964  0.81199  0.13775     C
C       0.8964  0.81199  0.36225     C
H       0.9042   0.1156   0.1268     H
H       0.9042   0.1156   0.3732     H
H       0.9042   0.3844   0.6268     H
H       0.9042   0.3844   0.8732     H
O       0.9171  0.17499  0.19697     O
O       0.9171  0.17499  0.30303     O
O       0.9171  0.32501  0.69697     O
O       0.9171  0.32501  0.80303     O
O       0.9172  0.74639  0.19786     O
O       0.9172  0.74639  0.30214     O
O       0.9172  0.75361  0.69786     O
O       0.9172  0.75361  0.80214     O
Zn     0.91743  0.50568  0.04084    Zn
Zn     0.91743  0.50568  0.45916    Zn
Zn     0.91743  0.99432  0.54084    Zn
Zn     0.91743  0.99432  0.95916    Zn
C        0.918  0.57468  0.54967     C
C        0.918  0.57468  0.95033     C
C        0.918  0.92532  0.04967     C
C        0.918  0.92532  0.45033     C
C       0.9295  0.64273  0.61657     C
C       0.9295  0.64273  0.88343     C
C       0.9295  0.85727  0.11657     C
C       0.9295  0.85727  0.38343     C
C       0.9562   0.7134  0.68019     C
C       0.9562   0.7134  0.81981     C
C       0.9562   0.7866  0.18019     C
C       0.9562   0.7866  0.31981     C
O       0.9582  0.19187  0.69578     O
O       0.9582  0.19187  0.80422     O
O       0.9582  0.30813  0.19578     O
O       0.9582  0.30813  0.30422     O
O       0.9611  0.05358  0.06172     O
O       0.9611  0.05358  0.43828     O
O       0.9611  0.44642  0.56172     O
O       0.9611  0.44642  0.93828     O
Zn     0.97881  0.69919     0.25    Zn
Zn     0.97881  0.80081     0.75    Zn
H       0.9884   0.6255   0.6302     H
H       0.9884   0.6255   0.8698     H
H       0.9884   0.8745   0.1302     H
H       0.9884   0.8745   0.3698     H
O       0.9969   0.5528   0.5706     O
O       0.9969   0.5528   0.9294     O
O       0.9969   0.9472   0.0706     O
O       0.9969   0.9472   0.4294     O
