data_I
_chemical_name_common  '/home/zhangsd/repos/MofS-CGCNN/ML/data/TSD/clean_cifs/WEHHUO_clean'
_cell_length_a 12.50590
_cell_length_b 26.17080
_cell_length_c 26.25090
_cell_angle_alpha 90.00000
_cell_angle_beta  90.00000
_cell_angle_gamma 90.00000
_space_group_name_H-M_alt      'P 1'


loop_
_space_group_symop_operation_xyz
  'x, y, z' 

loop_
_atom_site_label
_atom_site_fract_x
_atom_site_fract_y
_atom_site_fract_z
_atom_site_type_symbol
H       0.0164   0.2251    0.074     H
H       0.0164   0.2251    0.426     H
H       0.0164   0.2749    0.574     H
H       0.0164   0.2749    0.926     H
C       0.0279  0.73315   0.0447     C
C       0.0279  0.73315   0.4553     C
C       0.0279  0.76685   0.5447     C
C       0.0279  0.76685   0.9553     C
C       0.0415     0.25      0.0     C
C       0.0415     0.25      0.5     C
H       0.0683   0.1762   0.5263     H
H       0.0683   0.1762   0.9737     H
H       0.0683   0.3238   0.0263     H
H       0.0683   0.3238   0.4737     H
H       0.0772   0.7399   0.5541     H
H       0.0772   0.7399   0.9459     H
H       0.0772   0.7601   0.0541     H
H       0.0772   0.7601   0.4459     H
O       0.0853  0.68888  0.02835     O
O       0.0853  0.68888  0.47165     O
O       0.0853  0.81112  0.52835     O
O       0.0853  0.81112  0.97165     O
C       0.1123  0.20535  0.51731     C
C       0.1123  0.20535  0.98269     C
C       0.1123  0.29465  0.01731     C
C       0.1123  0.29465  0.48269     C
H       0.1603   0.1953   0.0099     H
H       0.1603   0.1953   0.4901     H
H       0.1603   0.3047   0.5099     H
H       0.1603   0.3047   0.9901     H
H       0.1622   0.7185   0.1185     H
H       0.1622   0.7185   0.3815     H
H       0.1622   0.7815   0.6185     H
H       0.1622   0.7815   0.8815     H
C        0.166  0.67055  0.05856     C
C        0.166  0.67055  0.44144     C
C        0.166  0.82945  0.55856     C
C        0.166  0.82945  0.94144     C
O       0.1719  0.22193  0.56042     O
O       0.1719  0.22193  0.93958     O
O       0.1719  0.27807  0.06042     O
O       0.1719  0.27807  0.43958     O
H       0.1957   0.6135   0.0078     H
H       0.1957   0.6135   0.4922     H
H       0.1957   0.8865   0.5078     H
H       0.1957   0.8865   0.9922     H
C       0.1985  0.69093  0.10441     C
C       0.1985  0.69093  0.39559     C
C       0.1985  0.80907  0.60441     C
C       0.1985  0.80907  0.89559     C
C       0.2191  0.62794  0.03816     C
C       0.2191  0.62794  0.46184     C
C       0.2191  0.87206  0.53816     C
C       0.2191  0.87206  0.96184     C
H       0.2512   0.1333   0.5287     H
H       0.2512   0.1333   0.9713     H
H       0.2512   0.3667   0.0287     H
H       0.2512   0.3667   0.4713     H
C       0.2541  0.19278   0.5777     C
C       0.2541  0.19278   0.9223     C
C       0.2541  0.30722   0.0777     C
C       0.2541  0.30722   0.4223     C
C        0.286  0.66989  0.12939     C
C        0.286  0.66989  0.37061     C
C        0.286  0.83011  0.62939     C
C        0.286  0.83011  0.87061     C
O       0.2862  0.73381  0.19414     O
O       0.2862  0.73381  0.30586     O
O       0.2862  0.76619  0.69414     O
O       0.2862  0.76619  0.80586     O
H       0.2871   0.2447   0.6333     H
H       0.2871   0.2447   0.8667     H
H       0.2871   0.2553   0.1333     H
H       0.2871   0.2553   0.3667     H
C       0.2877  0.14721  0.55624     C
C       0.2877  0.14721  0.94376     C
C       0.2877  0.35279  0.05624     C
C       0.2877  0.35279  0.44376     C
C       0.3057  0.60764   0.0631     C
C       0.3057  0.60764   0.4369     C
C       0.3057  0.89236   0.5631     C
C       0.3057  0.89236   0.9369     C
C       0.3099  0.21406  0.61906     C
C       0.3099  0.21406  0.88094     C
C       0.3099  0.28594  0.11906     C
C       0.3099  0.28594  0.38094     C
C       0.3299   0.6946  0.17771     C
C       0.3299   0.6946  0.32229     C
C       0.3299   0.8054  0.67771     C
C       0.3299   0.8054  0.82229     C
O        0.333  0.54539  0.50171     O
O        0.333  0.54539  0.99829     O
O        0.333  0.95461  0.00171     O
O        0.333  0.95461  0.49829     O
C       0.3403  0.62861  0.10859     C
C       0.3403  0.62861  0.39141     C
C       0.3403  0.87139  0.60859     C
C       0.3403  0.87139  0.89141     C
Zn     0.34984  0.72066     0.75    Zn
Zn     0.34984  0.77934     0.25    Zn
C       0.3693  0.56499  0.03847     C
C       0.3693  0.56499  0.46153     C
C       0.3693  0.93501  0.53847     C
C       0.3693  0.93501  0.96153     C
O       0.3741  0.06134  0.51063     O
O       0.3741  0.06134  0.98937     O
O       0.3741  0.43866  0.01063     O
O       0.3741  0.43866  0.48937     O
C       0.3777  0.12222  0.57661     C
C       0.3777  0.12222  0.92339     C
C       0.3777  0.37778  0.07661     C
C       0.3777  0.37778  0.42339     C
C       0.3983   0.1894  0.63847     C
C       0.3983   0.1894  0.86153     C
C       0.3983   0.3106  0.13847     C
C       0.3983   0.3106  0.36153     C
H       0.3997   0.6151   0.1251     H
H       0.3997   0.6151   0.3749     H
H       0.3997   0.8849   0.6251     H
H       0.3997   0.8849   0.8749     H
O       0.4103  0.67263  0.19716     O
O       0.4103  0.67263  0.30284     O
O       0.4103  0.82737  0.69716     O
O       0.4103  0.82737  0.80284     O
Zn     0.41896   0.0066  0.04116    Zn
Zn     0.41896   0.0066  0.45884    Zn
Zn     0.41896   0.4934  0.54116    Zn
Zn     0.41896   0.4934  0.95884    Zn
C       0.4192  0.07472  0.55092     C
C       0.4192  0.07472  0.94908     C
C       0.4192  0.42528  0.05092     C
C       0.4192  0.42528  0.44908     C
O       0.4239  0.24294  0.19632     O
O       0.4239  0.24294  0.30368     O
O       0.4239  0.25706  0.69632     O
O       0.4239  0.25706  0.80368     O
C       0.4319  0.14318  0.61793     C
C       0.4319  0.14318  0.88207     C
C       0.4319  0.35682  0.11793     C
C       0.4319  0.35682  0.38207     C
O       0.4549  0.55285  0.06008     O
O       0.4549  0.55285  0.43992     O
O       0.4549  0.94715  0.56008     O
O       0.4549  0.94715  0.93992     O
O       0.4559  0.69386  0.69576     O
O       0.4559  0.69386  0.80424     O
O       0.4559  0.80614  0.19576     O
O       0.4559  0.80614  0.30424     O
C       0.4608  0.21557  0.68081     C
C       0.4608  0.21557  0.81919     C
C       0.4608  0.28443  0.18081     C
C       0.4608  0.28443  0.31919     C
Zn     0.48667  0.19657     0.25    Zn
Zn     0.48667  0.30343     0.75    Zn
H       0.4905   0.1263   0.6318     H
H       0.4905   0.1263   0.8682     H
H       0.4905   0.3737   0.1318     H
H       0.4905   0.3737   0.3682     H
O       0.4978  0.05307  0.57177     O
O       0.4978  0.05307  0.92823     O
O       0.4978  0.44693  0.07177     O
O       0.4978  0.44693  0.42823     O
O       0.5022  0.55307  0.57177     O
O       0.5022  0.55307  0.92823     O
O       0.5022  0.94693  0.07177     O
O       0.5022  0.94693  0.42823     O
H       0.5095   0.6263   0.6318     H
H       0.5095   0.6263   0.8682     H
H       0.5095   0.8737   0.1318     H
H       0.5095   0.8737   0.3682     H
Zn     0.51333  0.69657     0.25    Zn
Zn     0.51333  0.80343     0.75    Zn
C       0.5392  0.71557  0.68081     C
C       0.5392  0.71557  0.81919     C
C       0.5392  0.78443  0.18081     C
C       0.5392  0.78443  0.31919     C
O       0.5441  0.19386  0.69576     O
O       0.5441  0.19386  0.80424     O
O       0.5441  0.30614  0.19576     O
O       0.5441  0.30614  0.30424     O
O       0.5451  0.05285  0.06008     O
O       0.5451  0.05285  0.43992     O
O       0.5451  0.44715  0.56008     O
O       0.5451  0.44715  0.93992     O
C       0.5681  0.64318  0.61793     C
C       0.5681  0.64318  0.88207     C
C       0.5681  0.85682  0.11793     C
C       0.5681  0.85682  0.38207     C
O       0.5761  0.74294  0.19632     O
O       0.5761  0.74294  0.30368     O
O       0.5761  0.75706  0.69632     O
O       0.5761  0.75706  0.80368     O
C       0.5808  0.57472  0.55092     C
C       0.5808  0.57472  0.94908     C
C       0.5808  0.92528  0.05092     C
C       0.5808  0.92528  0.44908     C
Zn     0.58104   0.5066  0.04116    Zn
Zn     0.58104   0.5066  0.45884    Zn
Zn     0.58104   0.9934  0.54116    Zn
Zn     0.58104   0.9934  0.95884    Zn
O       0.5897  0.17263  0.19716     O
O       0.5897  0.17263  0.30284     O
O       0.5897  0.32737  0.69716     O
O       0.5897  0.32737  0.80284     O
H       0.6003   0.1151   0.1251     H
H       0.6003   0.1151   0.3749     H
H       0.6003   0.3849   0.6251     H
H       0.6003   0.3849   0.8749     H
C       0.6017   0.6894  0.63847     C
C       0.6017   0.6894  0.86153     C
C       0.6017   0.8106  0.13847     C
C       0.6017   0.8106  0.36153     C
C       0.6223  0.62222  0.57661     C
C       0.6223  0.62222  0.92339     C
C       0.6223  0.87778  0.07661     C
C       0.6223  0.87778  0.42339     C
O       0.6259  0.56134  0.51063     O
O       0.6259  0.56134  0.98937     O
O       0.6259  0.93866  0.01063     O
O       0.6259  0.93866  0.48937     O
C       0.6307  0.06499  0.03847     C
C       0.6307  0.06499  0.46153     C
C       0.6307  0.43501  0.53847     C
C       0.6307  0.43501  0.96153     C
Zn     0.65016  0.22066     0.75    Zn
Zn     0.65016  0.27934     0.25    Zn
C       0.6597  0.12861  0.10859     C
C       0.6597  0.12861  0.39141     C
C       0.6597  0.37139  0.60859     C
C       0.6597  0.37139  0.89141     C
O        0.667  0.04539  0.50171     O
O        0.667  0.04539  0.99829     O
O        0.667  0.45461  0.00171     O
O        0.667  0.45461  0.49829     O
C       0.6701   0.1946  0.17771     C
C       0.6701   0.1946  0.32229     C
C       0.6701   0.3054  0.67771     C
C       0.6701   0.3054  0.82229     C
C       0.6901  0.71406  0.61906     C
C       0.6901  0.71406  0.88094     C
C       0.6901  0.78594  0.11906     C
C       0.6901  0.78594  0.38094     C
C       0.6943  0.10764   0.0631     C
C       0.6943  0.10764   0.4369     C
C       0.6943  0.39236   0.5631     C
C       0.6943  0.39236   0.9369     C
C       0.7123  0.64721  0.55624     C
C       0.7123  0.64721  0.94376     C
C       0.7123  0.85279  0.05624     C
C       0.7123  0.85279  0.44376     C
H       0.7129   0.7447   0.6333     H
H       0.7129   0.7447   0.8667     H
H       0.7129   0.7553   0.1333     H
H       0.7129   0.7553   0.3667     H
O       0.7138  0.23381  0.19414     O
O       0.7138  0.23381  0.30586     O
O       0.7138  0.26619  0.69414     O
O       0.7138  0.26619  0.80586     O
C        0.714  0.16989  0.12939     C
C        0.714  0.16989  0.37061     C
C        0.714  0.33011  0.62939     C
C        0.714  0.33011  0.87061     C
C       0.7459  0.69278   0.5777     C
C       0.7459  0.69278   0.9223     C
C       0.7459  0.80722   0.0777     C
C       0.7459  0.80722   0.4223     C
H       0.7488   0.6333   0.5287     H
H       0.7488   0.6333   0.9713     H
H       0.7488   0.8667   0.0287     H
H       0.7488   0.8667   0.4713     H
C       0.7809  0.12794  0.03816     C
C       0.7809  0.12794  0.46184     C
C       0.7809  0.37206  0.53816     C
C       0.7809  0.37206  0.96184     C
C       0.8015  0.19093  0.10441     C
C       0.8015  0.19093  0.39559     C
C       0.8015  0.30907  0.60441     C
C       0.8015  0.30907  0.89559     C
H       0.8043   0.1135   0.0078     H
H       0.8043   0.1135   0.4922     H
H       0.8043   0.3865   0.5078     H
H       0.8043   0.3865   0.9922     H
O       0.8281  0.72193  0.56042     O
O       0.8281  0.72193  0.93958     O
O       0.8281  0.77807  0.06042     O
O       0.8281  0.77807  0.43958     O
C        0.834  0.17055  0.05856     C
C        0.834  0.17055  0.44144     C
C        0.834  0.32945  0.55856     C
C        0.834  0.32945  0.94144     C
H       0.8378   0.2185   0.1185     H
H       0.8378   0.2185   0.3815     H
H       0.8378   0.2815   0.6185     H
H       0.8378   0.2815   0.8815     H
H       0.8397   0.6953   0.0099     H
H       0.8397   0.6953   0.4901     H
H       0.8397   0.8047   0.5099     H
H       0.8397   0.8047   0.9901     H
C       0.8877  0.70535  0.51731     C
C       0.8877  0.70535  0.98269     C
C       0.8877  0.79465  0.01731     C
C       0.8877  0.79465  0.48269     C
O       0.9147  0.18888  0.02835     O
O       0.9147  0.18888  0.47165     O
O       0.9147  0.31112  0.52835     O
O       0.9147  0.31112  0.97165     O
H       0.9228   0.2399   0.5541     H
H       0.9228   0.2399   0.9459     H
H       0.9228   0.2601   0.0541     H
H       0.9228   0.2601   0.4459     H
H       0.9317   0.6762   0.5263     H
H       0.9317   0.6762   0.9737     H
H       0.9317   0.8238   0.0263     H
H       0.9317   0.8238   0.4737     H
C       0.9585     0.75      0.0     C
C       0.9585     0.75      0.5     C
C       0.9721  0.23315   0.0447     C
C       0.9721  0.23315   0.4553     C
C       0.9721  0.26685   0.5447     C
C       0.9721  0.26685   0.9553     C
H       0.9836   0.7251    0.074     H
H       0.9836   0.7251    0.426     H
H       0.9836   0.7749    0.574     H
H       0.9836   0.7749    0.926     H
