data_I
_chemical_name_common  '/home/zhangsd/repos/MofS-CGCNN/ML/data/TSD/clean_cifs/WEMNEJ_clean'
_cell_length_a 16.30800
_cell_length_b 10.51700
_cell_length_c 22.98600
_cell_angle_alpha 90.00000
_cell_angle_beta  104.44400
_cell_angle_gamma 90.00000
_space_group_name_H-M_alt      'P 1'


loop_
_space_group_symop_operation_xyz
  'x, y, z' 

loop_
_atom_site_label
_atom_site_fract_x
_atom_site_fract_y
_atom_site_fract_z
_atom_site_type_symbol
C       0.0029   0.6326   0.4998     C
C       0.0029   0.8674   0.9998     C
C       0.0041     0.72   0.9991     C
C       0.0041     0.78   0.4991     C
H       0.0266   0.1877   0.4729     H
H       0.0266   0.3123   0.9729     H
N       0.0345   0.1712    0.561     N
N       0.0345   0.3288    0.061     N
H        0.035   0.1936     0.12     H
H        0.035   0.3064     0.62     H
C       0.0477   0.2223   0.6133     C
C       0.0477   0.2777   0.1133     C
N       0.0608   0.0492   0.5669     N
N       0.0608   0.4508   0.0669     N
H       0.0621   0.6902    0.012     H
H       0.0621   0.8098    0.512     H
C       0.0729   0.0712   0.9991     C
C       0.0729   0.4288   0.4991     C
C       0.0761   0.5631   0.4994     C
C       0.0761   0.9369   0.9994     C
N       0.0811   0.1418    0.656     N
N       0.0811   0.3582    0.156     N
C       0.0859   0.0358   0.6245     C
C       0.0859   0.4642   0.1245     C
H       0.1058   0.5411   0.1426     H
H       0.1058   0.9589   0.6426     H
H       0.1097   0.6616   0.8527     H
H       0.1097   0.8384   0.3527     H
H       0.1162   0.6048   0.6164     H
H       0.1162   0.8952   0.1164     H
Zn     0.11908  0.17251  0.74886    Zn
Zn     0.11908  0.32749  0.24886    Zn
H       0.1288   0.0997    0.344     H
H       0.1288   0.4003    0.844     H
C       0.1332   0.1759   0.3651     C
C       0.1332   0.3241   0.8651     C
N       0.1349   0.2089   0.8391     N
N       0.1349   0.2911   0.3391     N
N       0.1382   0.1818   0.4223     N
N       0.1382   0.3182   0.9223     N
C       0.1432   0.1314   0.8848     C
C       0.1432   0.3686   0.3848     C
N       0.1434    0.193   0.9341     N
N       0.1434    0.307   0.4341     N
H       0.1484   0.0436   0.8824     H
H       0.1484   0.4564   0.3824     H
H       0.1486   0.7086   0.4824     H
H       0.1486   0.7914   0.9824     H
C       0.1498   0.1467   0.9949     C
C       0.1498   0.3533   0.4949     C
H       0.1564   0.2184   0.0222     H
H       0.1564   0.2816   0.5222     H
C       0.1579   0.6298   0.5051     C
C       0.1579   0.8702   0.0051     C
C       0.1665   0.6489   0.8718     C
C       0.1665   0.8511   0.3718     C
C       0.1682   0.6409   0.6163     C
C       0.1682   0.8591   0.1163     C
N       0.1933   0.6288   0.9296     N
N       0.1933   0.8712   0.4296     N
N       0.1957   0.6569   0.5684     N
N       0.1957   0.8431   0.0684     N
H       0.1959    0.577    0.489     H
H       0.1959    0.923    0.989     H
O       0.1988   0.0126   0.7631     O
O       0.1988   0.4874   0.2631     O
H       0.1998   0.0936   0.0073     H
H       0.1998   0.4064   0.5073     H
Zn     0.21405  0.67571   0.7519    Zn
Zn     0.21405  0.82429   0.2519    Zn
N       0.2225   0.6817   0.6642     N
N       0.2225   0.8183   0.1642     N
N       0.2283   0.6495   0.8425     N
N       0.2283   0.8505   0.3425     N
H       0.2593   0.1507   0.6624     H
H       0.2593   0.3493   0.1624     H
N       0.2736    0.707   0.5842     N
N       0.2736    0.793   0.0842     N
N       0.2786   0.6172   0.9371     N
N       0.2786   0.8828   0.4371     N
N       0.2821    0.151   0.5818     N
N       0.2821    0.349   0.0818     N
C        0.287    0.722   0.6415     C
C        0.287    0.778   0.1415     C
S      0.28862  0.52555  0.28769     S
S      0.28862  0.97445  0.78769     S
O       0.2954   0.6578   0.2693     O
O       0.2954   0.8422   0.7693     O
C       0.2961   0.6318   0.8847     C
C       0.2961   0.8682   0.3847     C
C       0.2992     0.16     0.64     C
C       0.2992     0.34     0.14     C
H       0.3072   0.1286   0.4831     H
H       0.3072   0.3714   0.9831     H
H        0.308   0.1463   0.1618     H
H        0.308   0.3537   0.6618     H
H       0.3083   0.5504   0.0226     H
H       0.3083   0.9496   0.5226     H
N       0.3122    0.208     0.08     N
N       0.3122    0.292     0.58     N
O       0.3134   0.5128   0.3512     O
O       0.3134   0.9872   0.8512     O
C       0.3288    0.206   0.1394     C
C       0.3288    0.294   0.6394     C
C        0.335   0.6053   0.9987     C
C        0.335   0.8947   0.4987     C
H       0.3365   0.7428   0.1651     H
H       0.3365   0.7572   0.6651     H
H       0.3425   0.6884   0.0177     H
H       0.3425   0.8116   0.5177     H
O       0.3428   0.0528   0.7602     O
O       0.3428   0.4472   0.2602     O
H       0.3505   0.6297   0.8787     H
H       0.3505   0.8703   0.3787     H
N        0.357   0.1812   0.5683     N
N        0.357   0.3188   0.0683     N
C       0.3599   0.1656   0.5059     C
C       0.3599   0.3344   0.0059     C
H       0.3663   0.2481   0.4887     H
H       0.3663   0.2519   0.9887     H
N       0.3865   0.1842    0.665     N
N       0.3865   0.3158    0.165     N
C        0.414   0.1706   0.6186     C
C        0.414   0.3294   0.1186     C
H       0.4162   0.7072   0.4703     H
H       0.4162   0.7928   0.9703     H
C       0.4204   0.5515   0.9978     C
C       0.4204   0.9485   0.4978     C
C       0.4327    0.081   0.5017     C
C       0.4327    0.419   0.0017     C
Zn     0.44981  0.16857  0.75536    Zn
Zn     0.44981  0.33143  0.25536    Zn
N       0.4581   0.5529   0.5619     N
N       0.4581   0.9471   0.0619     N
H       0.4639   0.0336   0.1384     H
H       0.4639   0.4664   0.6384     H
H        0.469   0.1928   0.3845     H
H        0.469   0.3072   0.8845     H
H       0.4706   0.1542   0.6204     H
H       0.4706   0.3458   0.1204     H
C       0.4724   0.7259    0.495     C
C       0.4724   0.7741    0.995     C
C       0.4738   0.5415   0.6199     C
C       0.4738   0.9585   0.1199     C
N       0.4811   0.6742   0.5554     N
N       0.4811   0.8258   0.0554     N
H       0.4867   0.1855   0.0233     H
H       0.4867   0.3145   0.5233     H
C       0.4867   0.6298   0.9971     C
C       0.4867   0.8702   0.4971     C
C       0.4901   0.2248    0.891     C
C       0.4901   0.2752    0.391     C
N       0.4946   0.1465   0.8487     N
N       0.4946   0.3535   0.3487     N
N       0.5054   0.6465   0.6513     N
N       0.5054   0.8535   0.1513     N
C       0.5099   0.7248    0.609     C
C       0.5099   0.7752    0.109     C
C       0.5133   0.1298   0.5029     C
C       0.5133   0.3702   0.0029     C
H       0.5133   0.6855   0.4767     H
H       0.5133   0.8145   0.9767     H
N       0.5189   0.1742   0.9446     N
N       0.5189   0.3258   0.4446     N
C       0.5262   0.0415   0.8801     C
C       0.5262   0.4585   0.3801     C
C       0.5276   0.2259    0.005     C
C       0.5276   0.2741    0.505     C
H       0.5294   0.6542   0.8796     H
H       0.5294   0.8458   0.3796     H
H        0.531   0.6928   0.1155     H
H        0.531   0.8072   0.6155     H
H       0.5361   0.5336   0.3616     H
H       0.5361   0.9664   0.8616     H
N       0.5419   0.0529   0.9381     N
N       0.5419   0.4471   0.4381     N
Zn     0.55019  0.66857  0.74464    Zn
Zn     0.55019  0.83143  0.24464    Zn
C       0.5673    0.581   0.9983     C
C       0.5673    0.919   0.4983     C
C       0.5796   0.0515   0.5022     C
C       0.5796   0.4485   0.0022     C
H       0.5838   0.2072   0.0297     H
H       0.5838   0.2928   0.5297     H
C        0.586   0.6706   0.8814     C
C        0.586   0.8294   0.3814     C
N       0.6135   0.6842    0.835     N
N       0.6135   0.8158    0.335     N
H       0.6337   0.7481   0.0113     H
H       0.6337   0.7519   0.5113     H
C       0.6401   0.6656   0.9941     C
C       0.6401   0.8344   0.4941     C
N        0.643   0.6812   0.9317     N
N        0.643   0.8188   0.4317     N
H       0.6495   0.1297   0.6213     H
H       0.6495   0.3703   0.1213     H
O       0.6572   0.5528   0.7398     O
O       0.6572   0.9472   0.2398     O
H       0.6575   0.1884   0.4823     H
H       0.6575   0.3116   0.9823     H
H       0.6635   0.2428   0.3349     H
H       0.6635   0.2572   0.8349     H
C        0.665   0.1053   0.5013     C
C        0.665   0.3947   0.0013     C
C       0.6712    0.706   0.3606     C
C       0.6712    0.794   0.8606     C
O       0.6866   0.0128   0.1488     O
O       0.6866   0.4872   0.6488     O
N       0.6878    0.708     0.42     N
N       0.6878    0.792     0.92     N
H       0.6917   0.0504   0.4774     H
H       0.6917   0.4496   0.9774     H
H        0.692   0.6463   0.3382     H
H        0.692   0.8537   0.8382     H
H       0.6928   0.6286   0.0169     H
H       0.6928   0.8714   0.5169     H
C       0.7008     0.66     0.86     C
C       0.7008     0.84     0.36     C
C       0.7039   0.1318   0.6153     C
C       0.7039   0.3682   0.1153     C
O       0.7046   0.1578   0.2307     O
O       0.7046   0.3422   0.7307     O
S      0.71138  0.02555  0.21231     S
S      0.71138  0.47445  0.71231     S
C        0.713    0.222   0.8585     C
C        0.713    0.278   0.3585     C
N       0.7179    0.651   0.9182     N
N       0.7179    0.849   0.4182     N
N       0.7214   0.1172   0.5629     N
N       0.7214   0.3828   0.0629     N
N       0.7264    0.207   0.9158     N
N       0.7264    0.293   0.4158     N
H       0.7407   0.6507   0.8376     H
H       0.7407   0.8493   0.3376     H
N       0.7717   0.1495   0.6575     N
N       0.7717   0.3505   0.1575     N
N       0.7775   0.1817   0.8358     N
N       0.7775   0.3183   0.3358     N
Zn     0.78595  0.17571   0.7481    Zn
Zn     0.78595  0.32429   0.2481    Zn
H       0.8002   0.5936   0.4927     H
H       0.8002   0.9064   0.9927     H
O       0.8012   0.5126   0.7369     O
O       0.8012   0.9874   0.2369     O
H       0.8041    0.077    0.011     H
H       0.8041    0.423    0.511     H
N       0.8043   0.1569   0.9316     N
N       0.8043   0.3431   0.4316     N
N       0.8067   0.1288   0.5704     N
N       0.8067   0.3712   0.0704     N
C       0.8318   0.1409   0.8837     C
C       0.8318   0.3591   0.3837     C
C       0.8335   0.1489   0.6282     C
C       0.8335   0.3511   0.1282     C
C       0.8421   0.1298   0.9949     C
C       0.8421   0.3702   0.4949     C
H       0.8436   0.7184   0.4778     H
H       0.8436   0.7816   0.9778     H
C       0.8502   0.6467   0.5051     C
C       0.8502   0.8533   0.0051     C
H       0.8514   0.2086   0.0176     H
H       0.8514   0.2914   0.5176     H
H       0.8516   0.5436   0.6176     H
H       0.8516   0.9564   0.1176     H
N       0.8566    0.693   0.5659     N
N       0.8566    0.807   0.0659     N
C       0.8568   0.6314   0.6152     C
C       0.8568   0.8686   0.1152     C
N       0.8618   0.6818   0.0777     N
N       0.8618   0.8182   0.5777     N
N       0.8651   0.7089   0.6609     N
N       0.8651   0.7911   0.1609     N
C       0.8668   0.6759   0.1349     C
C       0.8668   0.8241   0.6349     C
H       0.8712   0.5997    0.156     H
H       0.8712   0.9003    0.656     H
Zn     0.88092  0.67251  0.75114    Zn
Zn     0.88092  0.82749  0.25114    Zn
H       0.8838   0.1048   0.8836     H
H       0.8838   0.3952   0.3836     H
H       0.8903   0.1616   0.6473     H
H       0.8903   0.3384   0.1473     H
H       0.8942   0.0411   0.3574     H
H       0.8942   0.4589   0.8574     H
C       0.9141   0.5358   0.8755     C
C       0.9141   0.9642   0.3755     C
N       0.9189   0.6418    0.844     N
N       0.9189   0.8582    0.344     N
C       0.9239   0.0631   0.0006     C
C       0.9239   0.4369   0.5006     C
C       0.9271   0.5712   0.5009     C
C       0.9271   0.9288   0.0009     C
H       0.9379   0.1902    0.488     H
H       0.9379   0.3098    0.988     H
N       0.9392   0.5492   0.9331     N
N       0.9392   0.9508   0.4331     N
C       0.9523   0.7223   0.8867     C
C       0.9523   0.7777   0.3867     C
H        0.965   0.6936     0.38     H
H        0.965   0.8064     0.88     H
N       0.9655   0.6712    0.939     N
N       0.9655   0.8288    0.439     N
H       0.9734   0.6877   0.0271     H
H       0.9734   0.8123   0.5271     H
C       0.9959     0.22   0.5009     C
C       0.9959     0.28   0.0009     C
C       0.9971   0.1326   0.0002     C
C       0.9971   0.3674   0.5002     C
