data_I
_chemical_name_common  '/home/zhangsd/repos/MofS-CGCNN/ML/data/TSD/clean_cifs/WEMNAF_clean'
_cell_length_a  8.91000
_cell_length_b 12.00700
_cell_length_c 12.52600
_cell_angle_alpha 77.70800
_cell_angle_beta  76.62900
_cell_angle_gamma 76.37800
_space_group_name_H-M_alt      'P 1'


loop_
_space_group_symop_operation_xyz
  'x, y, z' 

loop_
_atom_site_label
_atom_site_fract_x
_atom_site_fract_y
_atom_site_fract_z
_atom_site_type_symbol
Zn         0.0      0.0      0.0    Zn
C       0.0017   0.5099   0.6092     C
C       0.0018   0.5187   0.7281     C
N       0.0159   0.1037    0.847     N
H       0.0204   0.4001   0.2641     H
H       0.0232   0.6047   0.0551     H
N       0.0284   0.7943   0.3173     N
S      0.05323   0.2002  0.14001     S
C       0.0723   0.8724   0.2306     C
O       0.0732   0.1314   0.0526     O
C       0.0831   0.3995   0.4569     C
C        0.087   0.4103   0.5654     C
N       0.0944   0.2334   0.7092     N
H       0.1053    0.484   0.7451     H
C       0.1083   0.5946   0.0898     C
H       0.1099   0.2709   0.3652     H
N       0.1161   0.5403   0.1923     N
O       0.1183   0.7607   0.8203     O
C       0.1193   0.1722   0.8058     C
O       0.1217   0.1314   0.2337     O
O       0.1251   0.3011   0.0955     O
H       0.1572   0.9074   0.2245     H
C       0.1698   0.2883   0.4131     C
H       0.1765   0.2246   0.4753     H
C        0.187   0.3155   0.6345     C
H       0.1989   0.1765   0.8406     H
H       0.2337   0.3507   0.6783     H
N        0.242   0.6328   0.0436     N
O       0.2486   0.9086   0.9474     O
N       0.2564   0.5398   0.2162     N
H       0.2716   0.2736   0.5852     H
Zn     0.28638  0.74675  0.90393    Zn
C       0.3269   0.5967   0.1255     C
N       0.3286   0.2962   0.3505     N
H       0.3444   0.2542   0.2009     H
H       0.3471   0.6615   0.6734     H
H       0.3504   0.0652   0.0075     H
C       0.3853   0.8974   0.9718     C
C       0.3942   0.2758   0.2487     C
H       0.4272   0.6112   0.1178     H
C       0.4281   0.9996   0.9965     C
N       0.4337   0.3262   0.3972     N
C       0.4405   0.6782   0.6812     C
N       0.4582   0.7093   0.7747     N
O       0.4786   0.8028   0.9713     O
O       0.5214   0.1972   0.0287     O
N       0.5418   0.2907   0.2253     N
C       0.5595   0.3218   0.3188     C
N       0.5663   0.6738   0.6028     N
C       0.5719   0.0004   0.0035     C
H       0.5728   0.3888   0.8822     H
C       0.6058   0.7242   0.7513     C
C       0.6147   0.1026   0.0282     C
H       0.6496   0.9348   0.9925     H
H       0.6529   0.3385   0.3266     H
H       0.6556   0.7458   0.7991     H
N       0.6714   0.7038   0.6495     N
C       0.6731   0.4033   0.8745     C
Zn     0.71362  0.25325  0.09607    Zn
H       0.7284   0.7264   0.4148     H
N       0.7436   0.4602   0.7838     N
O       0.7514   0.0914   0.0526     O
N        0.758   0.3672   0.9564     N
H       0.7663   0.6493   0.3217     H
H       0.8011   0.8235   0.1594     H
C        0.813   0.6845   0.3655     C
H       0.8235   0.7754   0.5247     H
C       0.8302   0.7117   0.5869     C
H       0.8428   0.0926   0.7755     H
O       0.8749   0.6989   0.9045     O
O       0.8783   0.8686   0.7663     O
C       0.8807   0.8278   0.1942     C
O       0.8817   0.2393   0.1797     O
N       0.8839   0.4597   0.8077     N
H       0.8901   0.7291   0.6348     H
C       0.8917   0.4054   0.9102     C
H       0.8947    0.516   0.2549     H
N       0.9056   0.7666   0.2908     N
C        0.913   0.5897   0.4346     C
C       0.9169   0.6005   0.5431     C
O       0.9268   0.8686   0.9474     O
C       0.9277   0.1276   0.7694     C
S      0.94677   0.7998  0.85999     S
N       0.9716   0.2057   0.6827     N
H       0.9768   0.3953   0.9449     H
H       0.9796   0.5999   0.7359     H
N       0.9841   0.8963    0.153     N
C       0.9982   0.4813   0.2719     C
C       0.9983   0.4901   0.3908     C
