data_I
_chemical_name_common  '/home/zhangsd/repos/MofS-CGCNN/ML/data/TSD/clean_cifs/WEVQIX_clean'
_cell_length_a 14.59500
_cell_length_b 14.59500
_cell_length_c 15.26700
_cell_angle_alpha 90.00000
_cell_angle_beta  90.00000
_cell_angle_gamma 120.00000
_space_group_name_H-M_alt      'P 1'


loop_
_space_group_symop_operation_xyz
  'x, y, z' 

loop_
_atom_site_label
_atom_site_fract_x
_atom_site_fract_y
_atom_site_fract_z
_atom_site_type_symbol
Cu         0.0      0.5      0.0    Cu
Cu         0.0      0.5      0.5    Cu
O       0.0536   0.4431   0.0895     O
O       0.0536   0.4431   0.9105     O
O       0.0536   0.6105   0.4105     O
O       0.0536   0.6105   0.5895     O
H       0.0873   0.3705    0.232     H
H       0.0873   0.3705    0.768     H
H       0.0873   0.7168    0.268     H
H       0.0873   0.7168    0.732     H
C       0.1311   0.4863   0.1389     C
C       0.1311   0.4863   0.8611     C
C       0.1311   0.6448   0.3611     C
C       0.1311   0.6448   0.6389     C
C       0.1495    0.413   0.1964     C
C       0.1495    0.413   0.8036     C
C       0.1495   0.7365   0.3036     C
C       0.1495   0.7365   0.6964     C
H       0.1623   0.3658   0.1604     H
H       0.1623   0.3658   0.8396     H
H       0.1623   0.7965   0.3396     H
H       0.1623   0.7965   0.6604     H
O        0.196   0.5837  0.14505     O
O        0.196   0.5837  0.85495     O
O        0.196   0.6123  0.35495     O
O        0.196   0.6123  0.64505     O
H       0.2035   0.3658   0.3396     H
H       0.2035   0.3658   0.6604     H
H       0.2035   0.8377   0.1604     H
H       0.2035   0.8377   0.8396     H
O       0.2362   0.4724     0.25     O
O       0.2362   0.4724     0.75     O
O       0.2362   0.7638     0.25     O
O       0.2362   0.7638     0.75     O
C       0.2635    0.413   0.3036     C
C       0.2635    0.413   0.6964     C
C       0.2635   0.8505   0.1964     C
C       0.2635   0.8505   0.8036     C
H       0.2832   0.3705    0.268     H
H       0.2832   0.3705    0.732     H
H       0.2832   0.9127    0.232     H
H       0.2832   0.9127    0.768     H
Y      0.33333  0.66666     0.25     Y
Y      0.33333  0.66666     0.75     Y
C       0.3552   0.4863   0.3611     C
C       0.3552   0.4863   0.6389     C
C       0.3552   0.8689   0.1389     C
C       0.3552   0.8689   0.8611     C
H       0.3658   0.1623   0.3396     H
H       0.3658   0.1623   0.6604     H
H       0.3658   0.2035   0.1604     H
H       0.3658   0.2035   0.8396     H
H       0.3705   0.0873    0.268     H
H       0.3705   0.0873    0.732     H
H       0.3705   0.2832    0.232     H
H       0.3705   0.2832    0.768     H
O       0.3877   0.5837  0.35495     O
O       0.3877   0.5837  0.64505     O
O       0.3877    0.804  0.14505     O
O       0.3877    0.804  0.85495     O
O       0.3895   0.4431   0.4105     O
O       0.3895   0.4431   0.5895     O
O       0.3895   0.9464   0.0895     O
O       0.3895   0.9464   0.9105     O
C        0.413   0.1495   0.3036     C
C        0.413   0.1495   0.6964     C
C        0.413   0.2635   0.1964     C
C        0.413   0.2635   0.8036     C
O       0.4163   0.6123  0.14505     O
O       0.4163   0.6123  0.85495     O
O       0.4163    0.804  0.35495     O
O       0.4163    0.804  0.64505     O
O       0.4431   0.0536   0.4105     O
O       0.4431   0.0536   0.5895     O
O       0.4431   0.3895   0.0895     O
O       0.4431   0.3895   0.9105     O
O       0.4724   0.2362     0.25     O
O       0.4724   0.2362     0.75     O
C       0.4863   0.1311   0.3611     C
C       0.4863   0.1311   0.6389     C
C       0.4863   0.3552   0.1389     C
C       0.4863   0.3552   0.8611     C
Cu         0.5     -0.0      0.0    Cu
Cu         0.5     -0.0      0.5    Cu
Cu         0.5      0.5      0.0    Cu
Cu         0.5      0.5      0.5    Cu
C       0.5137   0.6448   0.1389     C
C       0.5137   0.6448   0.8611     C
C       0.5137   0.8689   0.3611     C
C       0.5137   0.8689   0.6389     C
O       0.5276   0.7638     0.25     O
O       0.5276   0.7638     0.75     O
O       0.5569   0.6105   0.0895     O
O       0.5569   0.6105   0.9105     O
O       0.5569   0.9464   0.4105     O
O       0.5569   0.9464   0.5895     O
O       0.5837    0.196  0.35495     O
O       0.5837    0.196  0.64505     O
O       0.5837   0.3877  0.14505     O
O       0.5837   0.3877  0.85495     O
C        0.587   0.7365   0.1964     C
C        0.587   0.7365   0.8036     C
C        0.587   0.8505   0.3036     C
C        0.587   0.8505   0.6964     C
O       0.6105   0.0536   0.0895     O
O       0.6105   0.0536   0.9105     O
O       0.6105   0.5569   0.4105     O
O       0.6105   0.5569   0.5895     O
O       0.6123    0.196  0.14505     O
O       0.6123    0.196  0.85495     O
O       0.6123   0.4163  0.35495     O
O       0.6123   0.4163  0.64505     O
H       0.6295   0.7168    0.232     H
H       0.6295   0.7168    0.768     H
H       0.6295   0.9127    0.268     H
H       0.6295   0.9127    0.732     H
H       0.6342   0.7965   0.1604     H
H       0.6342   0.7965   0.8396     H
H       0.6342   0.8377   0.3396     H
H       0.6342   0.8377   0.6604     H
C       0.6448   0.1311   0.1389     C
C       0.6448   0.1311   0.8611     C
C       0.6448   0.5137   0.3611     C
C       0.6448   0.5137   0.6389     C
Y      0.66667  0.33334     0.25     Y
Y      0.66667  0.33334     0.75     Y
H       0.7168   0.0873    0.232     H
H       0.7168   0.0873    0.768     H
H       0.7168   0.6295    0.268     H
H       0.7168   0.6295    0.732     H
C       0.7365   0.1495   0.1964     C
C       0.7365   0.1495   0.8036     C
C       0.7365    0.587   0.3036     C
C       0.7365    0.587   0.6964     C
O       0.7638   0.2362     0.25     O
O       0.7638   0.2362     0.75     O
O       0.7638   0.5276     0.25     O
O       0.7638   0.5276     0.75     O
H       0.7965   0.1623   0.1604     H
H       0.7965   0.1623   0.8396     H
H       0.7965   0.6342   0.3396     H
H       0.7965   0.6342   0.6604     H
O        0.804   0.3877  0.35495     O
O        0.804   0.3877  0.64505     O
O        0.804   0.4163  0.14505     O
O        0.804   0.4163  0.85495     O
H       0.8377   0.2035   0.3396     H
H       0.8377   0.2035   0.6604     H
H       0.8377   0.6342   0.1604     H
H       0.8377   0.6342   0.8396     H
C       0.8505   0.2635   0.3036     C
C       0.8505   0.2635   0.6964     C
C       0.8505    0.587   0.1964     C
C       0.8505    0.587   0.8036     C
C       0.8689   0.3552   0.3611     C
C       0.8689   0.3552   0.6389     C
C       0.8689   0.5137   0.1389     C
C       0.8689   0.5137   0.8611     C
H       0.9127   0.2832    0.268     H
H       0.9127   0.2832    0.732     H
H       0.9127   0.6295    0.232     H
H       0.9127   0.6295    0.768     H
O       0.9464   0.3895   0.4105     O
O       0.9464   0.3895   0.5895     O
O       0.9464   0.5569   0.0895     O
O       0.9464   0.5569   0.9105     O
