data_I
_chemical_name_common  '/home/zhangsd/repos/MofS-CGCNN/ML/data/TSD/clean_cifs/WIFBAQ_clean'
_cell_length_a 11.91440
_cell_length_b 14.01460
_cell_length_c 15.76860
_cell_angle_alpha 91.90170
_cell_angle_beta  112.19700
_cell_angle_gamma 90.00000
_space_group_name_H-M_alt      'P 1'


loop_
_space_group_symop_operation_xyz
  'x, y, z' 

loop_
_atom_site_label
_atom_site_fract_x
_atom_site_fract_y
_atom_site_fract_z
_atom_site_type_symbol
Cd     0.00656  0.87246  0.45452    Cd
O      0.03098   0.7131  0.41036     O
H       0.0541   0.6373   0.2566     H
H       0.0696   0.0901    0.759     H
O      0.08298   0.0269  0.46276     O
C      0.08816   0.7375  0.36252     C
H       0.0926     0.84    0.671     H
H       0.1025   0.1861   0.2844     H
O      0.11079   0.8229  0.35478     O
O      0.12011   0.1782  0.46182     O
C      0.12536   0.6591  0.30832     C
C      0.12622    0.095  0.43464     C
H       0.1326   0.5522   0.3964     H
H       0.1359   0.0216   0.3244     H
C      0.14788    0.097  0.76016     C
N      0.16185   0.1049   0.6803     N
C      0.16929   0.8479  0.66938     C
N      0.17811   0.8546  0.58802     N
C       0.1814   0.0734   0.3652     C
H       0.1815   0.4189   0.8044     H
H       0.1819   0.6861   0.2844     H
C      0.18296   0.1591  0.30832     C
C       0.1838   0.5734   0.3652     C
H       0.1849   0.3073    0.808     H
H       0.1885   0.5216   0.3244     H
H       0.1935   0.3703    0.661     H
H       0.2025   0.1373   0.2566     H
C       0.2252   0.3656   0.8374     C
H       0.2282   0.3697   0.8992     H
H       0.2285   0.0925   0.8974     H
H       0.2352   0.3653   0.5312     H
C      0.24254   0.0986  0.84368     C
O      0.24399   0.3229  0.35478     O
H       0.2563   0.8485   0.8056     H
H       0.2638   0.0522   0.3964     H
C      0.26708   0.8519  0.75036     C
C      0.27318   0.3653  0.66516     C
C       0.2741    0.111   0.6832     C
C      0.27436   0.2375  0.36252     C
H       0.2856   0.1141   0.6282     H
C      0.28821   0.8621  0.58762     C
H        0.296   0.8653   0.5312     H
C      0.29941   0.3621  0.58762     C
H       0.3009   0.5676   0.9074     H
H       0.3082   0.6792   0.9066     H
C      0.30842    0.595  0.43464     C
H       0.3106   0.4099    0.241     H
H       0.3107   0.6169   0.7626     H
H        0.329   0.1303   0.1008     H
H       0.3311   0.4075   0.1026     H
O      0.34171   0.6782  0.46182     O
H       0.3426   0.6141   0.6282     H
C      0.34709   0.6234  0.93778     C
C      0.34938   0.3669  0.83876     C
H        0.352   0.6276      0.0     H
H        0.352   0.8724      0.0     H
C      0.35899   0.1094  0.84638     C
C      0.36769   0.3611  0.74978     C
C      0.37456   0.1131  0.76372     C
H       0.3769   0.1927    0.192     H
H       0.3771   0.0811   0.1956     H
O      0.37938   0.2131  0.41036     O
O      0.37978   0.5269  0.46276     O
C      0.38209   0.8611  0.74978     C
C      0.38772    0.403  0.23984     C
C       0.3878   0.1344   0.1626     C
C      0.38916   0.6131  0.76372     C
C      0.39198   0.8653  0.66516     C
H       0.3935   0.9324   0.0926     H
C      0.39886   0.4014  0.15632     C
H       0.4016   0.8208   0.0934     H
C       0.4091    0.611   0.6832     C
C      0.40931   0.8766  0.06222     C
N      0.40991   0.3546  0.58802     N
H       0.4216     0.66    0.329     H
N      0.42775   0.3799   0.9925     N
N      0.43525   0.1201   0.0075     N
N      0.44546   0.3715  0.90912     N
Cd     0.44796  0.37246  0.45452    Cd
H       0.4507   0.6515   0.1944     H
H       0.4519   0.1169   0.7626     H
N      0.46366   0.8715  0.90912     N
C       0.4645   0.1171    0.937     C
H       0.4675   0.8703    0.661     H
C       0.4725   0.6171    0.937     C
N      0.48155   0.3951   0.3197     N
C      0.48328   0.3519  0.75036     C
C      0.48739   0.6094  0.84638     C
C      0.48938   0.8669  0.83876     C
C      0.49991   0.6521  0.33062     C
C      0.50009   0.3479  0.66938     C
C      0.51062   0.1331  0.16124     C
C      0.51261   0.3906  0.15362     C
C      0.51672   0.6481  0.24964     C
N      0.51845   0.6049   0.6803     N
C       0.5275   0.3829    0.063     C
H       0.5325   0.1297    0.339     H
C       0.5355   0.8829    0.063     C
N      0.53634   0.1285  0.09088     N
H       0.5481   0.8831   0.2374     H
H       0.5493   0.3485   0.8056     H
Cd     0.55204  0.62754  0.54548    Cd
N      0.55454   0.6285  0.09088     N
N      0.56475   0.8799   0.9925     N
N      0.57225   0.6201   0.0075     N
H       0.5784     0.34    0.671     H
N      0.59009   0.6454  0.41198     N
C      0.59069   0.1234  0.93778     C
C       0.5909    0.389   0.3168     C
H       0.5984   0.1792   0.9066     H
C      0.60114   0.5986  0.84368     C
H       0.6065   0.0676   0.9074     H
C      0.60802   0.1347  0.33484     C
C      0.61084   0.3869  0.23628     C
C       0.6122   0.8656   0.8374     C
C      0.61228    0.597  0.76016     C
C      0.61791   0.1389  0.25022     C
O      0.62022   0.4731  0.53724     O
O      0.62062   0.7869  0.58964     O
H       0.6229   0.9189   0.8044     H
H       0.6231   0.8073    0.808     H
C      0.62544   0.8869  0.23628     C
C      0.63231   0.6389  0.25022     C
C      0.64101   0.8906  0.15362     C
H        0.648   0.1276     -0.0     H
H        0.648   0.3724      0.0     H
C      0.65062   0.6331  0.16124     C
C      0.65291   0.3766  0.06222     C
H       0.6574   0.3859   0.3718     H
O      0.65829   0.3218  0.53818     O
H       0.6689   0.5925   0.8974     H
H        0.671   0.8697   0.8992     H
H       0.6893   0.3831   0.2374     H
H       0.6894   0.5901    0.759     H
C      0.69158    0.405  0.56536     C
H       0.6918   0.3208   0.0934     H
H       0.6991   0.4324   0.0926     H
C      0.70059   0.6379  0.41238     C
H        0.704   0.1347   0.4688     H
C      0.71179   0.1379  0.41238     C
H       0.7144   0.8859   0.3718     H
C      0.72564   0.7625  0.63748     C
C       0.7259    0.889   0.3168     C
C      0.72682   0.6347  0.33484     C
C      0.73292   0.1481  0.24964     C
H       0.7362   0.9478   0.6036     H
H       0.7437   0.1515   0.1944     H
O      0.75601   0.6771  0.64522     O
C      0.75746   0.9014  0.15632     C
H       0.7648   0.6347   0.4688     H
H       0.7715   0.9075   0.1026     H
H       0.7718   0.6303   0.1008     H
C       0.7748   0.6344   0.1626     C
H       0.7975   0.8627   0.7434     H
H       0.8065   0.6297    0.339     H
H       0.8115   0.4784   0.6756     H
H       0.8151   0.6927    0.192     H
C       0.8162   0.4266   0.6348     C
C      0.81704   0.8409  0.69168     C
H       0.8181   0.3139   0.7156     H
H       0.8185   0.5811   0.1956     H
C       0.8186   0.9266   0.6348     C
N      0.82189   0.1454  0.41198     N
C      0.83071   0.1521  0.33062     C
N      0.83815   0.8951   0.3197     N
C      0.85212    0.903  0.23984     C
H       0.8641   0.9784   0.6756     H
H       0.8674   0.4478   0.6036     H
C      0.87378    0.905  0.56536     C
C      0.87464   0.3409  0.69168     C
O      0.87989   0.8218  0.53818     O
O      0.88921   0.1771  0.64522     O
H       0.8975   0.8139   0.7156     H
H       0.9074     0.16    0.329     H
C      0.91184   0.2625  0.63748     C
O      0.91702   0.9731  0.53724     O
H       0.9304   0.9099    0.241     H
H       0.9459   0.3627   0.7434     H
O      0.96902   0.2869  0.58964     O
Cd     0.99344  0.12754  0.54548    Cd
