data_I
_chemical_name_common  '/home/zhangsd/repos/MofS-CGCNN/ML/data/TSD/clean_cifs/WIPLOY_clean'
_cell_length_a 10.98400
_cell_length_b 16.10100
_cell_length_c 19.69200
_cell_angle_alpha 74.14900
_cell_angle_beta  74.03500
_cell_angle_gamma 72.05400
_space_group_name_H-M_alt      'P 1'


loop_
_space_group_symop_operation_xyz
  'x, y, z' 

loop_
_atom_site_label
_atom_site_fract_x
_atom_site_fract_y
_atom_site_fract_z
_atom_site_type_symbol
C       0.0055   0.1259    0.751     C
C       0.0097   0.5705   0.4445     C
O       0.0107   0.9763    0.757     O
C       0.0116   0.7184   0.2514     C
H       0.0131   0.6192   0.4062     H
C       0.0378   0.5635   0.2353     C
C       0.0404   0.4949   0.5602     C
H       0.0447   0.4183   0.7757     H
H       0.0493    0.636   0.6128     H
O       0.0543   0.2894   0.1394     O
C       0.0552   0.5669   0.5036     C
Eu      0.0562  0.82372  0.77342    Eu
C       0.0592   0.9465    0.244     C
H       0.0654   0.4911   0.6026     H
C       0.0698   0.7859    0.247     C
H       0.0718   0.4359   0.2288     H
C       0.0879   0.6248   0.2496     C
O       0.0883   0.7103   0.7011     O
C       0.0943   0.6651   0.5703     C
C       0.1093   0.4755   0.2374     C
C       0.1113   0.6382   0.5063     C
C       0.1224   0.7622   0.6424     C
C       0.1272   0.2575     0.74     C
O       0.1334   0.1407   0.2778     O
O       0.1362   0.8383   0.6412     O
C       0.1405   0.1042   0.7453     C
C        0.143   0.7347   0.5723     C
O       0.1434   0.1506   0.1269     O
C       0.1437   0.2316   0.1086     C
H       0.1599   0.7725   0.2426     H
H       0.1616   0.2948   0.2686     H
H       0.1695   0.3015   0.7345     H
O       0.1791   0.9262   0.2391     O
C       0.1799   0.6809   0.4436     C
H       0.1895   0.0457   0.7454     H
H       0.1943   0.6626   0.4005     H
C       0.2014   0.1703   0.7395     C
C       0.2069   0.7793    0.509     C
C       0.2168   0.5953    0.262     C
C       0.2277   0.7517   0.4446     C
C       0.2331   0.4444   0.2515     C
H       0.2361   0.8277   0.5093     H
C       0.2508   0.2589   0.0491     C
C        0.252   0.2811   0.2631     C
H       0.2543    0.363   0.0852     H
H       0.2556   0.6351   0.2693     H
C       0.2564   0.1192   0.2711     C
O       0.2721    0.863   0.7483     O
H        0.277   0.1647   0.9938     H
O       0.2805   0.7209   0.7734     O
C       0.2848    0.507   0.2634     C
C       0.2948   0.3304   0.0491     C
C       0.2976    0.798   0.3748     C
C        0.307   0.2125   0.9944     C
C       0.3098   0.3493   0.2545     C
O       0.3195   0.8741   0.3715     O
C       0.3231   0.1924    0.264     C
O       0.3266   0.0426   0.2733     O
O       0.3321   0.7652     0.32     O
C       0.3362    0.783   0.7586     C
C       0.3449   0.1452   0.7358     C
H       0.3688   0.4887   0.2725     H
Eu     0.39854  0.90186    0.239    Eu
C       0.3989   0.3551    0.996     C
O       0.4036   0.2054   0.7203     O
O       0.4039   0.0642   0.7494     O
C       0.4096   0.2371   0.9395     C
O        0.417   0.1311   0.8721     O
O       0.4242   0.7989   0.1615     O
H       0.4368   0.4039   0.1054     H
C       0.4444   0.3269   0.2461     C
C         0.45   0.4296    0.997     C
C       0.4525   0.3077   0.9414     C
C       0.4565   0.1717   0.2588     C
C       0.4614   0.4427   0.0627     C
C       0.4691   0.1875   0.8804     C
H       0.4801   0.6758   0.0954     H
C       0.4819   0.7615   0.7507     C
H       0.4868   0.3716   0.2382     H
H       0.4873   0.4788   0.8909     H
C       0.4911   0.4868   0.9352     C
H       0.4949   0.8872   0.7383     H
H       0.5051   0.1128   0.2617     H
C       0.5089   0.5132   0.0648     C
H       0.5127   0.5212   0.1091     H
H       0.5132   0.6284   0.7618     H
C       0.5181   0.2385   0.2493     C
H       0.5199   0.3242   0.9046     H
C       0.5309   0.8125   0.1196     C
C       0.5386   0.5573   0.9373     C
C       0.5435   0.8283   0.7412     C
C       0.5475   0.6923   0.0586     C
C         0.55   0.5704    0.003     C
C       0.5556   0.6731   0.7539     C
H       0.5632   0.5961   0.8946     H
O       0.5758   0.2011   0.8385     O
O        0.583   0.8689   0.1279     O
C       0.5904   0.7629   0.0605     C
O       0.5961   0.9358   0.2506     O
O       0.5964   0.7946   0.2797     O
C       0.6011   0.6449    0.004     C
Eu     0.60146  0.09814    0.761    Eu
H       0.6312   0.5113   0.7275     H
C       0.6551   0.8548   0.2642     C
C       0.6638    0.217   0.2414     C
O       0.6679   0.2348     0.68     O
O       0.6734   0.9574   0.7267     O
C       0.6769   0.8076    0.736     C
O       0.6805   0.1259   0.6285     O
C       0.6902   0.6507   0.7455     C
C        0.693   0.7875   0.0056     C
C       0.7024    0.202   0.6252     C
C       0.7052   0.6696   0.9509     C
C       0.7152    0.493   0.7366     C
O       0.7195   0.2791   0.2266     O
H        0.723   0.8353   0.0062     H
O       0.7279    0.137   0.2517     O
C       0.7436   0.8808   0.7289     C
H       0.7444   0.3649   0.7307     H
H       0.7457    0.637   0.9148     H
C        0.748   0.7189   0.7369     C
C       0.7492   0.7411   0.9509     C
H       0.7639   0.1723   0.4907     H
C       0.7669   0.5556   0.7485     C
C       0.7723   0.2483   0.5554     C
C       0.7832   0.4047    0.738     C
C       0.7931   0.2207    0.491     C
C       0.7986   0.8297   0.2605     C
H       0.8057   0.3374   0.5995     H
H       0.8105   0.9543   0.2546     H
C       0.8201   0.3191   0.5564     C
O       0.8209   0.0738   0.7609     O
H       0.8305   0.6985   0.2655     H
H       0.8384   0.7052   0.7314     H
H       0.8401   0.2275   0.7574     H
C       0.8563   0.7684   0.8914     C
O       0.8566   0.8494   0.8731     O
C        0.857   0.2653   0.4277     C
C       0.8595   0.8958   0.2547     C
O       0.8638   0.1617   0.3588     O
O       0.8666   0.8593   0.7222     O
C       0.8728   0.7425     0.26     C
C       0.8776   0.2378   0.3576     C
C       0.8887   0.3618   0.4937     C
C       0.8907   0.5245   0.7626     C
C       0.9057   0.3349   0.4297     C
O       0.9117   0.2897   0.2989     O
C       0.9121   0.3752   0.7504     C
H       0.9282   0.5641   0.7712     H
C       0.9302   0.2141    0.753     C
H       0.9346   0.5089   0.3974     H
C       0.9408   0.0535    0.756     C
Eu      0.9438  0.17628  0.22658    Eu
C       0.9448   0.4331   0.4964     C
O       0.9457   0.7106   0.8606     O
H       0.9507    0.364   0.3872     H
H       0.9553   0.5817   0.2243     H
C       0.9596   0.5051   0.4398     C
C       0.9622   0.4365   0.7647     C
H       0.9869   0.3808   0.5938     H
C       0.9884   0.2816   0.7486     C
O       0.9893   0.0237    0.243     O
C       0.9903   0.4295   0.5555     C
C       0.9945   0.8741    0.249     C
