data_I
_chemical_name_common  '/home/zhangsd/repos/MofS-CGCNN/ML/data/TSD/clean_cifs/WIZDEP_clean'
_cell_length_a  6.32020
_cell_length_b 15.28430
_cell_length_c 15.28430
_cell_angle_alpha 61.86820
_cell_angle_beta  82.07730
_cell_angle_gamma 97.92270
_space_group_name_H-M_alt      'P 1'


loop_
_space_group_symop_operation_xyz
  'x, y, z' 

loop_
_atom_site_label
_atom_site_fract_x
_atom_site_fract_y
_atom_site_fract_z
_atom_site_type_symbol
O      0.04078  0.15114  0.35168     O
C      0.05707  0.53287  0.56884     C
Zn     0.05939  0.42343  0.26366    Zn
O      0.11036  0.50282  0.84886     O
O      0.11084  0.56369  0.63668     O
O      0.11565   0.7551  0.59947     O
H      0.11579  0.43356   0.0316     H
C       0.1284  0.83493  0.60628     C
C      0.13866  0.45195   0.4653     C
H      0.14739   0.0316  0.53484     H
C      0.18835   0.4798  0.53992     C
O      0.25248  0.36332  0.20037     O
C      0.26532  0.39372  0.44121     C
C      0.27173  0.46008  0.01972     C
O      0.28488  0.40053  0.35457     O
C      0.29145  0.01972   0.5202     C
C      0.29347  0.55879  0.83493     C
C      0.31329  0.91725  0.54805     C
H      0.31777  0.46516  0.56644     H
Zn     0.32305  0.26366  0.31291    Zn
O      0.36055  0.64543   0.7551     O
Zn     0.36404  0.68709  0.57657    Zn
C      0.37409  0.43116  0.10171     C
O      0.39246  0.35168  0.49718     O
C      0.39604   0.5347  0.91725     C
O      0.45285  0.20037  0.43631     O
C       0.4758  0.10171  0.46713     C
C       0.5242  0.89829  0.53287     C
O      0.54715  0.79963  0.56369     O
C      0.60396   0.4653  0.08275     C
O      0.60754  0.64832  0.50282     O
C      0.62591  0.56884  0.89829     C
Zn     0.63596  0.31291  0.42343    Zn
O      0.63945  0.35457   0.2449     O
Zn     0.67695  0.73634  0.68709    Zn
H      0.68223  0.53484  0.43356     H
C      0.68671  0.08275  0.45195     C
C      0.70653  0.44121  0.16507     C
C      0.70855  0.98028   0.4798     C
O      0.71512  0.59947  0.64543     O
C      0.72827  0.53992  0.98028     C
C      0.73468  0.60628  0.55879     C
O      0.74752  0.63668  0.79963     O
C      0.81165   0.5202  0.46008     C
H      0.85261   0.9684  0.46516     H
C      0.86134  0.54805   0.5347     C
C       0.8716  0.16507  0.39372     C
H      0.88421  0.56644   0.9684     H
O      0.88435   0.2449  0.40053     O
O      0.88916  0.43631  0.36332     O
O      0.88964  0.49718  0.15114     O
Zn     0.94061  0.57657  0.73634    Zn
C      0.94293  0.46713  0.43116     C
O      0.95922  0.84886  0.64832     O
