data_I
_chemical_name_common  '/home/zhangsd/repos/MofS-CGCNN/ML/data/TSD/clean_cifs/WOBHOL_clean'
_cell_length_a  6.86420
_cell_length_b 15.13830
_cell_length_c 15.13830
_cell_angle_alpha 62.24230
_cell_angle_beta  81.30680
_cell_angle_gamma 98.69320
_space_group_name_H-M_alt      'P 1'


loop_
_space_group_symop_operation_xyz
  'x, y, z' 

loop_
_atom_site_label
_atom_site_fract_x
_atom_site_fract_y
_atom_site_fract_z
_atom_site_type_symbol
O      0.01903  0.15431  0.37627     O
Zn     0.02047    0.409  0.26273    Zn
C      0.06804  0.54261  0.56025     C
O      0.11214  0.56698  0.63442     O
C      0.11331  0.44232  0.47172     C
O      0.13528  0.53058  0.84569     O
H      0.14006  0.44534  0.02913     H
C      0.15471  0.83022  0.60463     C
H      0.16919  0.02913  0.52553     H
O      0.17513  0.73892  0.64575     O
O      0.17912  0.35425  0.38467     O
C      0.17923  0.48381  0.53433     C
C      0.24066  0.39537  0.43485     C
O      0.25344  0.36558   0.2014     O
Zn      0.2832  0.26273  0.32827    Zn
C      0.28644  0.46567  0.01814     C
C      0.30458  0.01814  0.51619     C
H      0.30528  0.47447  0.55466     H
C      0.32449  0.56515  0.83022     C
C      0.32901  0.91404  0.55768     C
C      0.37171  0.43975  0.10286     C
Zn     0.38853  0.67173    0.591    Zn
O       0.3953  0.37627  0.46942     O
C      0.41497  0.52828  0.91404     C
O      0.43621  0.61533  0.73892     O
O      0.45484   0.2014  0.43302     O
C      0.47457  0.10286  0.45739     C
C      0.52543  0.89714  0.54261     C
O      0.54516   0.7986  0.56698     O
O      0.56379  0.38467  0.26108     O
C      0.58503  0.47172  0.08596     C
O       0.6047  0.62373  0.53058     O
Zn     0.61147  0.32827    0.409    Zn
C      0.62829  0.56025  0.89714     C
C      0.67099  0.08596  0.44232     C
C      0.67551  0.43485  0.16978     C
H      0.69472  0.52553  0.44534     H
C      0.69542  0.98186  0.48381     C
C      0.71356  0.53433  0.98186     C
Zn      0.7168  0.73727  0.67173    Zn
O      0.74656  0.63442   0.7986     O
C      0.75934  0.60463  0.56515     C
C      0.82077  0.51619  0.46567     C
O      0.82088  0.64575  0.61533     O
O      0.82487  0.26108  0.35425     O
H      0.83081  0.97087  0.47447     H
C      0.84529  0.16978  0.39537     C
H      0.85994  0.55466  0.97087     H
O      0.86472  0.46942  0.15431     O
C      0.88669  0.55768  0.52828     C
O      0.88786  0.43302  0.36558     O
C      0.93196  0.45739  0.43975     C
Zn     0.97953    0.591  0.73727    Zn
O      0.98097  0.84569  0.62373     O
