data_I
_chemical_name_common  '/home/zhangsd/repos/MofS-CGCNN/ML/data/TSD/clean_cifs/WOBHOM_clean'
_cell_length_a 10.33490
_cell_length_b 11.89620
_cell_length_c 20.28940
_cell_angle_alpha 90.00000
_cell_angle_beta  90.00000
_cell_angle_gamma 90.00000
_space_group_name_H-M_alt      'P 1'


loop_
_space_group_symop_operation_xyz
  'x, y, z' 

loop_
_atom_site_label
_atom_site_fract_x
_atom_site_fract_y
_atom_site_fract_z
_atom_site_type_symbol
H       0.0116   0.6428   0.7861     H
H       0.0309   0.0269   0.7071     H
N        0.032   0.5755   0.8022     N
O       0.0413   0.1247   0.5246     O
H       0.0418   0.5802   0.8457     H
Zn     0.04438  0.41675  0.49026    Zn
H       0.0504   0.5052   0.2937     H
H        0.057   0.5112   0.6889     H
H       0.0603    0.553   0.1818     H
O       0.1152    0.457   0.4036     O
O       0.1192    0.838   0.0078     O
O        0.122   0.4547   0.5765     O
C       0.1292   0.5027   0.2716     C
C       0.1344   0.5315   0.2046     C
C       0.1379   0.5082    0.709     C
H       0.1393    0.932   0.1194     H
Zn     0.14246   0.6765  0.99072    Zn
C        0.147   0.1715   0.5135     C
C       0.1485   0.5384   0.7735     C
O       0.1604   0.2684   0.4912     O
O       0.1675   0.5875    0.073     O
O       0.1796    0.598   0.9068     O
H       0.2128   0.0391   0.6207     H
C       0.2217   0.4414   0.3779     C
C        0.224   0.9068   0.1068     C
C       0.2299   0.8934   0.0314     C
C       0.2325   0.4439   0.6025     C
H        0.234    0.968    0.011     H
C       0.2412   0.4701   0.3057     C
H       0.2417   0.8357   0.1274     H
C       0.2423   0.4735   0.6724     C
C       0.2577   0.5265   0.1724     C
H       0.2583   0.1643   0.6274     H
C       0.2588   0.5299   0.8057     C
H        0.266    0.032    0.511     H
C       0.2675   0.5561   0.1025     C
C       0.2701   0.1066   0.5314     C
C        0.276   0.0932   0.6068     C
C       0.2783   0.5586   0.8779     C
H       0.2872   0.9609   0.1207     H
O       0.3204    0.402   0.4068     O
O       0.3325   0.4125    0.573     O
O       0.3396   0.7316   0.9912     O
C       0.3515   0.4616   0.2735     C
C        0.353   0.8285   0.0135     C
Zn     0.35754   0.3235  0.49072    Zn
H       0.3607    0.068   0.6194     H
C       0.3621   0.4918    0.209     C
C       0.3656   0.4685   0.7046     C
C       0.3708   0.4973   0.7716     C
O        0.378   0.5453   0.0765     O
O       0.3808    0.162   0.5078     O
O       0.3848    0.543   0.9036     O
H       0.4397    0.447   0.6818     H
H        0.443   0.4888   0.1889     H
H       0.4496   0.4948   0.7937     H
Zn     0.45562  0.58325  0.99026    Zn
H       0.4582   0.4198   0.3457     H
O       0.4587   0.8753   0.0246     O
N        0.468   0.4245   0.3022     N
H       0.4691   0.9731   0.2071     H
H       0.4884   0.3572   0.2861     H
H       0.5116   0.8572   0.2139     H
H       0.5309   0.4731   0.2929     H
N        0.532   0.9245   0.1978     N
O       0.5413   0.3753   0.4754     O
H       0.5418   0.9198   0.1543     H
Zn     0.54438  0.08325  0.50974    Zn
H       0.5504   0.9948   0.7063     H
H        0.557   0.9888   0.3111     H
H       0.5603    0.947   0.8182     H
O       0.6152    0.043   0.5964     O
O       0.6192    0.662   0.9922     O
O        0.622   0.0453   0.4235     O
C       0.6292   0.9973   0.7284     C
C       0.6344   0.9685   0.7954     C
C       0.6379   0.9918    0.291     C
H       0.6393    0.568   0.8806     H
Zn     0.64246   0.8235  0.00928    Zn
C        0.647   0.3285   0.4865     C
C       0.6485   0.9616   0.2265     C
O       0.6604   0.2316   0.5088     O
O       0.6675   0.9125    0.927     O
O       0.6796    0.902   0.0932     O
H       0.7128   0.4609   0.3793     H
C       0.7217   0.0586   0.6221     C
C        0.724   0.5932   0.8932     C
C       0.7299   0.6066   0.9686     C
C       0.7325   0.0561   0.3975     C
H        0.734    0.532    0.989     H
C       0.7412   0.0299   0.6943     C
H       0.7417   0.6643   0.8726     H
C       0.7423   0.0265   0.3276     C
C       0.7577   0.9735   0.8276     C
H       0.7583   0.3357   0.3726     H
C       0.7588   0.9701   0.1943     C
H        0.766    0.468    0.489     H
C       0.7675   0.9439   0.8975     C
C       0.7701   0.3934   0.4686     C
C        0.776   0.4068   0.3932     C
C       0.7783   0.9414   0.1221     C
H       0.7872   0.5391   0.8793     H
O       0.8204    0.098   0.5932     O
O       0.8325   0.0875    0.427     O
O       0.8396   0.7684   0.0088     O
C       0.8515   0.0384   0.7265     C
C        0.853   0.6715   0.9865     C
Zn     0.85754   0.1765  0.50928    Zn
H       0.8607    0.432   0.3806     H
C       0.8621   0.0082    0.791     C
C       0.8656   0.0315   0.2954     C
C       0.8708   0.0027   0.2284     C
O        0.878   0.9547   0.9235     O
O       0.8808    0.338   0.4922     O
O       0.8848    0.957   0.0964     O
H       0.9397    0.053   0.3182     H
H        0.943   0.0112   0.8111     H
H       0.9496   0.0052   0.2063     H
Zn     0.95562  0.91675  0.00974    Zn
H       0.9582   0.0802   0.6543     H
O       0.9587   0.6247   0.9754     O
N        0.968   0.0755   0.6978     N
H       0.9691   0.5269   0.7929     H
H       0.9884   0.1428   0.7139     H
