data_I
_chemical_name_common  '/home/zhangsd/repos/MofS-CGCNN/ML/data/TSD/clean_cifs/WOBHEB_clean'
_cell_length_a  6.66940
_cell_length_b 15.32280
_cell_length_c 15.32280
_cell_angle_alpha 62.06790
_cell_angle_beta  81.65770
_cell_angle_gamma 98.34230
_space_group_name_H-M_alt      'P 1'


loop_
_space_group_symop_operation_xyz
  'x, y, z' 

loop_
_atom_site_label
_atom_site_fract_x
_atom_site_fract_y
_atom_site_fract_z
_atom_site_type_symbol
O      0.03009  0.63365  0.84388     O
Zn     0.04296  0.73734  0.57366    Zn
C      0.07109  0.43437   0.4677     C
C      0.11461  0.53389  0.55366     C
O      0.12603  0.15612  0.47753     O
H        0.133   0.9809   0.5499     H
C      0.14215  0.38624  0.17529     C
O      0.14764  0.37009  0.44017     O
H       0.1521   0.4692   0.9809     H
O      0.16124  0.35634  0.26482     O
C      0.17981  0.46982  0.51929     C
O       0.1951  0.62116  0.64366     O
O      0.22245  0.81026  0.62991     O
C      0.24409  0.56153  0.61376     C
C      0.29001  0.98911  0.53018     C
C       0.3009  0.48071  0.98911     C
Zn     0.30562    0.689  0.73734    Zn
H       0.3171   0.4501   0.5308     H
C      0.31744  0.17529  0.43847     C
C      0.33173  0.44634  0.08755     C
C      0.36328  0.90207  0.56563     C
Zn     0.38338  0.42634    0.311    Zn
O      0.39644  0.52247  0.63365     O
O      0.41219  0.55983  0.81026     O
C      0.41928  0.08755  0.46611     C
O      0.42606  0.26482  0.37884     O
C      0.46121   0.5323  0.90207     C
C      0.53879   0.4677  0.09793     C
O      0.57394  0.73518  0.62116     O
C      0.58072  0.91245  0.53389     C
O      0.58781  0.44017  0.18974     O
O      0.60356  0.47753  0.36635     O
Zn     0.61662  0.57366    0.689    Zn
C      0.63672  0.09793  0.43437     C
C      0.66827  0.55366  0.91245     C
C      0.68256  0.82471  0.56153     C
H       0.6829   0.5499   0.4692     H
Zn     0.69438    0.311  0.26266    Zn
C       0.6991  0.51929  0.01089     C
C      0.70999  0.01089  0.46982     C
C      0.75591  0.43847  0.38624     C
O      0.77755  0.18974  0.37009     O
O       0.8049  0.37884  0.35634     O
C      0.82019  0.53018  0.48071     C
O      0.83876  0.64366  0.73518     O
H       0.8479   0.5308   0.0191     H
O      0.85236  0.62991  0.55983     O
C      0.85785  0.61376  0.82471     C
H        0.867   0.0191   0.4501     H
O      0.87397  0.84388  0.52247     O
C      0.88539  0.46611  0.44634     C
C      0.92891  0.56563   0.5323     C
Zn     0.95704  0.26266  0.42634    Zn
O      0.96991  0.36635  0.15612     O
