data_I
_chemical_name_common  '/home/zhangsd/repos/MofS-CGCNN/ML/data/TSD/clean_cifs/WOCGIG_clean'
_cell_length_a  9.35910
_cell_length_b  9.31280
_cell_length_c 15.16550
_cell_angle_alpha 90.00000
_cell_angle_beta  92.50500
_cell_angle_gamma 90.00000
_space_group_name_H-M_alt      'P 1'


loop_
_space_group_symop_operation_xyz
  'x, y, z' 

loop_
_atom_site_label
_atom_site_fract_x
_atom_site_fract_y
_atom_site_fract_z
_atom_site_type_symbol
O       0.0016   0.2055  0.31194     O
O        0.005   0.4611  0.84464     O
O         0.01   0.9389  0.38036     O
O       0.0755   0.1698  0.47894     O
Be      0.0836   0.0944    0.383    Be
H       0.0986   0.3236   0.2269     H
P      0.10889  0.13904  0.57606     P
H       0.1133    0.728   0.5548     H
O       0.1245   0.2934  0.61699     O
P      0.13697  0.47452  0.13834     P
O       0.1376   0.4049  0.04475     O
P      0.15153  0.73926  0.68575     P
H       0.1609   0.2876    0.667     H
Be      0.1672   0.4973   0.8206    Be
O       0.1696   0.3429  0.19931     O
O       0.1725   0.6079  0.74105     O
H       0.1729   0.4611   0.0102     H
O        0.179   0.6976  0.58719     O
O       0.2381     0.35  0.78547     O
O       0.2458   0.0837  0.35119     O
O       0.2483   0.5592  0.91135     O
O       0.2517   0.0592  0.58865     O
O       0.2542   0.5837  0.14881     O
O       0.2619     0.85  0.71453     O
O        0.321   0.1976  0.91281     O
H       0.3271   0.9611   0.4898     H
O       0.3275   0.1079  0.75895     O
O       0.3304   0.8429  0.30069     O
Be      0.3328   0.9973   0.6794    Be
H       0.3391   0.7876    0.833     H
P      0.34847  0.23926  0.81425     P
O       0.3624   0.9049  0.45525     O
P      0.36303  0.97452  0.36166     P
O       0.3755   0.7934  0.88301     O
H       0.3867    0.228   0.9452     H
P      0.39111  0.63904  0.92394     P
H       0.4014   0.8236   0.2731     H
Be      0.4164   0.5944    0.117    Be
O       0.4245   0.6698  0.02106     O
O         0.49   0.4389  0.11964     O
O        0.495   0.9611  0.65536     O
O       0.4984   0.7055  0.18806     O
O       0.5016   0.2945  0.81194     O
O        0.505   0.0389  0.34464     O
O         0.51   0.5611  0.88036     O
O       0.5755   0.3302  0.97894     O
Be      0.5836   0.4056    0.883    Be
H       0.5986   0.1764   0.7269     H
P      0.60889  0.36096  0.07606     P
H       0.6133    0.772   0.0548     H
O       0.6245   0.2066  0.11699     O
P      0.63697  0.02548  0.63834     P
O       0.6376   0.0951  0.54475     O
P      0.65153  0.76074  0.18575     P
H       0.6609   0.2124    0.167     H
Be      0.6672   0.0027   0.3206    Be
O       0.6696   0.1571  0.69931     O
O       0.6725   0.8921  0.24105     O
H       0.6729   0.0389   0.5102     H
O        0.679   0.8024  0.08719     O
O       0.7381     0.15  0.28547     O
O       0.7458   0.4163  0.85119     O
O       0.7483   0.9408  0.41135     O
O       0.7517   0.4408  0.08865     O
O       0.7542   0.9163  0.64881     O
O       0.7619     0.65  0.21453     O
O        0.821   0.3024  0.41281     O
H       0.8271   0.5389   0.9898     H
O       0.8275   0.3921  0.25895     O
O       0.8304   0.6571  0.80069     O
Be      0.8328   0.5027   0.1794    Be
H       0.8391   0.7124    0.333     H
P      0.84847  0.26074  0.31425     P
O       0.8624   0.5951  0.95525     O
P      0.86303  0.52548  0.86166     P
O       0.8755   0.7066  0.38301     O
H       0.8867    0.272   0.4452     H
P      0.89111  0.86096  0.42394     P
H       0.9014   0.6764   0.7731     H
Be      0.9164   0.9056    0.617    Be
O       0.9245   0.8302  0.52106     O
O         0.99   0.0611  0.61964     O
O        0.995   0.5389  0.15536     O
O       0.9984   0.7945  0.68806     O
