data_I
_chemical_name_common  '/home/zhangsd/repos/MofS-CGCNN/ML/data/TSD/clean_cifs/WOJZEC_clean'
_cell_length_a 24.71680
_cell_length_b 13.01210
_cell_length_c 14.97780
_cell_angle_alpha 90.00000
_cell_angle_beta  96.68200
_cell_angle_gamma 90.00000
_space_group_name_H-M_alt      'P 1'


loop_
_space_group_symop_operation_xyz
  'x, y, z' 

loop_
_atom_site_label
_atom_site_fract_x
_atom_site_fract_y
_atom_site_fract_z
_atom_site_type_symbol
H        0.001   0.3367     0.88     H
H        0.001   0.6633     0.38     H
C       0.0081   0.0962    0.578     C
C       0.0081   0.9038    0.078     C
C        0.011   0.2678   0.8842     C
C        0.011   0.7322   0.3842     C
C       0.0224   0.1985   0.5803     C
C       0.0224   0.8015   0.0803     C
H       0.0312    0.048   0.5567     H
H       0.0312    0.952   0.0567     H
C       0.0404   0.0644    0.893     C
C       0.0404   0.9356    0.393     C
H       0.0496   0.0049   0.3958     H
H       0.0496   0.9951   0.8958     H
C       0.0594   0.2365   0.8545     C
C       0.0594   0.7635   0.3545     C
C      0.07224   0.2329   0.5394     C
C      0.07224   0.7671   0.0394     C
C      0.07519   0.1341   0.8598     C
C      0.07519   0.8659   0.3598     C
H       0.0816   0.2846   0.8309     H
H       0.0816   0.7154   0.3309     H
O      0.08532   0.3265   0.5413     O
O      0.08532   0.6735   0.0413     O
O      0.09904   0.1671   0.5018     O
O      0.09904   0.8329   0.0018     O
C      0.12945   0.1017   0.8356     C
C      0.12945   0.8983   0.3356     C
H       0.1309   0.1969   0.7281     H
H       0.1309   0.8031   0.2281     H
H       0.1456   0.0066   0.4311     H
H       0.1456   0.9934   0.9311     H
C      0.15156   0.1492   0.7636     C
C      0.15156   0.8508   0.2636     C
C      0.16037   0.0287   0.8857     C
C      0.16037   0.9713   0.3857     C
Pr     0.17119  0.29544  0.46733    Pr
Pr     0.17119  0.70456  0.96733    Pr
O      0.19469   0.2384   0.6216     O
O      0.19469   0.7616   0.1216     O
O      0.20146   0.4491   0.5611     O
O      0.20146   0.5509   0.0611     O
C      0.20348   0.1258    0.745     C
C      0.20348   0.8742    0.245     C
C      0.21356   0.0078   0.8685     C
C      0.21356   0.9922   0.3685     C
C      0.22523   0.1762   0.6653     C
C      0.22523   0.8238   0.1653     C
O      0.22627   0.1418   0.4618     O
O      0.22627   0.8582   0.9618     O
O      0.22721   0.3469   0.3496     O
O      0.22721   0.6531   0.8496     O
H       0.2295   0.4549   0.2114     H
H       0.2295   0.5451   0.7114     H
C      0.23476   0.0577    0.799     C
C      0.23476   0.9423    0.299     C
C      0.24821   0.0662   0.4257     C
C      0.24821   0.9338   0.9257     C
C      0.25179   0.4338   0.5743     C
C      0.25179   0.5662   0.0743     C
C      0.26524   0.4423    0.201     C
C      0.26524   0.5577    0.701     C
H       0.2705   0.0451   0.7886     H
H       0.2705   0.9549   0.2886     H
O      0.27279   0.1531   0.6504     O
O      0.27279   0.8469   0.1504     O
O      0.27373   0.3582   0.5382     O
O      0.27373   0.6418   0.0382     O
C      0.27477   0.3238   0.3347     C
C      0.27477   0.6762   0.8347     C
C      0.28644   0.4922   0.1315     C
C      0.28644   0.5078   0.6315     C
C      0.29652   0.3742    0.255     C
C      0.29652   0.6258    0.755     C
O      0.29854   0.0509   0.4389     O
O      0.29854   0.9491   0.9389     O
O      0.30531   0.2616   0.3784     O
O      0.30531   0.7384   0.8784     O
Pr     0.32881  0.20456  0.53267    Pr
Pr     0.32881  0.79544  0.03267    Pr
C      0.33963   0.4713   0.1143     C
C      0.33963   0.5287   0.6143     C
C      0.34844   0.3508   0.2364     C
C      0.34844   0.6492   0.7364     C
H       0.3544   0.4934   0.5689     H
H       0.3544   0.5066   0.0689     H
H       0.3691   0.3031   0.2719     H
H       0.3691   0.6969   0.7719     H
C      0.37055   0.3983   0.1644     C
C      0.37055   0.6017   0.6644     C
O      0.40096   0.3329   0.4982     O
O      0.40096   0.6671   0.9982     O
O      0.41468   0.1735   0.4587     O
O      0.41468   0.8265   0.9587     O
H       0.4184   0.2154   0.1691     H
H       0.4184   0.7846   0.6691     H
C      0.42481   0.3659   0.1402     C
C      0.42481   0.6341   0.6402     C
C      0.42776   0.2671   0.4606     C
C      0.42776   0.7329   0.9606     C
C       0.4406   0.2635   0.1455     C
C       0.4406   0.7365   0.6455     C
H       0.4504   0.4951   0.6042     H
H       0.4504   0.5049   0.1042     H
C       0.4596   0.4356    0.107     C
C       0.4596   0.5644    0.607     C
H       0.4688    0.452   0.4433     H
H       0.4688    0.548   0.9433     H
C       0.4776   0.3015   0.4197     C
C       0.4776   0.6985   0.9197     C
C        0.489   0.2322   0.1158     C
C        0.489   0.7678   0.6158     C
C       0.4919   0.4038    0.422     C
C       0.4919   0.5962    0.922     C
H        0.499   0.1633     0.12     H
H        0.499   0.8367     0.62     H
H        0.501   0.1633     0.38     H
H        0.501   0.8367     0.88     H
C       0.5081   0.4038    0.078     C
C       0.5081   0.5962    0.578     C
C        0.511   0.2322   0.3842     C
C        0.511   0.7678   0.8842     C
C       0.5224   0.3015   0.0803     C
C       0.5224   0.6985   0.5803     C
H       0.5312    0.452   0.0567     H
H       0.5312    0.548   0.5567     H
C       0.5404   0.4356    0.393     C
C       0.5404   0.5644    0.893     C
H       0.5496   0.4951   0.8958     H
H       0.5496   0.5049   0.3958     H
C       0.5594   0.2635   0.3545     C
C       0.5594   0.7365   0.8545     C
C      0.57224   0.2671   0.0394     C
C      0.57224   0.7329   0.5394     C
C      0.57519   0.3659   0.3598     C
C      0.57519   0.6341   0.8598     C
H       0.5816   0.2154   0.3309     H
H       0.5816   0.7846   0.8309     H
O      0.58532   0.1735   0.0413     O
O      0.58532   0.8265   0.5413     O
O      0.59904   0.3329   0.0018     O
O      0.59904   0.6671   0.5018     O
C      0.62945   0.3983   0.3356     C
C      0.62945   0.6017   0.8356     C
H       0.6309   0.3031   0.2281     H
H       0.6309   0.6969   0.7281     H
H       0.6456   0.4934   0.9311     H
H       0.6456   0.5066   0.4311     H
C      0.65156   0.3508   0.2636     C
C      0.65156   0.6492   0.7636     C
C      0.66037   0.4713   0.3857     C
C      0.66037   0.5287   0.8857     C
Pr     0.67119  0.20456  0.96733    Pr
Pr     0.67119  0.79544  0.46733    Pr
O      0.69469   0.2616   0.1216     O
O      0.69469   0.7384   0.6216     O
O      0.70146   0.0509   0.0611     O
O      0.70146   0.9491   0.5611     O
C      0.70348   0.3742    0.245     C
C      0.70348   0.6258    0.745     C
C      0.71356   0.4922   0.3685     C
C      0.71356   0.5078   0.8685     C
C      0.72523   0.3238   0.1653     C
C      0.72523   0.6762   0.6653     C
O      0.72627   0.3582   0.9618     O
O      0.72627   0.6418   0.4618     O
O      0.72721   0.1531   0.8496     O
O      0.72721   0.8469   0.3496     O
H       0.7295   0.0451   0.7114     H
H       0.7295   0.9549   0.2114     H
C      0.73476   0.4423    0.299     C
C      0.73476   0.5577    0.799     C
C      0.74821   0.4338   0.9257     C
C      0.74821   0.5662   0.4257     C
C      0.75179   0.0662   0.0743     C
C      0.75179   0.9338   0.5743     C
C      0.76524   0.0577    0.701     C
C      0.76524   0.9423    0.201     C
H       0.7705   0.4549   0.2886     H
H       0.7705   0.5451   0.7886     H
O      0.77279   0.3469   0.1504     O
O      0.77279   0.6531   0.6504     O
O      0.77373   0.1418   0.0382     O
O      0.77373   0.8582   0.5382     O
C      0.77477   0.1762   0.8347     C
C      0.77477   0.8238   0.3347     C
C      0.78644   0.0078   0.6315     C
C      0.78644   0.9922   0.1315     C
C      0.79652   0.1258    0.755     C
C      0.79652   0.8742    0.255     C
O      0.79854   0.4491   0.9389     O
O      0.79854   0.5509   0.4389     O
O      0.80531   0.2384   0.8784     O
O      0.80531   0.7616   0.3784     O
Pr     0.82881  0.29544  0.03267    Pr
Pr     0.82881  0.70456  0.53267    Pr
C      0.83963   0.0287   0.6143     C
C      0.83963   0.9713   0.1143     C
C      0.84844   0.1492   0.7364     C
C      0.84844   0.8508   0.2364     C
H       0.8544   0.0066   0.0689     H
H       0.8544   0.9934   0.5689     H
H       0.8691   0.1969   0.7719     H
H       0.8691   0.8031   0.2719     H
C      0.87055   0.1017   0.6644     C
C      0.87055   0.8983   0.1644     C
O      0.90096   0.1671   0.9982     O
O      0.90096   0.8329   0.4982     O
O      0.91468   0.3265   0.9587     O
O      0.91468   0.6735   0.4587     O
H       0.9184   0.2846   0.6691     H
H       0.9184   0.7154   0.1691     H
C      0.92481   0.1341   0.6402     C
C      0.92481   0.8659   0.1402     C
C      0.92776   0.2329   0.9606     C
C      0.92776   0.7671   0.4606     C
C       0.9406   0.2365   0.6455     C
C       0.9406   0.7635   0.1455     C
H       0.9504   0.0049   0.1042     H
H       0.9504   0.9951   0.6042     H
C       0.9596   0.0644    0.607     C
C       0.9596   0.9356    0.107     C
H       0.9688    0.048   0.9433     H
H       0.9688    0.952   0.4433     H
C       0.9776   0.1985   0.9197     C
C       0.9776   0.8015   0.4197     C
C        0.989   0.2678   0.6158     C
C        0.989   0.7322   0.1158     C
C       0.9919   0.0962    0.922     C
C       0.9919   0.9038    0.422     C
H        0.999   0.3367     0.62     H
H        0.999   0.6633     0.12     H
