data_I
_chemical_name_common  '/home/zhangsd/repos/MofS-CGCNN/ML/data/TSD/clean_cifs/WONRUM02_clean'
_cell_length_a  5.07940
_cell_length_b 15.21540
_cell_length_c 16.36040
_cell_angle_alpha 90.00000
_cell_angle_beta  95.69600
_cell_angle_gamma 90.00000
_space_group_name_H-M_alt      'P 1'


loop_
_space_group_symop_operation_xyz
  'x, y, z' 

loop_
_atom_site_label
_atom_site_fract_x
_atom_site_fract_y
_atom_site_fract_z
_atom_site_type_symbol
Co         0.0      0.0      0.0    Co
Co     0.00846  0.07108  0.81995    Co
O       0.0221  0.69083  0.52908     O
P      0.02525  0.61378  0.58784     P
O       0.0307  0.11464  0.07757     O
O       0.0325  0.95006  0.78265     O
Co     0.03483  0.67708  0.78367    Co
P      0.07512  0.86966  0.83775     P
P      0.08523  0.89932  0.36994     P
O       0.1019  0.20543  0.20106     O
O       0.1374   0.3417   0.6579     O
O       0.1529  0.64532  0.67465     O
Co     0.15469  0.69683   0.4185    Co
O       0.1665    0.988  0.40393     O
O       0.1928  0.88624   0.2838     O
O       0.2074  0.82627  0.42649     O
O       0.2106  0.54023  0.56687     O
O       0.2163   0.1101  0.64293     O
O       0.2448  0.92096  0.09495     O
O       0.2552  0.42096  0.40505     O
O       0.2837   0.6101  0.85707     O
O       0.2894  0.04023  0.93313     O
O       0.2926  0.32627  0.07351     O
O       0.3072  0.38624   0.2162     O
O       0.3335    0.488  0.09607     O
Co     0.34531  0.19683   0.0815    Co
O       0.3471  0.14532  0.82535     O
O       0.3626   0.8417   0.8421     O
O       0.3981  0.70543  0.29894     O
P      0.41477  0.39932  0.13006     P
P      0.42488  0.36966  0.66225     P
Co     0.46517  0.17708  0.71633    Co
O       0.4675  0.45006  0.71735     O
O       0.4693  0.61464  0.42243     O
P      0.47475  0.11378  0.91216     P
O       0.4779  0.19083  0.97092     O
Co     0.49154  0.57108  0.68005    Co
Co         0.5      0.5      0.5    Co
Co     0.50846  0.42892  0.31995    Co
O       0.5221  0.80917  0.02908     O
P      0.52525  0.88622  0.08784     P
O       0.5307  0.38536  0.57757     O
O       0.5325  0.54994  0.28265     O
Co     0.53483  0.82292  0.28367    Co
P      0.57512  0.63034  0.33775     P
P      0.58523  0.60068  0.86994     P
O       0.6019  0.29457  0.70106     O
O       0.6374   0.1583   0.1579     O
O       0.6529  0.85468  0.17465     O
Co     0.65469  0.80317   0.9185    Co
O       0.6665    0.512  0.90393     O
O       0.6928  0.61376   0.7838     O
O       0.7074  0.67373  0.92649     O
O       0.7106  0.95977  0.06687     O
O       0.7163   0.3899  0.14293     O
O       0.7448  0.57904  0.59495     O
O       0.7552  0.07904  0.90505     O
O       0.7837   0.8899  0.35707     O
O       0.7894  0.45977  0.43313     O
O       0.7926  0.17373  0.57351     O
O       0.8072  0.11376   0.7162     O
O       0.8335    0.012  0.59607     O
Co     0.84531  0.30317   0.5815    Co
O       0.8471  0.35468  0.32535     O
O       0.8626   0.6583   0.3421     O
O       0.8981  0.79457  0.79894     O
P      0.91477  0.10068  0.63006     P
P      0.92488  0.13034  0.16225     P
Co     0.96517  0.32292  0.21633    Co
O       0.9675  0.04994  0.21735     O
O       0.9693  0.88536  0.92243     O
P      0.97475  0.38622  0.41216     P
O       0.9779  0.30917  0.47092     O
Co     0.99154  0.92892  0.18005    Co
