data_I
_chemical_name_common  '/home/zhangsd/repos/MofS-CGCNN/ML/data/TSD/clean_cifs/WOPHIU_clean'
_cell_length_a 30.89200
_cell_length_b 14.75100
_cell_length_c 19.08000
_cell_angle_alpha 90.00000
_cell_angle_beta  111.55200
_cell_angle_gamma 90.00000
_space_group_name_H-M_alt      'P 1'


loop_
_space_group_symop_operation_xyz
  'x, y, z' 

loop_
_atom_site_label
_atom_site_fract_x
_atom_site_fract_y
_atom_site_fract_z
_atom_site_type_symbol
Zn     0.00452  0.26451  0.48637    Zn
Zn     0.00452  0.73549  0.98637    Zn
O      0.00732   0.4005   0.4611     O
O      0.00732   0.5995   0.9611     O
O       0.0091   0.2573   0.9191     O
O       0.0091   0.7427   0.4191     O
H       0.0105   0.4351    0.925     H
H       0.0105   0.5649    0.425     H
C       0.0208   0.3903   0.4071     C
C       0.0208   0.6097   0.9071     C
O      0.02396    0.053   0.6827     O
O      0.02396    0.947   0.1827     O
O       0.0244   0.3117   0.3846     O
O       0.0244   0.6883   0.8846     O
C       0.0253   0.4436    0.891     C
C       0.0253   0.5564    0.391     C
C       0.0313   0.2738   0.8778     C
C       0.0313   0.7262   0.3778     C
C       0.0337   0.4699   0.3718     C
C       0.0337   0.5301   0.8718     C
C       0.0392   0.3685   0.8593     C
C       0.0392   0.6315   0.3593     C
Zn     0.04184  0.08025  0.85607    Zn
Zn     0.04184  0.91975  0.35607    Zn
O        0.048    0.212   0.8484     O
O        0.048    0.788   0.3484     O
H       0.0524   0.2113   0.1703     H
H       0.0524   0.7887   0.6703     H
H       0.0532   0.0104   0.5849     H
H       0.0532   0.9896   0.0849     H
C       0.0563   0.4569     0.32     C
C       0.0563   0.5431     0.82     C
O      0.05657   0.0421   0.9617     O
O      0.05657   0.9579   0.4617     O
H       0.0615   0.3987   0.3061     H
H       0.0615   0.6013   0.8061     H
C       0.0617   0.3824   0.8081     C
C       0.0617   0.6176   0.3081     C
C       0.0644   0.0443   0.7249     C
C       0.0644   0.9557   0.2249     C
N       0.0686   0.2505   0.0829     N
N       0.0686   0.7495   0.5829     N
C       0.0706    0.468   0.7901     C
C       0.0706    0.532   0.2901     C
H       0.0707   0.3329   0.7865     H
H       0.0707   0.6671   0.2865     H
H       0.0747   0.4192   0.1929     H
H       0.0747   0.5808   0.6929     H
H       0.0752   0.3007   0.6494     H
H       0.0752   0.6993   0.1494     H
H       0.0766   0.4922    0.067     H
H       0.0766   0.5078    0.567     H
N       0.0771   0.2577   0.5548     N
N       0.0771   0.7423   0.0548     N
C       0.0774   0.2249   0.1559     C
C       0.0774   0.7751   0.6559     C
O      0.07808   0.0501   0.7949     O
O      0.07808   0.9499   0.2949     O
C       0.0848    0.007   0.6141     C
C       0.0848    0.993   0.1141     C
O       0.0931   0.4687   0.7426     O
O       0.0931   0.5313   0.2426     O
C       0.0952   0.2822   0.6258     C
C       0.0952   0.7178   0.1258     C
H        0.097   0.2217   0.4768     H
H        0.097   0.7783   0.9768     H
C       0.0996   0.0251   0.6902     C
C       0.0996   0.9749   0.1902     C
H       0.1003   0.2788   0.0154     H
H       0.1003   0.7212   0.5154     H
C       0.1006   0.0419   0.9981     C
C       0.1006   0.9581   0.4981     C
C       0.1029   0.4525   0.2202     C
C       0.1029   0.5475   0.7202     C
C       0.1051   0.2651   0.0653     C
C       0.1051   0.7349   0.5653     C
C       0.1076    0.236   0.5278     C
C       0.1076    0.764   0.0278     C
C       0.1089   0.4913   0.0885     C
C       0.1089   0.5087   0.5885     C
C       0.1165   0.0164   0.0797     C
C       0.1165   0.9836   0.5797     C
H       0.1188   0.4866   0.4955     H
H       0.1188   0.5134   0.9955     H
C       0.1213   0.2186   0.2082     C
C       0.1213   0.7814   0.7082     C
H        0.122   0.4164    0.263     H
H        0.122   0.5836    0.763     H
H       0.1253   0.1987   0.2564     H
H       0.1253   0.8013   0.7564     H
O       0.1284   0.0651   0.9706     O
O       0.1284   0.9349   0.4706     O
C       0.1314   0.4766   0.1653     C
C       0.1314   0.5234   0.6653     C
C       0.1339   0.4961   0.5469     C
C       0.1339   0.5039   0.0469     C
C       0.1435   0.2821   0.6682     C
C       0.1435   0.7179   0.1682     C
C       0.1465   0.0215   0.7347     C
C       0.1465   0.9785   0.2347     C
C       0.1517   0.2613   0.1178     C
C       0.1517   0.7387   0.6178     C
C       0.1545   0.2316   0.5662     C
C       0.1545   0.7684   0.0662     C
H       0.1551   0.3004   0.7183     H
H       0.1551   0.6996   0.2183     H
H       0.1566   0.0329   0.7861     H
H       0.1566   0.9671   0.2861     H
C       0.1579   0.2393   0.1933     C
C       0.1579   0.7607   0.6933     C
C        0.163   0.0194   0.1238     C
C        0.163   0.9806   0.6238     C
C       0.1717   0.2554   0.6347     C
C       0.1717   0.7446   0.1347     C
H       0.1738   0.2112    0.542     H
H       0.1738   0.7888    0.042     H
H       0.1768   0.2727   0.1034     H
H       0.1768   0.7273   0.6034     H
C       0.1781   0.0006   0.7009     C
C       0.1781   0.9994   0.2009     C
C       0.1801   0.4791   0.1968     C
C       0.1801   0.5209   0.6968     C
C        0.182   0.4963   0.5771     C
C        0.182   0.5037   0.0771     C
H       0.1846   0.0347   0.1023     H
H       0.1846   0.9653   0.6023     H
H       0.1951   0.4734   0.2487     H
H       0.1951   0.5266   0.7487     H
H       0.1987    0.487   0.5459     H
H       0.1987    0.513   0.0459     H
C       0.2026   0.2398    0.259     C
C       0.2026   0.7602    0.759     C
N       0.2043   0.2522   0.3254     N
N       0.2043   0.7478   0.8254     N
C       0.2054   0.4897   0.1534     C
C       0.2054   0.5103   0.6534     C
H       0.2123   0.2964   0.7997     H
H       0.2123   0.7036   0.2997     H
C       0.2254   0.2541   0.6699     C
C       0.2254   0.7459   0.1699     C
O      0.22584   0.0044    0.239     O
O      0.22584   0.9956    0.739     O
H        0.231    0.032   0.3433     H
H        0.231    0.968   0.8433     H
H       0.2323   0.0725   0.8274     H
H       0.2323   0.9275   0.3274     H
H       0.2379   0.2115   0.1498     H
H       0.2379   0.7885   0.6498     H
N       0.2408   0.2855   0.8059     N
N       0.2408   0.7145   0.3059     N
C       0.2427   0.0133   0.8179     C
C       0.2427   0.9867   0.3179     C
N       0.2466   0.2387     0.26     N
N       0.2466   0.7613     0.76     N
N       0.2479   0.2583   0.3642     N
N       0.2479   0.7417   0.8642     N
N       0.2521   0.2417   0.6358     N
N       0.2521   0.7583   0.1358     N
N       0.2534   0.2613     0.74     N
N       0.2534   0.7387     0.24     N
C       0.2573   0.4867   0.1821     C
C       0.2573   0.5133   0.6821     C
N       0.2592   0.2145   0.1941     N
N       0.2592   0.7855   0.6941     N
H       0.2621   0.2885   0.8502     H
H       0.2621   0.7115   0.3502     H
H       0.2677   0.4275   0.1726     H
H       0.2677   0.5725   0.6726     H
H        0.269    0.468   0.6567     H
H        0.269    0.532   0.1567     H
O      0.27416   0.4956    0.761     O
O      0.27416   0.5044    0.261     O
C       0.2746   0.2459   0.3301     C
C       0.2746   0.7541   0.8301     C
H       0.2877   0.2036   0.2003     H
H       0.2877   0.7964   0.7003     H
C       0.2946   0.0103   0.8466     C
C       0.2946   0.9897   0.3466     C
N       0.2957   0.2478   0.6746     N
N       0.2957   0.7522   0.1746     N
C       0.2974   0.2602    0.741     C
C       0.2974   0.7398    0.241     C
H       0.3013    0.013   0.4541     H
H       0.3013    0.987   0.9541     H
H       0.3049   0.0266   0.7513     H
H       0.3049   0.9734   0.2513     H
H       0.3154   0.4653   0.8977     H
H       0.3154   0.5347   0.3977     H
C        0.318   0.0037   0.4229     C
C        0.318   0.9963   0.9229     C
C       0.3199   0.0209   0.8032     C
C       0.3199   0.9791   0.3032     C
C       0.3219   0.4994   0.2991     C
C       0.3219   0.5006   0.7991     C
H       0.3232   0.2273   0.8966     H
H       0.3232   0.7727   0.3966     H
H       0.3262   0.2888    0.458     H
H       0.3262   0.7112    0.958     H
C       0.3283   0.2446   0.3653     C
C       0.3283   0.7554   0.8653     C
C        0.337   0.4806   0.8762     C
C        0.337   0.5194   0.3762     C
C       0.3421   0.2607   0.8067     C
C       0.3421   0.7393   0.3067     C
H       0.3434   0.4671   0.2139     H
H       0.3434   0.5329   0.7139     H
H       0.3449   0.1996   0.2817     H
H       0.3449   0.8004   0.7817     H
C       0.3455   0.2684   0.4338     C
C       0.3455   0.7316   0.9338     C
C       0.3483   0.2387   0.8822     C
C       0.3483   0.7613   0.3822     C
C       0.3535   0.4785   0.2653     C
C       0.3535   0.5215   0.7653     C
C       0.3565   0.2179   0.3318     C
C       0.3565   0.7821   0.8318     C
C       0.3661   0.0039   0.4531     C
C       0.3661   0.9961   0.9531     C
C       0.3686   0.0234   0.8347     C
C       0.3686   0.9766   0.3347     C
O       0.3716   0.4349   0.0294     O
O       0.3716   0.5651   0.5294     O
H       0.3747   0.3013   0.7436     H
H       0.3747   0.6987   0.2436     H
H        0.378   0.0836    0.737     H
H        0.378   0.9164    0.237     H
C       0.3787   0.2814   0.7918     C
C       0.3787   0.7186   0.2918     C
H       0.3812   0.0134   0.5045     H
H       0.3812   0.9866   0.0045     H
C       0.3835   0.4836   0.9203     C
C       0.3835   0.5164   0.4203     C
C       0.3911   0.0087   0.9115     C
C       0.3911   0.9913   0.4115     C
C       0.3924    0.264   0.4722     C
C       0.3924    0.736   0.9722     C
C       0.3949   0.2349   0.9347     C
C       0.3949   0.7651   0.4347     C
C       0.3971   0.0475   0.7798     C
C       0.3971   0.9525   0.2798     C
C       0.3994   0.4581   0.0019     C
C       0.3994   0.5419   0.5019     C
H       0.3997   0.2212   0.9846     H
H       0.3997   0.7788   0.4846     H
C       0.4004   0.4749   0.3098     C
C       0.4004   0.5251   0.8098     C
H        0.403   0.2783   0.5232     H
H        0.403   0.7217   0.0232     H
C       0.4048   0.2178   0.3742     C
C       0.4048   0.7822   0.8742     C
O       0.4069   0.0313   0.2574     O
O       0.4069   0.9687   0.7574     O
C       0.4152    0.493   0.3859     C
C       0.4152    0.507   0.8859     C
O      0.42192   0.4499   0.2051     O
O      0.42192   0.5501   0.7051     O
C       0.4226   0.2751   0.8441     C
C       0.4226   0.7249   0.3441     C
N       0.4229   0.2423   0.4452     N
N       0.4229   0.7577   0.9452     N
H       0.4234   0.0078    0.933     H
H       0.4234   0.9922    0.433     H
H       0.4248   0.1993   0.3506     H
H       0.4248   0.8007   0.8506     H
H       0.4253   0.0808   0.8071     H
H       0.4253   0.9192   0.3071     H
H       0.4293   0.1671   0.2135     H
H       0.4293   0.8329   0.7135     H
C       0.4294    0.032   0.2099     C
C       0.4294    0.968   0.7099     C
N       0.4314   0.2495   0.9171     N
N       0.4314   0.7505   0.4171     N
C       0.4356   0.4557   0.2751     C
C       0.4356   0.5443   0.7751     C
C       0.4383   0.1176   0.1919     C
C       0.4383   0.8824   0.6919     C
H       0.4385   0.1013   0.6939     H
H       0.4385   0.8987   0.1939     H
O      0.44343   0.4579   0.0383     O
O      0.44343   0.5421   0.5383     O
C       0.4437   0.0431     0.68     C
C       0.4437   0.9569     0.18     C
H       0.4468   0.4896   0.4151     H
H       0.4468   0.5104   0.9151     H
H       0.4476   0.2887   0.8297     H
H       0.4476   0.7113   0.3297     H
O        0.452    0.288   0.1516     O
O        0.452    0.712   0.6516     O
Zn     0.45816  0.41975  0.14393    Zn
Zn     0.45816  0.58025  0.64393    Zn
C       0.4608   0.1315   0.1407     C
C       0.4608   0.8685   0.6407     C
C       0.4663   0.0301   0.6282     C
C       0.4663   0.9699   0.1282     C
C       0.4687   0.2262   0.1222     C
C       0.4687   0.7738   0.6222     C
C       0.4747   0.0564    0.109     C
C       0.4747   0.9436    0.609     C
O       0.4756   0.1883   0.6154     O
O       0.4756   0.8117   0.1154     O
O      0.47604    0.447   0.3173     O
O      0.47604    0.553   0.8173     O
C       0.4792   0.1097   0.5929     C
C       0.4792   0.8903   0.0929     C
H       0.4895   0.0649    0.075     H
H       0.4895   0.9351    0.575     H
O       0.4909   0.2427   0.0809     O
O       0.4909   0.7573   0.5809     O
O      0.49268   0.0995   0.5389     O
O      0.49268   0.9005   0.0389     O
Zn     0.49548  0.23549  0.51363    Zn
Zn     0.49548  0.76451  0.01363    Zn
Zn     0.50452  0.23549  0.98637    Zn
Zn     0.50452  0.76451  0.48637    Zn
O      0.50732   0.0995   0.9611     O
O      0.50732   0.9005   0.4611     O
O       0.5091   0.2427   0.4191     O
O       0.5091   0.7573   0.9191     O
H       0.5105   0.0649    0.425     H
H       0.5105   0.9351    0.925     H
C       0.5208   0.1097   0.9071     C
C       0.5208   0.8903   0.4071     C
O      0.52396    0.447   0.1827     O
O      0.52396    0.553   0.6827     O
O       0.5244   0.1883   0.8846     O
O       0.5244   0.8117   0.3846     O
C       0.5253   0.0564    0.391     C
C       0.5253   0.9436    0.891     C
C       0.5313   0.2262   0.3778     C
C       0.5313   0.7738   0.8778     C
C       0.5337   0.0301   0.8718     C
C       0.5337   0.9699   0.3718     C
C       0.5392   0.1315   0.3593     C
C       0.5392   0.8685   0.8593     C
Zn     0.54184  0.41975  0.35607    Zn
Zn     0.54184  0.58025  0.85607    Zn
O        0.548    0.288   0.3484     O
O        0.548    0.712   0.8484     O
H       0.5524   0.2887   0.6703     H
H       0.5524   0.7113   0.1703     H
H       0.5532   0.4896   0.0849     H
H       0.5532   0.5104   0.5849     H
C       0.5563   0.0431     0.82     C
C       0.5563   0.9569     0.32     C
O      0.55657   0.4579   0.4617     O
O      0.55657   0.5421   0.9617     O
H       0.5615   0.1013   0.8061     H
H       0.5615   0.8987   0.3061     H
C       0.5617   0.1176   0.3081     C
C       0.5617   0.8824   0.8081     C
C       0.5644   0.4557   0.2249     C
C       0.5644   0.5443   0.7249     C
N       0.5686   0.2495   0.5829     N
N       0.5686   0.7505   0.0829     N
C       0.5706    0.032   0.2901     C
C       0.5706    0.968   0.7901     C
H       0.5707   0.1671   0.2865     H
H       0.5707   0.8329   0.7865     H
H       0.5747   0.0808   0.6929     H
H       0.5747   0.9192   0.1929     H
H       0.5752   0.1993   0.1494     H
H       0.5752   0.8007   0.6494     H
H       0.5766   0.0078    0.567     H
H       0.5766   0.9922    0.067     H
N       0.5771   0.2423   0.0548     N
N       0.5771   0.7577   0.5548     N
C       0.5774   0.2751   0.6559     C
C       0.5774   0.7249   0.1559     C
O      0.57808   0.4499   0.2949     O
O      0.57808   0.5501   0.7949     O
C       0.5848    0.493   0.1141     C
C       0.5848    0.507   0.6141     C
O       0.5931   0.0313   0.2426     O
O       0.5931   0.9687   0.7426     O
C       0.5952   0.2178   0.1258     C
C       0.5952   0.7822   0.6258     C
H        0.597   0.2783   0.9768     H
H        0.597   0.7217   0.4768     H
C       0.5996   0.4749   0.1902     C
C       0.5996   0.5251   0.6902     C
H       0.6003   0.2212   0.5154     H
H       0.6003   0.7788   0.0154     H
C       0.6006   0.4581   0.4981     C
C       0.6006   0.5419   0.9981     C
C       0.6029   0.0475   0.7202     C
C       0.6029   0.9525   0.2202     C
C       0.6051   0.2349   0.5653     C
C       0.6051   0.7651   0.0653     C
C       0.6076    0.264   0.0278     C
C       0.6076    0.736   0.5278     C
C       0.6089   0.0087   0.5885     C
C       0.6089   0.9913   0.0885     C
C       0.6165   0.4836   0.5797     C
C       0.6165   0.5164   0.0797     C
H       0.6188   0.0134   0.9955     H
H       0.6188   0.9866   0.4955     H
C       0.6213   0.2814   0.7082     C
C       0.6213   0.7186   0.2082     C
H        0.622   0.0836    0.763     H
H        0.622   0.9164    0.263     H
H       0.6253   0.3013   0.7564     H
H       0.6253   0.6987   0.2564     H
O       0.6284   0.4349   0.4706     O
O       0.6284   0.5651   0.9706     O
C       0.6314   0.0234   0.6653     C
C       0.6314   0.9766   0.1653     C
C       0.6339   0.0039   0.0469     C
C       0.6339   0.9961   0.5469     C
C       0.6435   0.2179   0.1682     C
C       0.6435   0.7821   0.6682     C
C       0.6465   0.4785   0.2347     C
C       0.6465   0.5215   0.7347     C
C       0.6517   0.2387   0.6178     C
C       0.6517   0.7613   0.1178     C
C       0.6545   0.2684   0.0662     C
C       0.6545   0.7316   0.5662     C
H       0.6551   0.1996   0.2183     H
H       0.6551   0.8004   0.7183     H
H       0.6566   0.4671   0.2861     H
H       0.6566   0.5329   0.7861     H
C       0.6579   0.2607   0.6933     C
C       0.6579   0.7393   0.1933     C
C        0.663   0.4806   0.6238     C
C        0.663   0.5194   0.1238     C
C       0.6717   0.2446   0.1347     C
C       0.6717   0.7554   0.6347     C
H       0.6738   0.2888    0.042     H
H       0.6738   0.7112    0.542     H
H       0.6768   0.2273   0.6034     H
H       0.6768   0.7727   0.1034     H
C       0.6781   0.4994   0.2009     C
C       0.6781   0.5006   0.7009     C
C       0.6801   0.0209   0.6968     C
C       0.6801   0.9791   0.1968     C
C        0.682   0.0037   0.0771     C
C        0.682   0.9963   0.5771     C
H       0.6846   0.4653   0.6023     H
H       0.6846   0.5347   0.1023     H
H       0.6951   0.0266   0.7487     H
H       0.6951   0.9734   0.2487     H
H       0.6987    0.013   0.0459     H
H       0.6987    0.987   0.5459     H
C       0.7026   0.2602    0.759     C
C       0.7026   0.7398    0.259     C
N       0.7043   0.2478   0.8254     N
N       0.7043   0.7522   0.3254     N
C       0.7054   0.0103   0.6534     C
C       0.7054   0.9897   0.1534     C
H       0.7123   0.2036   0.2997     H
H       0.7123   0.7964   0.7997     H
C       0.7254   0.2459   0.1699     C
C       0.7254   0.7541   0.6699     C
O      0.72584   0.4956    0.739     O
O      0.72584   0.5044    0.239     O
H        0.731    0.468   0.8433     H
H        0.731    0.532   0.3433     H
H       0.7323   0.4275   0.3274     H
H       0.7323   0.5725   0.8274     H
H       0.7379   0.2885   0.6498     H
H       0.7379   0.7115   0.1498     H
N       0.7408   0.2145   0.3059     N
N       0.7408   0.7855   0.8059     N
C       0.7427   0.4867   0.3179     C
C       0.7427   0.5133   0.8179     C
N       0.7466   0.2613     0.76     N
N       0.7466   0.7387     0.26     N
N       0.7479   0.2417   0.8642     N
N       0.7479   0.7583   0.3642     N
N       0.7521   0.2583   0.1358     N
N       0.7521   0.7417   0.6358     N
N       0.7534   0.2387     0.24     N
N       0.7534   0.7613     0.74     N
C       0.7573   0.0133   0.6821     C
C       0.7573   0.9867   0.1821     C
N       0.7592   0.2855   0.6941     N
N       0.7592   0.7145   0.1941     N
H       0.7621   0.2115   0.3502     H
H       0.7621   0.7885   0.8502     H
H       0.7677   0.0725   0.6726     H
H       0.7677   0.9275   0.1726     H
H        0.769    0.032   0.1567     H
H        0.769    0.968   0.6567     H
O      0.77416   0.0044    0.261     O
O      0.77416   0.9956    0.761     O
C       0.7746   0.2541   0.8301     C
C       0.7746   0.7459   0.3301     C
H       0.7877   0.2964   0.7003     H
H       0.7877   0.7036   0.2003     H
C       0.7946   0.4897   0.3466     C
C       0.7946   0.5103   0.8466     C
N       0.7957   0.2522   0.1746     N
N       0.7957   0.7478   0.6746     N
C       0.7974   0.2398    0.241     C
C       0.7974   0.7602    0.741     C
H       0.8013    0.487   0.9541     H
H       0.8013    0.513   0.4541     H
H       0.8049   0.4734   0.2513     H
H       0.8049   0.5266   0.7513     H
H       0.8154   0.0347   0.3977     H
H       0.8154   0.9653   0.8977     H
C        0.818   0.4963   0.9229     C
C        0.818   0.5037   0.4229     C
C       0.8199   0.4791   0.3032     C
C       0.8199   0.5209   0.8032     C
C       0.8219   0.0006   0.7991     C
C       0.8219   0.9994   0.2991     C
H       0.8232   0.2727   0.3966     H
H       0.8232   0.7273   0.8966     H
H       0.8262   0.2112    0.958     H
H       0.8262   0.7888    0.458     H
C       0.8283   0.2554   0.8653     C
C       0.8283   0.7446   0.3653     C
C        0.837   0.0194   0.3762     C
C        0.837   0.9806   0.8762     C
C       0.8421   0.2393   0.3067     C
C       0.8421   0.7607   0.8067     C
H       0.8434   0.0329   0.7139     H
H       0.8434   0.9671   0.2139     H
H       0.8449   0.3004   0.7817     H
H       0.8449   0.6996   0.2817     H
C       0.8455   0.2316   0.9338     C
C       0.8455   0.7684   0.4338     C
C       0.8483   0.2613   0.3822     C
C       0.8483   0.7387   0.8822     C
C       0.8535   0.0215   0.7653     C
C       0.8535   0.9785   0.2653     C
C       0.8565   0.2821   0.8318     C
C       0.8565   0.7179   0.3318     C
C       0.8661   0.4961   0.9531     C
C       0.8661   0.5039   0.4531     C
C       0.8686   0.4766   0.3347     C
C       0.8686   0.5234   0.8347     C
O       0.8716   0.0651   0.5294     O
O       0.8716   0.9349   0.0294     O
H       0.8747   0.1987   0.2436     H
H       0.8747   0.8013   0.7436     H
H        0.878   0.4164    0.237     H
H        0.878   0.5836    0.737     H
C       0.8787   0.2186   0.2918     C
C       0.8787   0.7814   0.7918     C
H       0.8812   0.4866   0.0045     H
H       0.8812   0.5134   0.5045     H
C       0.8835   0.0164   0.4203     C
C       0.8835   0.9836   0.9203     C
C       0.8911   0.4913   0.4115     C
C       0.8911   0.5087   0.9115     C
C       0.8924    0.236   0.9722     C
C       0.8924    0.764   0.4722     C
C       0.8949   0.2651   0.4347     C
C       0.8949   0.7349   0.9347     C
C       0.8971   0.4525   0.2798     C
C       0.8971   0.5475   0.7798     C
C       0.8994   0.0419   0.5019     C
C       0.8994   0.9581   0.0019     C
H       0.8997   0.2788   0.4846     H
H       0.8997   0.7212   0.9846     H
C       0.9004   0.0251   0.8098     C
C       0.9004   0.9749   0.3098     C
H        0.903   0.2217   0.0232     H
H        0.903   0.7783   0.5232     H
C       0.9048   0.2822   0.8742     C
C       0.9048   0.7178   0.3742     C
O       0.9069   0.4687   0.7574     O
O       0.9069   0.5313   0.2574     O
C       0.9152    0.007   0.8859     C
C       0.9152    0.993   0.3859     C
O      0.92192   0.0501   0.7051     O
O      0.92192   0.9499   0.2051     O
C       0.9226   0.2249   0.3441     C
C       0.9226   0.7751   0.8441     C
N       0.9229   0.2577   0.9452     N
N       0.9229   0.7423   0.4452     N
H       0.9234   0.4922    0.433     H
H       0.9234   0.5078    0.933     H
H       0.9248   0.3007   0.8506     H
H       0.9248   0.6993   0.3506     H
H       0.9253   0.4192   0.3071     H
H       0.9253   0.5808   0.8071     H
H       0.9293   0.3329   0.7135     H
H       0.9293   0.6671   0.2135     H
C       0.9294    0.468   0.7099     C
C       0.9294    0.532   0.2099     C
N       0.9314   0.2505   0.4171     N
N       0.9314   0.7495   0.9171     N
C       0.9356   0.0443   0.7751     C
C       0.9356   0.9557   0.2751     C
C       0.9383   0.3824   0.6919     C
C       0.9383   0.6176   0.1919     C
H       0.9385   0.3987   0.1939     H
H       0.9385   0.6013   0.6939     H
O      0.94343   0.0421   0.5383     O
O      0.94343   0.9579   0.0383     O
C       0.9437   0.4569     0.18     C
C       0.9437   0.5431     0.68     C
H       0.9468   0.0104   0.9151     H
H       0.9468   0.9896   0.4151     H
H       0.9476   0.2113   0.3297     H
H       0.9476   0.7887   0.8297     H
O        0.952    0.212   0.6516     O
O        0.952    0.788   0.1516     O
Zn     0.95816  0.08025  0.64393    Zn
Zn     0.95816  0.91975  0.14393    Zn
C       0.9608   0.3685   0.6407     C
C       0.9608   0.6315   0.1407     C
C       0.9663   0.4699   0.1282     C
C       0.9663   0.5301   0.6282     C
C       0.9687   0.2738   0.6222     C
C       0.9687   0.7262   0.1222     C
C       0.9747   0.4436    0.609     C
C       0.9747   0.5564    0.109     C
O       0.9756   0.3117   0.1154     O
O       0.9756   0.6883   0.6154     O
O      0.97604    0.053   0.8173     O
O      0.97604    0.947   0.3173     O
C       0.9792   0.3903   0.0929     C
C       0.9792   0.6097   0.5929     C
H       0.9895   0.4351    0.575     H
H       0.9895   0.5649    0.075     H
O       0.9909   0.2573   0.5809     O
O       0.9909   0.7427   0.0809     O
O      0.99268   0.4005   0.0389     O
O      0.99268   0.5995   0.5389     O
Zn     0.99548  0.26451  0.01363    Zn
Zn     0.99548  0.73549  0.51363    Zn
