data_I
_chemical_name_common  '/home/zhangsd/repos/MofS-CGCNN/ML/data/TSD/clean_cifs/WORSUT_clean'
_cell_length_a 14.82300
_cell_length_b 14.82300
_cell_length_c 16.02860
_cell_angle_alpha 83.25470
_cell_angle_beta  83.25470
_cell_angle_gamma 86.87580
_space_group_name_H-M_alt      'P 1'


loop_
_space_group_symop_operation_xyz
  'x, y, z' 

loop_
_atom_site_label
_atom_site_fract_x
_atom_site_fract_y
_atom_site_fract_z
_atom_site_type_symbol
H       0.0042   0.7606   0.9169     H
F      0.00914  0.58646   0.8743     F
O       0.0113  0.10994   0.7943     O
H       0.0239   0.9281   0.5237     H
O      0.03266  0.10896   0.6531     O
H       0.0364   0.5678   0.0707     H
H        0.037   0.6654    0.099     H
H       0.0382    0.321   0.4627     H
H       0.0407   0.8797   0.6627     H
C       0.0594    0.222   0.0812     C
C       0.0609   0.1113   0.7247     C
C       0.0659   0.8807   0.5356     C
H       0.0686   0.1604   0.0683     H
C       0.0715   0.6093   0.0939     C
H       0.0719   0.9761   0.9763     H
C       0.0749   0.8513     0.62     C
H       0.0786   0.2902   0.5981     H
B       0.0809   0.4051   0.1419     B
C        0.091   0.2298   0.1647     C
H       0.0932   0.2614   0.0383     H
C       0.0939   0.5691   0.1785     C
H       0.0965   0.2063   0.8599     H
O      0.09659  0.74469   0.3199     O
C       0.0982    0.326   0.4724     C
N       0.0989  0.31134   0.1918     N
N      0.10021  0.47795   0.1993     N
H       0.1037   0.5183   0.4434     H
Zn     0.10396  0.87672  0.34403    Zn
H        0.106    0.772     0.77     H
C       0.1086    0.612   0.2497     C
O      0.10896  0.03266   0.1531     O
O      0.10994   0.0113   0.2943     O
C       0.1113   0.0609   0.2247     C
C      0.11212  0.71212   0.2496     C
N      0.11348  0.84538    0.471     N
C       0.1157   0.1605   0.2273     C
C       0.1193   0.9341   0.9644     C
H       0.1203   0.9593   0.8373     H
C       0.1206   0.4604   0.2824     C
H       0.1209   0.6211   0.4131     H
C       0.1226   0.3066   0.5533     C
Zn     0.12328  0.89604  0.15597    Zn
C       0.1236   0.5448   0.3159     C
H       0.1266   0.6206   0.0572     H
C       0.1293   0.2967   0.2722     C
O      0.13006  0.75828   0.1788     O
H        0.131    0.146   0.4174     H
C       0.1344   0.7804   0.6396     C
C       0.1374   0.3716   0.3178     C
F      0.13815  0.41451    0.067     F
H       0.1384   0.6778    0.739     H
C        0.139   0.5596   0.4035     C
C       0.1417   0.2017    0.295     C
H        0.146    0.131   0.9174     H
C       0.1487   0.9251     0.88     C
C       0.1495   0.7423   0.7308     C
C       0.1546   0.1792   0.8721     C
N      0.15462  0.88652    0.029     N
H       0.1604   0.0686   0.5683     H
C       0.1605   0.1157   0.7273     C
C       0.1631   0.3529   0.4052     C
C       0.1736   0.7768   0.4907     C
C       0.1792   0.1546   0.3721     C
C       0.1839   0.7423   0.5728     C
H        0.191   0.2244   0.8882     H
C       0.2017   0.1417    0.795     C
H       0.2023   0.5489   0.4103     H
H       0.2063   0.0965   0.3599     H
H       0.2098   0.7518   0.4471     H
C        0.212   0.3114   0.5677     C
C       0.2196   0.8656   0.8604     C
C        0.222   0.0594   0.5812     C
C       0.2232   0.8264   0.0093     C
H       0.2241   0.6931   0.5835     H
H       0.2244    0.191   0.3882     H
H        0.228    0.894     0.73     H
H       0.2289   0.2957   0.6218     H
C       0.2298    0.091   0.6647     C
H       0.2394   0.9958   0.5831     H
O      0.24172  0.86994   0.3212     O
C       0.2437   0.7563     0.75     C
H       0.2482   0.7902   0.0529     H
C       0.2526    0.361   0.4202     C
O      0.25531  0.90341   0.1801     O
H       0.2572   0.7136    0.798     H
C       0.2577   0.8161   0.9272     C
C       0.2577   0.8505   0.7692     C
H       0.2614   0.0932   0.5383     H
C       0.2769   0.3397   0.5014     C
H       0.2864   0.7428    0.702     H
C      0.28788  0.88788   0.2504     C
H       0.2902   0.0786   0.0981     H
H       0.2957   0.2289   0.1218     H
H       0.2961   0.3807    0.376     H
C       0.2967   0.1293   0.7722     C
C       0.3066   0.1226   0.0533     C
H       0.3069   0.7759   0.9165     H
N      0.31134   0.0989   0.6918     N
C       0.3114    0.212   0.0677     C
H        0.321   0.0382   0.9627     H
H       0.3222   0.8616    0.761     H
C        0.326   0.0982   0.9724     C
H       0.3346    0.963    0.401     H
H       0.3369   0.3443   0.5115     H
C       0.3397   0.2769   0.0014     C
H       0.3443   0.3369   0.0115     H
C       0.3529   0.1631   0.9052     C
C        0.361   0.2526   0.9202     C
C       0.3716   0.1374   0.8178     C
H       0.3789   0.8791   0.0869     H
H       0.3794   0.8734   0.4428     H
H       0.3807   0.2961    0.876     H
C        0.388   0.8914   0.2503     C
C       0.3907   0.9285   0.4061     C
B       0.4051   0.0809   0.6419     B
F      0.41354  0.99086   0.6257     F
F      0.41451  0.13815    0.567     F
C       0.4309   0.9061   0.3215     C
H       0.4322   0.9636   0.4293     H
C       0.4404    0.861   0.0965     C
H       0.4511   0.7977   0.0897     H
C       0.4552   0.8764   0.1841     C
C       0.4604   0.1206   0.7824     C
N      0.47795  0.10021   0.6993     N
H       0.4817   0.8963   0.0566     H
H       0.5183   0.1037   0.9434     H
N      0.52205  0.89979   0.3007     N
C       0.5396   0.8794   0.2176     C
C       0.5448   0.1236   0.8159     C
H       0.5489   0.2023   0.9103     H
C       0.5596    0.139   0.9035     C
H       0.5678   0.0364   0.5707     H
C       0.5691   0.0939   0.6785     C
F      0.58549  0.86185    0.433     F
F      0.58646  0.00914   0.3743     F
B       0.5949   0.9191   0.3581     B
C       0.6093   0.0715   0.5939     C
C        0.612   0.1086   0.7497     C
H       0.6193   0.7039    0.124     H
H       0.6206   0.1266   0.5572     H
H       0.6211   0.1209   0.9131     H
C       0.6284   0.8626   0.1822     C
C        0.639   0.7474   0.0798     C
C       0.6471   0.8369   0.0948     C
H       0.6557   0.6631   0.9885     H
C       0.6603   0.7231   0.9986     C
H       0.6631   0.6557   0.4885     H
H       0.6654    0.037    0.599     H
C        0.674   0.9018   0.0276     C
H       0.6778   0.1384    0.239     H
H        0.679   0.9618   0.0373     H
C       0.6886    0.788   0.9323     C
N      0.68866   0.9011   0.3082     N
H       0.6931   0.2241   0.0835     H
C       0.6934   0.8774   0.9467     C
C       0.7033   0.8707   0.2278     C
H       0.7039   0.6193    0.624     H
H       0.7043   0.7711   0.8782     H
H       0.7098   0.9214   0.9019     H
C      0.71212  0.11212   0.7496     C
H       0.7136   0.2572    0.298     H
C       0.7231   0.6603   0.4986     C
H       0.7386   0.9068   0.4617     H
C       0.7423   0.1495   0.2308     C
C       0.7423   0.1839   0.0728     C
H       0.7428   0.2864    0.202     H
O      0.74469  0.09659   0.8199     O
C       0.7474    0.639   0.5798     C
H       0.7518   0.2098   0.9471     H
C       0.7563   0.2437     0.25     C
O      0.75828  0.13006   0.6788     O
H       0.7606   0.0042   0.4169     H
C       0.7702    0.909   0.3353     C
H       0.7711   0.7043   0.3782     H
H        0.772    0.106     0.27     H
H       0.7756    0.809   0.6118     H
H       0.7759   0.3069   0.4165     H
C       0.7768   0.1736   0.9907     C
C        0.778   0.9406   0.4188     C
C       0.7804   0.1344   0.1396     C
C        0.788   0.6886   0.4323     C
H       0.7902   0.2482   0.5529     H
H       0.7937   0.9035   0.6401     H
H       0.7977   0.4511   0.5897     H
C       0.7983   0.8583    0.205     C
H        0.809   0.7756   0.1118     H
C       0.8161   0.2577   0.4272     C
C       0.8208   0.8454   0.6279     C
C       0.8264   0.2232   0.5093     C
C       0.8369   0.6471   0.5948     C
C       0.8395   0.8843   0.2727     C
H       0.8396   0.9314   0.4317     H
N      0.84538  0.11348    0.971     N
C       0.8454   0.8208   0.1279     C
C       0.8505   0.2577   0.2692     C
C       0.8513   0.0749     0.12     C
H        0.854    0.869   0.0826     H
C       0.8583   0.7983    0.705     C
C        0.861   0.4404   0.5965     C
H       0.8616   0.3222    0.261     H
F      0.86185  0.58549    0.933     F
C       0.8626   0.6284   0.6822     C
C       0.8656   0.2196   0.3604     C
H        0.869    0.854   0.5826     H
O      0.86994  0.24172   0.8212     O
C       0.8707   0.7033   0.7278     C
H       0.8734   0.3794   0.9428     H
C       0.8764   0.4552   0.6841     C
Zn     0.87672  0.10396  0.84403    Zn
C       0.8774   0.6934   0.4467     C
H       0.8791   0.3789   0.5869     H
C       0.8794   0.5396   0.7176     C
H       0.8797   0.0407   0.1627     H
C       0.8807   0.0659   0.0356     C
C       0.8843   0.8395   0.7727     C
N      0.88652  0.15462    0.529     N
C      0.88788  0.28788   0.7504     C
C       0.8887   0.9391   0.7753     C
O      0.89006   0.9887   0.7057     O
O      0.89104  0.96734   0.8469     O
C       0.8914    0.388   0.7503     C
H        0.894    0.228     0.23     H
Zn     0.89604  0.12328  0.65597    Zn
H       0.8963   0.4817   0.5566     H
N      0.89979  0.52205   0.8007     N
N       0.9011  0.68866   0.8082     N
C       0.9018    0.674   0.5276     C
O      0.90341  0.25531   0.6801     O
H       0.9035   0.7937   0.1401     H
C       0.9061   0.4309   0.8215     C
H       0.9068   0.7386   0.9617     H
C        0.909   0.7702   0.8353     C
B       0.9191   0.5949   0.8581     B
H       0.9214   0.7098   0.4019     H
C       0.9251   0.1487     0.38     C
H       0.9281   0.0239   0.0237     H
C       0.9285   0.3907   0.9061     C
H       0.9314   0.8396   0.9317     H
C       0.9341   0.1193   0.4644     C
C       0.9391   0.8887   0.2753     C
C       0.9406    0.778   0.9188     C
H       0.9593   0.1203   0.3373     H
H       0.9618    0.679   0.5373     H
H        0.963   0.3346    0.901     H
H       0.9636   0.4322   0.9293     H
O      0.96734  0.89104   0.3469     O
H       0.9761   0.0719   0.4763     H
O       0.9887  0.89006   0.2057     O
F      0.99086  0.41354   0.1257     F
H       0.9958   0.2394   0.0831     H
