data_I
_chemical_name_common  '/home/zhangsd/repos/MofS-CGCNN/ML/data/TSD/clean_cifs/WUDTOG_clean'
_cell_length_a  9.84320
_cell_length_b 10.04080
_cell_length_c 18.04530
_cell_angle_alpha 90.13500
_cell_angle_beta  93.96300
_cell_angle_gamma 113.87200
_space_group_name_H-M_alt      'P 1'


loop_
_space_group_symop_operation_xyz
  'x, y, z' 

loop_
_atom_site_label
_atom_site_fract_x
_atom_site_fract_y
_atom_site_fract_z
_atom_site_type_symbol
Pr     0.00715  0.27666  0.99681    Pr
H       0.0223   0.8095   0.2072     H
H       0.0526   0.7327    0.801     H
O       0.0596   0.9384   0.0819     O
O       0.0607    0.588   0.9141     O
C       0.0694   0.8946   0.2363     C
O       0.0729   0.1608   0.1023     O
C       0.0772   0.0424    0.123     C
H       0.0786   0.7975   0.3318     H
C        0.093    0.689   0.7683     C
H       0.0951   0.8177   0.6848     H
C       0.0993   0.5174   0.8676     C
C       0.1039   0.0304    0.205     C
C        0.106    0.888   0.3109     C
O       0.1124   0.4008   0.8837     O
C        0.119     0.74   0.6988     C
C       0.1257    0.571   0.7913     C
H       0.1261   0.6774   0.5365     H
H        0.131   0.5626   0.4431     H
H       0.1571   0.9945   0.4677     H
H       0.1636   0.4651   0.5034     H
C        0.175   0.1539   0.2492     C
C        0.181    0.507   0.7393     C
C        0.181     0.68   0.6476     C
C        0.183   0.0121   0.3565     C
H       0.1849   0.0928   0.5632     H
H       0.1933   0.2449   0.5377     H
O        0.196   0.6908   0.0776     O
H       0.1982   0.4247   0.7517     H
H       0.1986   0.2445   0.2284     H
C        0.201    0.523   0.4612     C
C        0.209    0.562   0.6707     C
C        0.209    0.739   0.5706     C
H        0.209   0.8356   0.5707     H
H       0.2132    0.464   0.4227     H
C        0.214    0.147   0.3242     C
O       0.2296   0.4892   0.0459     O
H       0.2303   0.7238   0.2173     H
C        0.235      0.0   0.4361     C
C        0.241   0.5907   0.0918     C
C        0.247    0.195    0.563     C
H        0.248   0.9095   0.4404     H
H        0.249   0.5183   0.6379     H
H       0.2607   0.2326   0.3531     H
H       0.2757   0.2329   0.6132     H
C        0.285   0.6678   0.2265     C
C       0.3099   0.5921    0.169     C
H        0.325   0.7113   0.3374     H
C        0.342   0.6597   0.2989     C
C        0.351   0.6481   0.4843     C
C        0.353    0.748   0.5411     C
C        0.382    0.127   0.4651     C
C        0.384    0.218   0.5236     C
C        0.392    0.507   0.1837     C
H       0.4071   0.4533   0.1456     H
H        0.411   0.9567   0.3679     H
H       0.4156   0.4604   0.4086     H
H         0.42   0.0062   0.6116     H
H       0.4218   0.4362   0.6071     H
C        0.423    0.578   0.3144     C
C         0.45    0.505   0.2555     C
H       0.4665   0.9168   0.6716     H
C        0.478    0.558   0.3941     C
C        0.478    0.664   0.4537     C
C        0.488   0.8593   0.5656     C
H       0.4909   0.5468   0.7354     H
C        0.491    0.966   0.6257     C
C        0.509    0.034   0.3743     C
H       0.5091   0.4532   0.2646     H
C        0.512   0.1407   0.4344     C
C        0.522    0.336   0.5463     C
C        0.522    0.442   0.6059     C
H       0.5335   0.0832   0.3284     H
C         0.55    0.495   0.7445     C
C        0.577    0.422   0.6856     C
H       0.5782   0.5638   0.3929     H
H         0.58   0.9938   0.3884     H
H       0.5844   0.5396   0.5914     H
H        0.589   0.0433   0.6321     H
H       0.5929   0.5467   0.8544     H
C        0.608    0.493   0.8163     C
C        0.616    0.782   0.4764     C
C        0.618    0.873   0.5349     C
C        0.647    0.252   0.4589     C
C        0.649   0.3519   0.5157     C
C        0.658   0.3403   0.7011     C
H        0.675   0.2887   0.6626     H
C       0.6901   0.4079    0.831     C
C        0.715   0.3322   0.7735     C
H       0.7243   0.7671   0.3868     H
H       0.7393   0.7674   0.6469     H
H        0.751   0.4817   0.3621     H
H        0.752   0.0905   0.5596     H
C        0.753    0.805    0.437     C
C        0.759   0.4093   0.9082     C
C        0.765      0.0   0.5639     C
H       0.7697   0.2762   0.7827     H
O       0.7704   0.5108   0.9541     O
C        0.786    0.853   0.6758     C
H       0.7868    0.536   0.5773     H
H        0.791   0.1644   0.4293     H
C        0.791    0.261   0.4294     C
C        0.791    0.438   0.3293     C
C        0.799    0.477   0.5388     C
H       0.8014   0.7555   0.7716     H
H       0.8018   0.5753   0.2483     H
O        0.804   0.3092   0.9224     O
H       0.8067   0.7551   0.4623     H
H       0.8151   0.9072   0.4368     H
C        0.817   0.9879   0.6435     C
C        0.819     0.32   0.3524     C
C        0.819    0.493   0.2607     C
C        0.825   0.8461   0.7508     C
H       0.8364   0.5349   0.4966     H
H       0.8429   0.0055   0.5323     H
H        0.869   0.4374   0.5569     H
H       0.8739   0.3226   0.4635     H
C       0.8743    0.429   0.2087     C
C        0.881     0.26   0.3012     C
O       0.8876   0.5992   0.1163     O
C        0.894    0.112   0.6891     C
C       0.8961   0.9696    0.795     C
C       0.9007   0.4826   0.1324     C
H       0.9049   0.1823   0.3152     H
C        0.907    0.311   0.2317     C
H       0.9214   0.2025   0.6682     H
C       0.9228   0.9576    0.877     C
O       0.9271   0.8392   0.8977     O
C       0.9306   0.1054   0.7637     C
O       0.9393    0.412   0.0859     O
O       0.9404   0.0616   0.9181     O
H       0.9474   0.2673    0.199     H
H       0.9777   0.1905   0.7928     H
Pr     0.99285  0.72334  0.00319    Pr
