data_I
_chemical_name_common  '/home/zhangsd/repos/MofS-CGCNN/ML/data/TSD/clean_cifs/WUDVEY_clean'
_cell_length_a 32.76260
_cell_length_b 34.95000
_cell_length_c  5.77210
_cell_angle_alpha 90.00000
_cell_angle_beta  90.00000
_cell_angle_gamma 90.00000
_space_group_name_H-M_alt      'P 1'


loop_
_space_group_symop_operation_xyz
  'x, y, z' 

loop_
_atom_site_label
_atom_site_fract_x
_atom_site_fract_y
_atom_site_fract_z
_atom_site_type_symbol
H       0.0023   0.0911   0.6817     H
H       0.0023   0.4089   0.6817     H
C       0.0044   0.6031    0.179     C
C       0.0044   0.8969    0.179     C
C       0.0052   0.1567    0.073     C
C       0.0052   0.3433    0.073     C
C       0.0145   0.1373     0.88     C
C       0.0145   0.3627     0.88     C
O       0.0181   0.2067    0.334     O
O       0.0181   0.2933    0.334     O
C        0.023   0.6403    0.782     C
C        0.023   0.8597    0.782     C
H       0.0261   0.5161   0.7472     H
H       0.0261   0.9839   0.7472     H
C       0.0274    0.195    0.114     C
C       0.0274    0.305    0.114     C
H       0.0295   0.6523   0.6426     H
H       0.0295   0.8477   0.6426     H
H       0.0333   0.5297      0.1     H
H       0.0333   0.9703      0.1     H
C       0.0335   0.5863    0.033     C
C       0.0335   0.9137    0.033     C
H       0.0345   0.1471   0.7815     H
H       0.0345   0.3529   0.7815     H
H        0.041   0.0253   0.8082     H
H        0.041   0.4747   0.8082     H
C       0.0422   0.6059     0.84     C
C       0.0422   0.8941     0.84     C
Yb     0.04371     0.25   0.6199    Yb
O        0.045   0.2087    0.951     O
O        0.045   0.2913    0.951     O
C       0.0467   0.0028    0.718     C
H       0.0467   0.0093   0.5564     H
H       0.0467   0.4907   0.5564     H
C       0.0467   0.4972    0.718     C
C       0.0533   0.5502    0.108     C
C       0.0533   0.9498    0.108     C
H       0.0615   0.5528   0.2686     H
H       0.0615   0.9472   0.2686     H
H       0.0618   0.5962   0.7403     H
H       0.0618   0.9038   0.7403     H
H       0.0871   0.0846   0.2394     H
H       0.0871   0.4154   0.2394     H
C        0.088    0.513    0.784     C
C        0.088    0.987    0.784     C
H       0.0907   0.1494   0.3081     H
H       0.0907   0.3506   0.3081     H
C       0.0911   0.5381    0.965     C
C       0.0911   0.9619    0.965     C
O       0.0945   0.2096    0.567     O
O       0.0945   0.2904    0.567     O
H       0.0954   0.0185   0.3807     H
H       0.0954   0.4815   0.3807     H
C       0.1003   0.0936    0.371     C
C       0.1003   0.4064    0.371     C
C       0.1017   0.1324    0.415     C
C       0.1017   0.3676    0.415     C
H       0.1081   0.6002   0.2114     H
H       0.1081   0.8998   0.2114     H
C       0.1184    0.068    0.524     C
C       0.1184    0.432    0.524     C
C       0.1193   0.1466    0.615     C
C       0.1193   0.3534    0.615     C
C       0.1196   0.1885    0.666     C
C       0.1196   0.3115    0.666     C
C         0.12   0.0251    0.465     C
C         0.12   0.4749    0.465     C
C       0.1238   0.5012    0.665     C
C       0.1238   0.9988    0.665     C
C        0.128   0.5532     0.04     C
H        0.128   0.5698   0.3763     H
H        0.128   0.9302   0.3763     H
C        0.128   0.9468     0.04     C
C       0.1301   0.5823    0.229     C
C       0.1301   0.9177    0.229     C
C        0.135   0.0822    0.722     C
C        0.135   0.4178    0.722     C
C       0.1366   0.1212    0.769     C
C       0.1366   0.3788    0.769     C
H        0.143   0.0208   0.3622     H
H        0.143   0.4792   0.3622     H
H       0.1457   0.0652     0.83     H
H       0.1457   0.4348     0.83     H
O       0.1479   0.2004    0.789     O
O       0.1479   0.2996    0.789     O
H       0.1493   0.1301   0.9024     H
H       0.1493   0.3699   0.9024     H
H       0.1557   0.5957     0.22     H
H       0.1557   0.9043     0.22     H
C        0.162   0.5151     0.75     C
C        0.162   0.9849     0.75     C
C       0.1635   0.5403     0.93     C
C       0.1635   0.9597     0.93     C
Yb     0.18115     0.25   0.9463    Yb
H       0.1872   0.5932   0.6462     H
H       0.1872   0.9068   0.6462     H
O        0.192   0.2042   0.2376     O
O        0.192   0.2958   0.2376     O
H       0.1942   0.0104   0.4849     H
H       0.1942   0.4896   0.4849     H
C       0.2011   0.5013     0.63     C
C       0.2011   0.9987     0.63     C
H       0.2023   0.5574   0.1905     H
H       0.2023   0.9426   0.1905     H
C       0.2051   0.5531    0.025     C
C       0.2051   0.9469    0.025     C
H       0.2065   0.1519   0.5203     H
H       0.2065   0.3481   0.5203     H
C       0.2095   0.6043    0.721     C
C       0.2095   0.8957    0.721     C
H       0.2147    0.017   0.7271     H
H       0.2147    0.483   0.7271     H
H       0.2176   0.6459   0.4815     H
H       0.2176   0.8541   0.4815     H
H       0.2188   0.5227   0.6031     H
H       0.2188   0.9773   0.6031     H
C       0.2221   0.1891    0.132     C
C       0.2221   0.3109    0.132     C
C       0.2227   0.5884    0.918     C
C       0.2227   0.9116    0.918     C
H       0.2244   0.5323   0.0043     H
H       0.2244   0.9677   0.0043     H
C       0.2272   0.6363    0.622     C
C       0.2272   0.8637    0.622     C
C       0.2274   0.1395    0.441     C
C       0.2274   0.3605    0.441     C
H       0.2351   0.0965    0.671     H
H       0.2351   0.4035    0.671     H
O       0.2353   0.2047    0.956     O
O       0.2353   0.2953    0.956     O
C       0.2411   0.1538    0.232     C
C       0.2411   0.3462    0.232     C
C       0.2449   0.1065    0.533     C
C       0.2449   0.3935    0.533     C
C       0.2551   0.6065    0.033     C
C       0.2551   0.8935    0.033     C
C       0.2589   0.6538    0.732     C
C       0.2589   0.8462    0.732     C
O       0.2647   0.7047    0.456     O
O       0.2647   0.7953    0.456     O
H       0.2649   0.5965    0.171     H
H       0.2649   0.9035    0.171     H
C       0.2726   0.6395    0.941     C
C       0.2726   0.8605    0.941     C
C       0.2728   0.1363    0.122     C
C       0.2728   0.3637    0.122     C
H       0.2756   0.0323   0.5043     H
H       0.2756   0.4677   0.5043     H
C       0.2773   0.0884    0.418     C
C       0.2773   0.4116    0.418     C
C       0.2779   0.6891    0.632     C
C       0.2779   0.8109    0.632     C
H       0.2812   0.0227   0.1031     H
H       0.2812   0.4773   0.1031     H
H       0.2824   0.1459   0.9815     H
H       0.2824   0.3541   0.9815     H
H       0.2853    0.517   0.2271     H
H       0.2853    0.983   0.2271     H
C       0.2905   0.1043    0.221     C
C       0.2905   0.3957    0.221     C
H       0.2935   0.6519   0.0203     H
H       0.2935   0.8481   0.0203     H
C       0.2949   0.0531    0.525     C
C       0.2949   0.4469    0.525     C
H       0.2977   0.0574   0.6905     H
H       0.2977   0.4426   0.6905     H
C       0.2989   0.0013     0.13     C
C       0.2989   0.4987     0.13     C
H       0.3058   0.5104   0.9849     H
H       0.3058   0.9896   0.9849     H
O        0.308   0.7042   0.7376     O
O        0.308   0.7958   0.7376     O
H       0.3128   0.0932   0.1462     H
H       0.3128   0.4068   0.1462     H
Yb     0.31885     0.75   0.4463    Yb
C       0.3365   0.0403     0.43     C
C       0.3365   0.4597     0.43     C
C        0.338   0.0151     0.25     C
C        0.338   0.4849     0.25     C
H       0.3443   0.0957     0.72     H
H       0.3443   0.4043     0.72     H
H       0.3507   0.6301   0.4024     H
H       0.3507   0.8699   0.4024     H
O       0.3521   0.7004    0.289     O
O       0.3521   0.7996    0.289     O
H       0.3543   0.5652     0.33     H
H       0.3543   0.9348     0.33     H
H        0.357   0.5208   0.8622     H
H        0.357   0.9792   0.8622     H
C       0.3634   0.6212    0.269     C
C       0.3634   0.8788    0.269     C
C        0.365   0.5822    0.222     C
C        0.365   0.9178    0.222     C
C       0.3699   0.0823    0.729     C
C       0.3699   0.4177    0.729     C
C        0.372   0.0532     0.54     C
H        0.372   0.0698   0.8763     H
H        0.372   0.4302   0.8763     H
C        0.372   0.4468     0.54     C
C       0.3762   0.0012    0.165     C
C       0.3762   0.4988    0.165     C
C         0.38   0.5251    0.965     C
C         0.38   0.9749    0.965     C
C       0.3804   0.6885    0.166     C
C       0.3804   0.8115    0.166     C
C       0.3807   0.6466    0.115     C
C       0.3807   0.8534    0.115     C
C       0.3816    0.568    0.024     C
C       0.3816    0.932    0.024     C
H       0.3919   0.1002   0.7114     H
H       0.3919   0.3998   0.7114     H
C       0.3983   0.6324    0.915     C
C       0.3983   0.8676    0.915     C
C       0.3997   0.5936    0.871     C
C       0.3997   0.9064    0.871     C
H       0.4046   0.5185   0.8807     H
H       0.4046   0.9815   0.8807     H
O       0.4055   0.7096    0.067     O
O       0.4055   0.7904    0.067     O
C       0.4089   0.0381    0.465     C
C       0.4089   0.4619    0.465     C
H       0.4093   0.6494   0.8081     H
H       0.4093   0.8506   0.8081     H
C        0.412    0.013    0.284     C
C        0.412    0.487    0.284     C
H       0.4129   0.5846   0.7394     H
H       0.4129   0.9154   0.7394     H
H       0.4382   0.0962   0.2403     H
H       0.4382   0.4038   0.2403     H
H       0.4385   0.0528   0.7686     H
H       0.4385   0.4472   0.7686     H
C       0.4467   0.0502    0.608     C
C       0.4467   0.4498    0.608     C
C       0.4533   0.5028    0.218     C
H       0.4533   0.5093   0.0564     H
H       0.4533   0.9907   0.0564     H
C       0.4533   0.9972    0.218     C
O        0.455   0.7087    0.451     O
O        0.455   0.7913    0.451     O
Yb     0.45629     0.75   0.1199    Yb
C       0.4578   0.1059     0.34     C
C       0.4578   0.3941     0.34     C
H        0.459   0.5253   0.3082     H
H        0.459   0.9747   0.3082     H
H       0.4655   0.6471   0.2815     H
H       0.4655   0.8529   0.2815     H
C       0.4665   0.0863    0.533     C
C       0.4665   0.4137    0.533     C
H       0.4667   0.0297      0.6     H
H       0.4667   0.4703      0.6     H
H       0.4705   0.1523   0.1426     H
H       0.4705   0.3477   0.1426     H
C       0.4726    0.695    0.614     C
C       0.4726    0.805    0.614     C
H       0.4739   0.0161   0.2472     H
H       0.4739   0.4839   0.2472     H
C        0.477   0.1403    0.282     C
C        0.477   0.3597    0.282     C
O       0.4819   0.7067    0.834     O
O       0.4819   0.7933    0.834     O
C       0.4855   0.6373     0.38     C
C       0.4855   0.8627     0.38     C
C       0.4948   0.6567    0.573     C
C       0.4948   0.8433    0.573     C
C       0.4956   0.1031    0.679     C
C       0.4956   0.3969    0.679     C
H       0.4977   0.5911   0.1817     H
H       0.4977   0.9089   0.1817     H
H       0.5023   0.0911   0.8183     H
H       0.5023   0.4089   0.8183     H
C       0.5044   0.6031    0.321     C
C       0.5044   0.8969    0.321     C
C       0.5052   0.1567    0.427     C
C       0.5052   0.3433    0.427     C
C       0.5145   0.1373     0.62     C
C       0.5145   0.3627     0.62     C
O       0.5181   0.2067    0.166     O
O       0.5181   0.2933    0.166     O
C        0.523   0.6403    0.718     C
C        0.523   0.8597    0.718     C
H       0.5261   0.5161   0.7528     H
H       0.5261   0.9839   0.7528     H
C       0.5274    0.195    0.386     C
C       0.5274    0.305    0.386     C
H       0.5295   0.6523   0.8574     H
H       0.5295   0.8477   0.8574     H
H       0.5333   0.5297      0.4     H
H       0.5333   0.9703      0.4     H
C       0.5335   0.5863    0.467     C
C       0.5335   0.9137    0.467     C
H       0.5345   0.1471   0.7185     H
H       0.5345   0.3529   0.7185     H
H        0.541   0.0253   0.6918     H
H        0.541   0.4747   0.6918     H
C       0.5422   0.6059     0.66     C
C       0.5422   0.8941     0.66     C
Yb     0.54371     0.25   0.8801    Yb
O        0.545   0.2087    0.549     O
O        0.545   0.2913    0.549     O
C       0.5467   0.0028    0.782     C
H       0.5467   0.0093   0.9436     H
H       0.5467   0.4907   0.9436     H
C       0.5467   0.4972    0.782     C
C       0.5533   0.5502    0.392     C
C       0.5533   0.9498    0.392     C
H       0.5615   0.5528   0.2314     H
H       0.5615   0.9472   0.2314     H
H       0.5618   0.5962   0.7597     H
H       0.5618   0.9038   0.7597     H
H       0.5871   0.0846   0.2606     H
H       0.5871   0.4154   0.2606     H
C        0.588    0.513    0.716     C
C        0.588    0.987    0.716     C
H       0.5907   0.1494   0.1919     H
H       0.5907   0.3506   0.1919     H
C       0.5911   0.5381    0.535     C
C       0.5911   0.9619    0.535     C
O       0.5945   0.2096    0.933     O
O       0.5945   0.2904    0.933     O
H       0.5954   0.0185   0.1193     H
H       0.5954   0.4815   0.1193     H
C       0.6003   0.0936    0.129     C
C       0.6003   0.4064    0.129     C
C       0.6017   0.1324    0.085     C
C       0.6017   0.3676    0.085     C
H       0.6081   0.6002   0.2886     H
H       0.6081   0.8998   0.2886     H
C       0.6184    0.068    0.976     C
C       0.6184    0.432    0.976     C
C       0.6193   0.1466    0.885     C
C       0.6193   0.3534    0.885     C
C       0.6196   0.1885    0.834     C
C       0.6196   0.3115    0.834     C
C         0.62   0.0251    0.035     C
C         0.62   0.4749    0.035     C
C       0.6238   0.5012    0.835     C
C       0.6238   0.9988    0.835     C
C        0.628   0.5532     0.46     C
H        0.628   0.5698   0.1237     H
H        0.628   0.9302   0.1237     H
C        0.628   0.9468     0.46     C
C       0.6301   0.5823    0.271     C
C       0.6301   0.9177    0.271     C
C        0.635   0.0822    0.778     C
C        0.635   0.4178    0.778     C
C       0.6366   0.1212    0.731     C
C       0.6366   0.3788    0.731     C
H        0.643   0.0208   0.1378     H
H        0.643   0.4792   0.1378     H
H       0.6457   0.0652     0.67     H
H       0.6457   0.4348     0.67     H
O       0.6479   0.2004    0.711     O
O       0.6479   0.2996    0.711     O
H       0.6493   0.1301   0.5976     H
H       0.6493   0.3699   0.5976     H
H       0.6557   0.5957     0.28     H
H       0.6557   0.9043     0.28     H
C        0.662   0.5151     0.75     C
C        0.662   0.9849     0.75     C
C       0.6635   0.5403     0.57     C
C       0.6635   0.9597     0.57     C
Yb     0.68115     0.25   0.5537    Yb
H       0.6872   0.5932   0.8538     H
H       0.6872   0.9068   0.8538     H
O        0.692   0.2042   0.2624     O
O        0.692   0.2958   0.2624     O
H       0.6942   0.0104   0.0151     H
H       0.6942   0.4896   0.0151     H
C       0.7011   0.5013     0.87     C
C       0.7011   0.9987     0.87     C
H       0.7023   0.5574   0.3095     H
H       0.7023   0.9426   0.3095     H
C       0.7051   0.5531    0.475     C
C       0.7051   0.9469    0.475     C
H       0.7065   0.1519   0.9797     H
H       0.7065   0.3481   0.9797     H
C       0.7095   0.6043    0.779     C
C       0.7095   0.8957    0.779     C
H       0.7147    0.017   0.7729     H
H       0.7147    0.483   0.7729     H
H       0.7176   0.6459   0.0185     H
H       0.7176   0.8541   0.0185     H
H       0.7188   0.5227   0.8969     H
H       0.7188   0.9773   0.8969     H
C       0.7221   0.1891    0.368     C
C       0.7221   0.3109    0.368     C
C       0.7227   0.5884    0.582     C
C       0.7227   0.9116    0.582     C
H       0.7244   0.5323   0.4957     H
H       0.7244   0.9677   0.4957     H
C       0.7272   0.6363    0.878     C
C       0.7272   0.8637    0.878     C
C       0.7274   0.1395    0.059     C
C       0.7274   0.3605    0.059     C
H       0.7351   0.0965    0.829     H
H       0.7351   0.4035    0.829     H
O       0.7353   0.2047    0.544     O
O       0.7353   0.2953    0.544     O
C       0.7411   0.1538    0.268     C
C       0.7411   0.3462    0.268     C
C       0.7449   0.1065    0.967     C
C       0.7449   0.3935    0.967     C
C       0.7551   0.6065    0.467     C
C       0.7551   0.8935    0.467     C
C       0.7589   0.6538    0.768     C
C       0.7589   0.8462    0.768     C
O       0.7647   0.7047    0.044     O
O       0.7647   0.7953    0.044     O
H       0.7649   0.5965    0.329     H
H       0.7649   0.9035    0.329     H
C       0.7726   0.6395    0.559     C
C       0.7726   0.8605    0.559     C
C       0.7728   0.1363    0.378     C
C       0.7728   0.3637    0.378     C
H       0.7756   0.0323   0.9957     H
H       0.7756   0.4677   0.9957     H
C       0.7773   0.0884    0.082     C
C       0.7773   0.4116    0.082     C
C       0.7779   0.6891    0.868     C
C       0.7779   0.8109    0.868     C
H       0.7812   0.0227   0.3969     H
H       0.7812   0.4773   0.3969     H
H       0.7824   0.1459   0.5185     H
H       0.7824   0.3541   0.5185     H
H       0.7853    0.517   0.2729     H
H       0.7853    0.983   0.2729     H
C       0.7905   0.1043    0.279     C
C       0.7905   0.3957    0.279     C
H       0.7935   0.6519   0.4797     H
H       0.7935   0.8481   0.4797     H
C       0.7949   0.0531    0.975     C
C       0.7949   0.4469    0.975     C
H       0.7977   0.0574   0.8095     H
H       0.7977   0.4426   0.8095     H
C       0.7989   0.0013     0.37     C
C       0.7989   0.4987     0.37     C
H       0.8058   0.5104   0.5151     H
H       0.8058   0.9896   0.5151     H
O        0.808   0.7042   0.7624     O
O        0.808   0.7958   0.7624     O
H       0.8128   0.0932   0.3538     H
H       0.8128   0.4068   0.3538     H
Yb     0.81885     0.75   0.0537    Yb
C       0.8365   0.0403     0.07     C
C       0.8365   0.4597     0.07     C
C        0.838   0.0151     0.25     C
C        0.838   0.4849     0.25     C
H       0.8443   0.0957     0.78     H
H       0.8443   0.4043     0.78     H
H       0.8507   0.6301   0.0976     H
H       0.8507   0.8699   0.0976     H
O       0.8521   0.7004    0.211     O
O       0.8521   0.7996    0.211     O
H       0.8543   0.5652     0.17     H
H       0.8543   0.9348     0.17     H
H        0.857   0.5208   0.6378     H
H        0.857   0.9792   0.6378     H
C       0.8634   0.6212    0.231     C
C       0.8634   0.8788    0.231     C
C        0.865   0.5822    0.278     C
C        0.865   0.9178    0.278     C
C       0.8699   0.0823    0.771     C
C       0.8699   0.4177    0.771     C
C        0.872   0.0532     0.96     C
H        0.872   0.0698   0.6237     H
H        0.872   0.4302   0.6237     H
C        0.872   0.4468     0.96     C
C       0.8762   0.0012    0.335     C
C       0.8762   0.4988    0.335     C
C         0.88   0.5251    0.535     C
C         0.88   0.9749    0.535     C
C       0.8804   0.6885    0.334     C
C       0.8804   0.8115    0.334     C
C       0.8807   0.6466    0.385     C
C       0.8807   0.8534    0.385     C
C       0.8816    0.568    0.476     C
C       0.8816    0.932    0.476     C
H       0.8919   0.1002   0.7886     H
H       0.8919   0.3998   0.7886     H
C       0.8983   0.6324    0.585     C
C       0.8983   0.8676    0.585     C
C       0.8997   0.5936    0.629     C
C       0.8997   0.9064    0.629     C
H       0.9046   0.5185   0.6193     H
H       0.9046   0.9815   0.6193     H
O       0.9055   0.7096    0.433     O
O       0.9055   0.7904    0.433     O
C       0.9089   0.0381    0.035     C
C       0.9089   0.4619    0.035     C
H       0.9093   0.6494   0.6919     H
H       0.9093   0.8506   0.6919     H
C        0.912    0.013    0.216     C
C        0.912    0.487    0.216     C
H       0.9129   0.5846   0.7606     H
H       0.9129   0.9154   0.7606     H
H       0.9382   0.0962   0.2597     H
H       0.9382   0.4038   0.2597     H
H       0.9385   0.0528   0.7314     H
H       0.9385   0.4472   0.7314     H
C       0.9467   0.0502    0.892     C
C       0.9467   0.4498    0.892     C
C       0.9533   0.5028    0.282     C
H       0.9533   0.5093   0.4436     H
H       0.9533   0.9907   0.4436     H
C       0.9533   0.9972    0.282     C
O        0.955   0.7087    0.049     O
O        0.955   0.7913    0.049     O
Yb     0.95629     0.75   0.3801    Yb
C       0.9578   0.1059     0.16     C
C       0.9578   0.3941     0.16     C
H        0.959   0.5253   0.1918     H
H        0.959   0.9747   0.1918     H
H       0.9655   0.6471   0.2185     H
H       0.9655   0.8529   0.2185     H
C       0.9665   0.0863    0.967     C
C       0.9665   0.4137    0.967     C
H       0.9667   0.0297      0.9     H
H       0.9667   0.4703      0.9     H
H       0.9705   0.1523   0.3574     H
H       0.9705   0.3477   0.3574     H
C       0.9726    0.695    0.886     C
C       0.9726    0.805    0.886     C
H       0.9739   0.0161   0.2528     H
H       0.9739   0.4839   0.2528     H
C        0.977   0.1403    0.218     C
C        0.977   0.3597    0.218     C
O       0.9819   0.7067    0.666     O
O       0.9819   0.7933    0.666     O
C       0.9855   0.6373     0.12     C
C       0.9855   0.8627     0.12     C
C       0.9948   0.6567    0.927     C
C       0.9948   0.8433    0.927     C
C       0.9956   0.1031    0.821     C
C       0.9956   0.3969    0.821     C
H       0.9977   0.5911   0.3183     H
H       0.9977   0.9089   0.3183     H
