data_I
_chemical_name_common  '/home/zhangsd/repos/MofS-CGCNN/ML/data/TSD/clean_cifs/WURNOO_clean'
_cell_length_a  7.98780
_cell_length_b 33.93520
_cell_length_c 39.19920
_cell_angle_alpha 90.00000
_cell_angle_beta  90.00000
_cell_angle_gamma 90.00000
_space_group_name_H-M_alt      'P 1'


loop_
_space_group_symop_operation_xyz
  'x, y, z' 

loop_
_atom_site_label
_atom_site_fract_x
_atom_site_fract_y
_atom_site_fract_z
_atom_site_type_symbol
H       0.0166    0.097   0.5273     H
H       0.0166    0.153   0.7227     H
H       0.0166    0.597   0.0273     H
H       0.0166    0.653   0.2227     H
H       0.0183   0.2786   0.0504     H
H       0.0183   0.4714   0.6996     H
H       0.0183   0.7786   0.5504     H
H       0.0183   0.9714   0.1996     H
H       0.0295   0.0958   0.0224     H
H       0.0295   0.1542   0.2276     H
H       0.0295   0.5958   0.5224     H
H       0.0295   0.6542   0.7276     H
C       0.0341   0.0109  0.23826     C
C       0.0341   0.2391  0.01174     C
C       0.0341   0.5109  0.73826     C
C       0.0341   0.7391  0.51174     C
N       0.0369  0.05833  0.56451     N
N       0.0369  0.19167  0.68549     N
N       0.0369  0.55833  0.06451     N
N       0.0369  0.69167  0.18549     N
C       0.0419    0.331  0.33579     C
C       0.0419    0.419  0.41421     C
C       0.0419    0.831  0.83579     C
C       0.0419    0.919  0.91421     C
Cu     0.04503  0.34382  0.85066    Cu
Cu     0.04503  0.40618  0.89934    Cu
Cu     0.04503  0.84382  0.35066    Cu
Cu     0.04503  0.90618  0.39934    Cu
H       0.0456   0.2771   0.5531     H
H       0.0456   0.4729   0.1969     H
H       0.0456   0.7771   0.0531     H
H       0.0456   0.9729   0.6969     H
C       0.0481   0.0563   0.0605     C
C       0.0481   0.1937   0.1895     C
C       0.0481   0.5563   0.5605     C
C       0.0481   0.6937   0.6895     C
C       0.0539   0.0132  0.73561     C
C       0.0539   0.2368  0.51439     C
C       0.0539   0.5132  0.23561     C
C       0.0539   0.7368  0.01439     C
C       0.0576   0.0721  0.53257     C
C       0.0576   0.1779  0.71743     C
C       0.0576   0.5721  0.03257     C
C       0.0576   0.6779  0.21743     C
C       0.0584   0.2538   0.0447     C
C       0.0584   0.4962   0.7053     C
C       0.0584   0.7538   0.5447     C
C       0.0584   0.9962   0.2053     C
C       0.0698   0.0709    0.028     C
C       0.0698   0.1791    0.222     C
C       0.0698   0.5709    0.528     C
C       0.0698   0.6791    0.722     C
H       0.0763   0.0115   0.5932     H
H       0.0763   0.2385   0.6568     H
H       0.0763   0.5115   0.0932     H
H       0.0763   0.7385   0.1568     H
O       0.0781  0.36582  0.32682     O
O       0.0781  0.38418  0.42318     O
O       0.0781  0.86582  0.82682     O
O       0.0781  0.88418  0.92318     O
C       0.0804   0.2517   0.5475     C
O       0.0804  0.31559  0.36431     O
O       0.0804  0.43441  0.38569     O
C       0.0804   0.4983   0.2025     C
C       0.0804   0.7517   0.0475     C
O       0.0804  0.81559  0.86431     O
O       0.0804  0.93441  0.88569     O
C       0.0804   0.9983   0.7025     C
H       0.0844    0.058   0.2686     H
H       0.0844    0.192   0.9814     H
H       0.0844    0.558   0.7686     H
H       0.0844    0.692   0.4814     H
H        0.091   0.0088   0.0909     H
H        0.091   0.2412   0.1591     H
H        0.091   0.5088   0.5909     H
H        0.091   0.7412   0.6591     H
C       0.0918   0.0215   0.5714     C
C       0.0918   0.2285   0.6786     C
C       0.0918   0.5215   0.0714     C
C       0.0918   0.7285   0.1786     C
C       0.0975   0.0482  0.24656     C
C       0.0975   0.2018  0.00344     C
C       0.0975   0.5482  0.74656     C
C       0.0975   0.7018  0.50344     C
H       0.1005   0.0618   0.7643     H
H       0.1005   0.1882   0.4857     H
H       0.1005   0.5618   0.2643     H
H       0.1005   0.6882   0.9857     H
C       0.1075   0.0188   0.0691     C
C       0.1075   0.2312   0.1809     C
C       0.1075   0.5188   0.5691     C
C       0.1075   0.7312   0.6809     C
C       0.1138    0.051   0.7426     C
C       0.1138    0.199   0.5074     C
C       0.1138    0.551   0.2426     C
C       0.1138    0.699   0.0074     C
O        0.125    0.125    0.625     O
O        0.125    0.625    0.125     O
C       0.1362    0.051   0.5074     C
C       0.1362    0.199   0.7426     C
C       0.1362    0.551   0.0074     C
C       0.1362    0.699   0.2426     C
C       0.1425   0.0188   0.1809     C
C       0.1425   0.2312   0.0691     C
C       0.1425   0.5188   0.6809     C
C       0.1425   0.7312   0.5691     C
H       0.1495   0.0618   0.4857     H
H       0.1495   0.1882   0.7643     H
H       0.1495   0.5618   0.9857     H
H       0.1495   0.6882   0.2643     H
C       0.1525   0.0482  0.00344     C
C       0.1525   0.2018  0.24656     C
C       0.1525   0.5482  0.50344     C
C       0.1525   0.7018  0.74656     C
C       0.1582   0.0215   0.6786     C
C       0.1582   0.2285   0.5714     C
C       0.1582   0.5215   0.1786     C
C       0.1582   0.7285   0.0714     C
H        0.159   0.0088   0.1591     H
H        0.159   0.2412   0.0909     H
H        0.159   0.5088   0.6591     H
H        0.159   0.7412   0.5909     H
H       0.1656    0.058   0.9814     H
H       0.1656    0.192   0.2686     H
H       0.1656    0.558   0.4814     H
H       0.1656    0.692   0.7686     H
C       0.1696   0.2517   0.7025     C
O       0.1696  0.31559  0.88569     O
O       0.1696  0.43441  0.86431     O
C       0.1696   0.4983   0.0475     C
C       0.1696   0.7517   0.2025     C
O       0.1696  0.81559  0.38569     O
O       0.1696  0.93441  0.36431     O
C       0.1696   0.9983   0.5475     C
O       0.1719  0.36582  0.92318     O
O       0.1719  0.38418  0.82682     O
O       0.1719  0.86582  0.42318     O
O       0.1719  0.88418  0.32682     O
H       0.1737   0.0115   0.6568     H
H       0.1737   0.2385   0.5932     H
H       0.1737   0.5115   0.1568     H
H       0.1737   0.7385   0.0932     H
C       0.1802   0.0709    0.222     C
C       0.1802   0.1791    0.028     C
C       0.1802   0.5709    0.722     C
C       0.1802   0.6791    0.528     C
C       0.1916   0.2538   0.2053     C
C       0.1916   0.4962   0.5447     C
C       0.1916   0.7538   0.7053     C
C       0.1916   0.9962   0.0447     C
C       0.1924   0.0721  0.71743     C
C       0.1924   0.1779  0.53257     C
C       0.1924   0.5721  0.21743     C
C       0.1924   0.6779  0.03257     C
C       0.1961   0.0132  0.51439     C
C       0.1961   0.2368  0.73561     C
C       0.1961   0.5132  0.01439     C
C       0.1961   0.7368  0.23561     C
C       0.2019   0.0563   0.1895     C
C       0.2019   0.1937   0.0605     C
C       0.2019   0.5563   0.6895     C
C       0.2019   0.6937   0.5605     C
H       0.2044   0.2771   0.6969     H
H       0.2044   0.4729   0.0531     H
H       0.2044   0.7771   0.1969     H
H       0.2044   0.9729   0.5531     H
Cu     0.20497  0.34382  0.39934    Cu
Cu     0.20497  0.40618  0.35066    Cu
Cu     0.20497  0.84382  0.89934    Cu
Cu     0.20497  0.90618  0.85066    Cu
C       0.2081    0.331  0.91421     C
C       0.2081    0.419  0.83579     C
C       0.2081    0.831  0.41421     C
C       0.2081    0.919  0.33579     C
N       0.2131  0.05833  0.68549     N
N       0.2131  0.19167  0.56451     N
N       0.2131  0.55833  0.18549     N
N       0.2131  0.69167  0.06451     N
C       0.2159   0.0109  0.01174     C
C       0.2159   0.2391  0.23826     C
C       0.2159   0.5109  0.51174     C
C       0.2159   0.7391  0.73826     C
H       0.2205   0.0958   0.2276     H
H       0.2205   0.1542   0.0224     H
H       0.2205   0.5958   0.7276     H
H       0.2205   0.6542   0.5224     H
H       0.2317   0.2786   0.1996     H
H       0.2317   0.4714   0.5504     H
H       0.2317   0.7786   0.6996     H
H       0.2317   0.9714   0.0504     H
H       0.2334    0.097   0.7227     H
H       0.2334    0.153   0.5273     H
H       0.2334    0.597   0.2227     H
H       0.2334    0.653   0.0273     H
H       0.2666    0.347   0.4727     H
H       0.2666    0.403   0.2773     H
H       0.2666    0.847   0.9727     H
H       0.2666    0.903   0.7773     H
H       0.2683   0.0286   0.4496     H
H       0.2683   0.2214   0.8004     H
H       0.2683   0.5286   0.9496     H
H       0.2683   0.7214   0.3004     H
H       0.2795   0.3458   0.9776     H
H       0.2795   0.4042   0.7724     H
H       0.2795   0.8458   0.4776     H
H       0.2795   0.9042   0.2724     H
C       0.2841   0.2609  0.76174     C
C       0.2841   0.4891  0.98826     C
C       0.2841   0.7609  0.26174     C
C       0.2841   0.9891  0.48826     C
N       0.2869  0.30833  0.43549     N
N       0.2869  0.44167  0.31451     N
N       0.2869  0.80833  0.93549     N
N       0.2869  0.94167  0.81451     N
C       0.2919    0.081  0.16421     C
C       0.2919    0.169  0.08579     C
C       0.2919    0.581  0.66421     C
C       0.2919    0.669  0.58579     C
Cu     0.29503  0.09382  0.64934    Cu
Cu     0.29503  0.15618  0.60066    Cu
Cu     0.29503  0.59382  0.14934    Cu
Cu     0.29503  0.65618  0.10066    Cu
H       0.2956   0.0271   0.9469     H
H       0.2956   0.2229   0.3031     H
H       0.2956   0.5271   0.4469     H
H       0.2956   0.7229   0.8031     H
C       0.2981   0.3063   0.9395     C
C       0.2981   0.4437   0.8105     C
C       0.2981   0.8063   0.4395     C
C       0.2981   0.9437   0.3105     C
C       0.3039   0.2632  0.26439     C
C       0.3039   0.4868  0.48561     C
C       0.3039   0.7632  0.76439     C
C       0.3039   0.9868  0.98561     C
C       0.3076   0.3221  0.46743     C
C       0.3076   0.4279  0.28257     C
C       0.3076   0.8221  0.96743     C
C       0.3076   0.9279  0.78257     C
C       0.3084   0.0038   0.4553     C
C       0.3084   0.2462   0.7947     C
C       0.3084   0.5038   0.9553     C
C       0.3084   0.7462   0.2947     C
C       0.3198   0.3209    0.972     C
C       0.3198   0.4291    0.778     C
C       0.3198   0.8209    0.472     C
C       0.3198   0.9291    0.278     C
H       0.3263   0.2615   0.4068     H
H       0.3263   0.4885   0.3432     H
H       0.3263   0.7615   0.9068     H
H       0.3263   0.9885   0.8432     H
O       0.3281  0.11582  0.17318     O
O       0.3281  0.13418  0.07682     O
O       0.3281  0.61582  0.67318     O
O       0.3281  0.63418  0.57682     O
C       0.3304   0.0017   0.9525     C
O       0.3304  0.06559  0.13569     O
O       0.3304  0.18441  0.11431     O
C       0.3304   0.2483   0.2975     C
C       0.3304   0.5017   0.4525     C
O       0.3304  0.56559  0.63569     O
O       0.3304  0.68441  0.61431     O
C       0.3304   0.7483   0.7975     C
H       0.3344    0.308   0.7314     H
H       0.3344    0.442   0.0186     H
H       0.3344    0.808   0.2314     H
H       0.3344    0.942   0.5186     H
H        0.341   0.2588   0.9091     H
H        0.341   0.4912   0.8409     H
H        0.341   0.7588   0.4091     H
H        0.341   0.9912   0.3409     H
C       0.3418   0.2715   0.4286     C
C       0.3418   0.4785   0.3214     C
C       0.3418   0.7715   0.9286     C
C       0.3418   0.9785   0.8214     C
C       0.3475   0.2982  0.75344     C
C       0.3475   0.4518  0.99656     C
C       0.3475   0.7982  0.25344     C
C       0.3475   0.9518  0.49656     C
H       0.3505   0.3118   0.2357     H
H       0.3505   0.4382   0.5143     H
H       0.3505   0.8118   0.7357     H
H       0.3505   0.9382   0.0143     H
C       0.3575   0.2688   0.9309     C
C       0.3575   0.4812   0.8191     C
C       0.3575   0.7688   0.4309     C
C       0.3575   0.9812   0.3191     C
C       0.3638    0.301   0.2574     C
C       0.3638    0.449   0.4926     C
C       0.3638    0.801   0.7574     C
C       0.3638    0.949   0.9926     C
O        0.375    0.375    0.375     O
O        0.375    0.875    0.875     O
C       0.3862    0.301   0.4926     C
C       0.3862    0.449   0.2574     C
C       0.3862    0.801   0.9926     C
C       0.3862    0.949   0.7574     C
C       0.3925   0.2688   0.8191     C
C       0.3925   0.4812   0.9309     C
C       0.3925   0.7688   0.3191     C
C       0.3925   0.9812   0.4309     C
H       0.3995   0.3118   0.5143     H
H       0.3995   0.4382   0.2357     H
H       0.3995   0.8118   0.0143     H
H       0.3995   0.9382   0.7357     H
C       0.4025   0.2982  0.99656     C
C       0.4025   0.4518  0.75344     C
C       0.4025   0.7982  0.49656     C
C       0.4025   0.9518  0.25344     C
C       0.4082   0.2715   0.3214     C
C       0.4082   0.4785   0.4286     C
C       0.4082   0.7715   0.8214     C
C       0.4082   0.9785   0.9286     C
H        0.409   0.2588   0.8409     H
H        0.409   0.4912   0.9091     H
H        0.409   0.7588   0.3409     H
H        0.409   0.9912   0.4091     H
H       0.4156    0.308   0.0186     H
H       0.4156    0.442   0.7314     H
H       0.4156    0.808   0.5186     H
H       0.4156    0.942   0.2314     H
C       0.4196   0.0017   0.7975     C
O       0.4196  0.06559  0.61431     O
O       0.4196  0.18441  0.63569     O
C       0.4196   0.2483   0.4525     C
C       0.4196   0.5017   0.2975     C
O       0.4196  0.56559  0.11431     O
O       0.4196  0.68441  0.13569     O
C       0.4196   0.7483   0.9525     C
O       0.4219  0.11582  0.57682     O
O       0.4219  0.13418  0.67318     O
O       0.4219  0.61582  0.07682     O
O       0.4219  0.63418  0.17318     O
H       0.4237   0.2615   0.3432     H
H       0.4237   0.4885   0.4068     H
H       0.4237   0.7615   0.8432     H
H       0.4237   0.9885   0.9068     H
C       0.4302   0.3209    0.778     C
C       0.4302   0.4291    0.972     C
C       0.4302   0.8209    0.278     C
C       0.4302   0.9291    0.472     C
C       0.4416   0.0038   0.2947     C
C       0.4416   0.2462   0.9553     C
C       0.4416   0.5038   0.7947     C
C       0.4416   0.7462   0.4553     C
C       0.4424   0.3221  0.28257     C
C       0.4424   0.4279  0.46743     C
C       0.4424   0.8221  0.78257     C
C       0.4424   0.9279  0.96743     C
C       0.4461   0.2632  0.48561     C
C       0.4461   0.4868  0.26439     C
C       0.4461   0.7632  0.98561     C
C       0.4461   0.9868  0.76439     C
C       0.4519   0.3063   0.8105     C
C       0.4519   0.4437   0.9395     C
C       0.4519   0.8063   0.3105     C
C       0.4519   0.9437   0.4395     C
H       0.4544   0.0271   0.8031     H
H       0.4544   0.2229   0.4469     H
H       0.4544   0.5271   0.3031     H
H       0.4544   0.7229   0.9469     H
Cu     0.45497  0.09382  0.10066    Cu
Cu     0.45497  0.15618  0.14934    Cu
Cu     0.45497  0.59382  0.60066    Cu
Cu     0.45497  0.65618  0.64934    Cu
C       0.4581    0.081  0.58579     C
C       0.4581    0.169  0.66421     C
C       0.4581    0.581  0.08579     C
C       0.4581    0.669  0.16421     C
N       0.4631  0.30833  0.31451     N
N       0.4631  0.44167  0.43549     N
N       0.4631  0.80833  0.81451     N
N       0.4631  0.94167  0.93549     N
C       0.4659   0.2609  0.98826     C
C       0.4659   0.4891  0.76174     C
C       0.4659   0.7609  0.48826     C
C       0.4659   0.9891  0.26174     C
H       0.4705   0.3458   0.7724     H
H       0.4705   0.4042   0.9776     H
H       0.4705   0.8458   0.2724     H
H       0.4705   0.9042   0.4776     H
H       0.4817   0.0286   0.3004     H
H       0.4817   0.2214   0.9496     H
H       0.4817   0.5286   0.8004     H
H       0.4817   0.7214   0.4496     H
H       0.4834    0.347   0.2773     H
H       0.4834    0.403   0.4727     H
H       0.4834    0.847   0.7773     H
H       0.4834    0.903   0.9727     H
H       0.5166    0.097   0.0273     H
H       0.5166    0.153   0.2227     H
H       0.5166    0.597   0.5273     H
H       0.5166    0.653   0.7227     H
H       0.5183   0.2786   0.5504     H
H       0.5183   0.4714   0.1996     H
H       0.5183   0.7786   0.0504     H
H       0.5183   0.9714   0.6996     H
H       0.5295   0.0958   0.5224     H
H       0.5295   0.1542   0.7276     H
H       0.5295   0.5958   0.0224     H
H       0.5295   0.6542   0.2276     H
C       0.5341   0.0109  0.73826     C
C       0.5341   0.2391  0.51174     C
C       0.5341   0.5109  0.23826     C
C       0.5341   0.7391  0.01174     C
N       0.5369  0.05833  0.06451     N
N       0.5369  0.19167  0.18549     N
N       0.5369  0.55833  0.56451     N
N       0.5369  0.69167  0.68549     N
C       0.5419    0.331  0.83579     C
C       0.5419    0.419  0.91421     C
C       0.5419    0.831  0.33579     C
C       0.5419    0.919  0.41421     C
Cu     0.54503  0.34382  0.35066    Cu
Cu     0.54503  0.40618  0.39934    Cu
Cu     0.54503  0.84382  0.85066    Cu
Cu     0.54503  0.90618  0.89934    Cu
H       0.5456   0.2771   0.0531     H
H       0.5456   0.4729   0.6969     H
H       0.5456   0.7771   0.5531     H
H       0.5456   0.9729   0.1969     H
C       0.5481   0.0563   0.5605     C
C       0.5481   0.1937   0.6895     C
C       0.5481   0.5563   0.0605     C
C       0.5481   0.6937   0.1895     C
C       0.5539   0.0132  0.23561     C
C       0.5539   0.2368  0.01439     C
C       0.5539   0.5132  0.73561     C
C       0.5539   0.7368  0.51439     C
C       0.5576   0.0721  0.03257     C
C       0.5576   0.1779  0.21743     C
C       0.5576   0.5721  0.53257     C
C       0.5576   0.6779  0.71743     C
C       0.5584   0.2538   0.5447     C
C       0.5584   0.4962   0.2053     C
C       0.5584   0.7538   0.0447     C
C       0.5584   0.9962   0.7053     C
C       0.5698   0.0709    0.528     C
C       0.5698   0.1791    0.722     C
C       0.5698   0.5709    0.028     C
C       0.5698   0.6791    0.222     C
H       0.5763   0.0115   0.0932     H
H       0.5763   0.2385   0.1568     H
H       0.5763   0.5115   0.5932     H
H       0.5763   0.7385   0.6568     H
O       0.5781  0.36582  0.82682     O
O       0.5781  0.38418  0.92318     O
O       0.5781  0.86582  0.32682     O
O       0.5781  0.88418  0.42318     O
C       0.5804   0.2517   0.0475     C
O       0.5804  0.31559  0.86431     O
O       0.5804  0.43441  0.88569     O
C       0.5804   0.4983   0.7025     C
C       0.5804   0.7517   0.5475     C
O       0.5804  0.81559  0.36431     O
O       0.5804  0.93441  0.38569     O
C       0.5804   0.9983   0.2025     C
H       0.5844    0.058   0.7686     H
H       0.5844    0.192   0.4814     H
H       0.5844    0.558   0.2686     H
H       0.5844    0.692   0.9814     H
H        0.591   0.0088   0.5909     H
H        0.591   0.2412   0.6591     H
H        0.591   0.5088   0.0909     H
H        0.591   0.7412   0.1591     H
C       0.5918   0.0215   0.0714     C
C       0.5918   0.2285   0.1786     C
C       0.5918   0.5215   0.5714     C
C       0.5918   0.7285   0.6786     C
C       0.5975   0.0482  0.74656     C
C       0.5975   0.2018  0.50344     C
C       0.5975   0.5482  0.24656     C
C       0.5975   0.7018  0.00344     C
H       0.6005   0.0618   0.2643     H
H       0.6005   0.1882   0.9857     H
H       0.6005   0.5618   0.7643     H
H       0.6005   0.6882   0.4857     H
C       0.6075   0.0188   0.5691     C
C       0.6075   0.2312   0.6809     C
C       0.6075   0.5188   0.0691     C
C       0.6075   0.7312   0.1809     C
C       0.6138    0.051   0.2426     C
C       0.6138    0.199   0.0074     C
C       0.6138    0.551   0.7426     C
C       0.6138    0.699   0.5074     C
O        0.625    0.125    0.125     O
O        0.625    0.625    0.625     O
C       0.6362    0.051   0.0074     C
C       0.6362    0.199   0.2426     C
C       0.6362    0.551   0.5074     C
C       0.6362    0.699   0.7426     C
C       0.6425   0.0188   0.6809     C
C       0.6425   0.2312   0.5691     C
C       0.6425   0.5188   0.1809     C
C       0.6425   0.7312   0.0691     C
H       0.6495   0.0618   0.9857     H
H       0.6495   0.1882   0.2643     H
H       0.6495   0.5618   0.4857     H
H       0.6495   0.6882   0.7643     H
C       0.6525   0.0482  0.50344     C
C       0.6525   0.2018  0.74656     C
C       0.6525   0.5482  0.00344     C
C       0.6525   0.7018  0.24656     C
C       0.6582   0.0215   0.1786     C
C       0.6582   0.2285   0.0714     C
C       0.6582   0.5215   0.6786     C
C       0.6582   0.7285   0.5714     C
H        0.659   0.0088   0.6591     H
H        0.659   0.2412   0.5909     H
H        0.659   0.5088   0.1591     H
H        0.659   0.7412   0.0909     H
H       0.6656    0.058   0.4814     H
H       0.6656    0.192   0.7686     H
H       0.6656    0.558   0.9814     H
H       0.6656    0.692   0.2686     H
C       0.6696   0.2517   0.2025     C
O       0.6696  0.31559  0.38569     O
O       0.6696  0.43441  0.36431     O
C       0.6696   0.4983   0.5475     C
C       0.6696   0.7517   0.7025     C
O       0.6696  0.81559  0.88569     O
O       0.6696  0.93441  0.86431     O
C       0.6696   0.9983   0.0475     C
O       0.6719  0.36582  0.42318     O
O       0.6719  0.38418  0.32682     O
O       0.6719  0.86582  0.92318     O
O       0.6719  0.88418  0.82682     O
H       0.6737   0.0115   0.1568     H
H       0.6737   0.2385   0.0932     H
H       0.6737   0.5115   0.6568     H
H       0.6737   0.7385   0.5932     H
C       0.6802   0.0709    0.722     C
C       0.6802   0.1791    0.528     C
C       0.6802   0.5709    0.222     C
C       0.6802   0.6791    0.028     C
C       0.6916   0.2538   0.7053     C
C       0.6916   0.4962   0.0447     C
C       0.6916   0.7538   0.2053     C
C       0.6916   0.9962   0.5447     C
C       0.6924   0.0721  0.21743     C
C       0.6924   0.1779  0.03257     C
C       0.6924   0.5721  0.71743     C
C       0.6924   0.6779  0.53257     C
C       0.6961   0.0132  0.01439     C
C       0.6961   0.2368  0.23561     C
C       0.6961   0.5132  0.51439     C
C       0.6961   0.7368  0.73561     C
C       0.7019   0.0563   0.6895     C
C       0.7019   0.1937   0.5605     C
C       0.7019   0.5563   0.1895     C
C       0.7019   0.6937   0.0605     C
H       0.7044   0.2771   0.1969     H
H       0.7044   0.4729   0.5531     H
H       0.7044   0.7771   0.6969     H
H       0.7044   0.9729   0.0531     H
Cu     0.70497  0.34382  0.89934    Cu
Cu     0.70497  0.40618  0.85066    Cu
Cu     0.70497  0.84382  0.39934    Cu
Cu     0.70497  0.90618  0.35066    Cu
C       0.7081    0.331  0.41421     C
C       0.7081    0.419  0.33579     C
C       0.7081    0.831  0.91421     C
C       0.7081    0.919  0.83579     C
N       0.7131  0.05833  0.18549     N
N       0.7131  0.19167  0.06451     N
N       0.7131  0.55833  0.68549     N
N       0.7131  0.69167  0.56451     N
C       0.7159   0.0109  0.51174     C
C       0.7159   0.2391  0.73826     C
C       0.7159   0.5109  0.01174     C
C       0.7159   0.7391  0.23826     C
H       0.7205   0.0958   0.7276     H
H       0.7205   0.1542   0.5224     H
H       0.7205   0.5958   0.2276     H
H       0.7205   0.6542   0.0224     H
H       0.7317   0.2786   0.6996     H
H       0.7317   0.4714   0.0504     H
H       0.7317   0.7786   0.1996     H
H       0.7317   0.9714   0.5504     H
H       0.7334    0.097   0.2227     H
H       0.7334    0.153   0.0273     H
H       0.7334    0.597   0.7227     H
H       0.7334    0.653   0.5273     H
H       0.7666    0.347   0.9727     H
H       0.7666    0.403   0.7773     H
H       0.7666    0.847   0.4727     H
H       0.7666    0.903   0.2773     H
H       0.7683   0.0286   0.9496     H
H       0.7683   0.2214   0.3004     H
H       0.7683   0.5286   0.4496     H
H       0.7683   0.7214   0.8004     H
H       0.7795   0.3458   0.4776     H
H       0.7795   0.4042   0.2724     H
H       0.7795   0.8458   0.9776     H
H       0.7795   0.9042   0.7724     H
C       0.7841   0.2609  0.26174     C
C       0.7841   0.4891  0.48826     C
C       0.7841   0.7609  0.76174     C
C       0.7841   0.9891  0.98826     C
N       0.7869  0.30833  0.93549     N
N       0.7869  0.44167  0.81451     N
N       0.7869  0.80833  0.43549     N
N       0.7869  0.94167  0.31451     N
C       0.7919    0.081  0.66421     C
C       0.7919    0.169  0.58579     C
C       0.7919    0.581  0.16421     C
C       0.7919    0.669  0.08579     C
Cu     0.79503  0.09382  0.14934    Cu
Cu     0.79503  0.15618  0.10066    Cu
Cu     0.79503  0.59382  0.64934    Cu
Cu     0.79503  0.65618  0.60066    Cu
H       0.7956   0.0271   0.4469     H
H       0.7956   0.2229   0.8031     H
H       0.7956   0.5271   0.9469     H
H       0.7956   0.7229   0.3031     H
C       0.7981   0.3063   0.4395     C
C       0.7981   0.4437   0.3105     C
C       0.7981   0.8063   0.9395     C
C       0.7981   0.9437   0.8105     C
C       0.8039   0.2632  0.76439     C
C       0.8039   0.4868  0.98561     C
C       0.8039   0.7632  0.26439     C
C       0.8039   0.9868  0.48561     C
C       0.8076   0.3221  0.96743     C
C       0.8076   0.4279  0.78257     C
C       0.8076   0.8221  0.46743     C
C       0.8076   0.9279  0.28257     C
C       0.8084   0.0038   0.9553     C
C       0.8084   0.2462   0.2947     C
C       0.8084   0.5038   0.4553     C
C       0.8084   0.7462   0.7947     C
C       0.8198   0.3209    0.472     C
C       0.8198   0.4291    0.278     C
C       0.8198   0.8209    0.972     C
C       0.8198   0.9291    0.778     C
H       0.8263   0.2615   0.9068     H
H       0.8263   0.4885   0.8432     H
H       0.8263   0.7615   0.4068     H
H       0.8263   0.9885   0.3432     H
O       0.8281  0.11582  0.67318     O
O       0.8281  0.13418  0.57682     O
O       0.8281  0.61582  0.17318     O
O       0.8281  0.63418  0.07682     O
C       0.8304   0.0017   0.4525     C
O       0.8304  0.06559  0.63569     O
O       0.8304  0.18441  0.61431     O
C       0.8304   0.2483   0.7975     C
C       0.8304   0.5017   0.9525     C
O       0.8304  0.56559  0.13569     O
O       0.8304  0.68441  0.11431     O
C       0.8304   0.7483   0.2975     C
H       0.8344    0.308   0.2314     H
H       0.8344    0.442   0.5186     H
H       0.8344    0.808   0.7314     H
H       0.8344    0.942   0.0186     H
H        0.841   0.2588   0.4091     H
H        0.841   0.4912   0.3409     H
H        0.841   0.7588   0.9091     H
H        0.841   0.9912   0.8409     H
C       0.8418   0.2715   0.9286     C
C       0.8418   0.4785   0.8214     C
C       0.8418   0.7715   0.4286     C
C       0.8418   0.9785   0.3214     C
C       0.8475   0.2982  0.25344     C
C       0.8475   0.4518  0.49656     C
C       0.8475   0.7982  0.75344     C
C       0.8475   0.9518  0.99656     C
H       0.8505   0.3118   0.7357     H
H       0.8505   0.4382   0.0143     H
H       0.8505   0.8118   0.2357     H
H       0.8505   0.9382   0.5143     H
C       0.8575   0.2688   0.4309     C
C       0.8575   0.4812   0.3191     C
C       0.8575   0.7688   0.9309     C
C       0.8575   0.9812   0.8191     C
C       0.8638    0.301   0.7574     C
C       0.8638    0.449   0.9926     C
C       0.8638    0.801   0.2574     C
C       0.8638    0.949   0.4926     C
O        0.875    0.375    0.875     O
O        0.875    0.875    0.375     O
C       0.8862    0.301   0.9926     C
C       0.8862    0.449   0.7574     C
C       0.8862    0.801   0.4926     C
C       0.8862    0.949   0.2574     C
C       0.8925   0.2688   0.3191     C
C       0.8925   0.4812   0.4309     C
C       0.8925   0.7688   0.8191     C
C       0.8925   0.9812   0.9309     C
H       0.8995   0.3118   0.0143     H
H       0.8995   0.4382   0.7357     H
H       0.8995   0.8118   0.5143     H
H       0.8995   0.9382   0.2357     H
C       0.9025   0.2982  0.49656     C
C       0.9025   0.4518  0.25344     C
C       0.9025   0.7982  0.99656     C
C       0.9025   0.9518  0.75344     C
C       0.9082   0.2715   0.8214     C
C       0.9082   0.4785   0.9286     C
C       0.9082   0.7715   0.3214     C
C       0.9082   0.9785   0.4286     C
H        0.909   0.2588   0.3409     H
H        0.909   0.4912   0.4091     H
H        0.909   0.7588   0.8409     H
H        0.909   0.9912   0.9091     H
H       0.9156    0.308   0.5186     H
H       0.9156    0.442   0.2314     H
H       0.9156    0.808   0.0186     H
H       0.9156    0.942   0.7314     H
C       0.9196   0.0017   0.2975     C
O       0.9196  0.06559  0.11431     O
O       0.9196  0.18441  0.13569     O
C       0.9196   0.2483   0.9525     C
C       0.9196   0.5017   0.7975     C
O       0.9196  0.56559  0.61431     O
O       0.9196  0.68441  0.63569     O
C       0.9196   0.7483   0.4525     C
O       0.9219  0.11582  0.07682     O
O       0.9219  0.13418  0.17318     O
O       0.9219  0.61582  0.57682     O
O       0.9219  0.63418  0.67318     O
H       0.9237   0.2615   0.8432     H
H       0.9237   0.4885   0.9068     H
H       0.9237   0.7615   0.3432     H
H       0.9237   0.9885   0.4068     H
C       0.9302   0.3209    0.278     C
C       0.9302   0.4291    0.472     C
C       0.9302   0.8209    0.778     C
C       0.9302   0.9291    0.972     C
C       0.9416   0.0038   0.7947     C
C       0.9416   0.2462   0.4553     C
C       0.9416   0.5038   0.2947     C
C       0.9416   0.7462   0.9553     C
C       0.9424   0.3221  0.78257     C
C       0.9424   0.4279  0.96743     C
C       0.9424   0.8221  0.28257     C
C       0.9424   0.9279  0.46743     C
C       0.9461   0.2632  0.98561     C
C       0.9461   0.4868  0.76439     C
C       0.9461   0.7632  0.48561     C
C       0.9461   0.9868  0.26439     C
C       0.9519   0.3063   0.3105     C
C       0.9519   0.4437   0.4395     C
C       0.9519   0.8063   0.8105     C
C       0.9519   0.9437   0.9395     C
H       0.9544   0.0271   0.3031     H
H       0.9544   0.2229   0.9469     H
H       0.9544   0.5271   0.8031     H
H       0.9544   0.7229   0.4469     H
Cu     0.95497  0.09382  0.60066    Cu
Cu     0.95497  0.15618  0.64934    Cu
Cu     0.95497  0.59382  0.10066    Cu
Cu     0.95497  0.65618  0.14934    Cu
C       0.9581    0.081  0.08579     C
C       0.9581    0.169  0.16421     C
C       0.9581    0.581  0.58579     C
C       0.9581    0.669  0.66421     C
N       0.9631  0.30833  0.81451     N
N       0.9631  0.44167  0.93549     N
N       0.9631  0.80833  0.31451     N
N       0.9631  0.94167  0.43549     N
C       0.9659   0.2609  0.48826     C
C       0.9659   0.4891  0.26174     C
C       0.9659   0.7609  0.98826     C
C       0.9659   0.9891  0.76174     C
H       0.9705   0.3458   0.2724     H
H       0.9705   0.4042   0.4776     H
H       0.9705   0.8458   0.7724     H
H       0.9705   0.9042   0.9776     H
H       0.9817   0.0286   0.8004     H
H       0.9817   0.2214   0.4496     H
H       0.9817   0.5286   0.3004     H
H       0.9817   0.7214   0.9496     H
H       0.9834    0.347   0.7773     H
H       0.9834    0.403   0.9727     H
H       0.9834    0.847   0.2773     H
H       0.9834    0.903   0.4727     H
